@<TRIPOS>MOLECULE
3R540
247   249    1
SMALL
USER_CHARGES


@<TRIPOS>ATOM
      1 CA          6.7508  -12.3904  -49.3021 C.3       0 UNK        -0.1800 
      2 C           5.9799  -13.6166  -48.8338 C.2       0 UNK         0.5000 
      3 O           6.4290  -14.7433  -49.0477 O.2       0 UNK        -0.5000 
      4 N           4.8244  -13.3989  -48.1997 N.am      1 UNK        -0.5000 
      5 CA          3.9892  -14.4341  -47.5868 C.3       1 UNK         0.1400 
      6 C6          2.5007  -14.0122  -47.5726 C.3       23 UNK        -0.0398 
      7 S7          1.8066  -13.8857  -49.2566 S.3       23 UNK        -0.2404 
      8 C8          0.1122  -14.5256  -49.0200 C.3       23 UNK        -0.0205 
      9 C9         -0.0383  -16.0458  -49.1146 C.ar      23 UNK        -0.0193 
     10 C10        -1.2162  -16.5758  -49.6555 C.ar      23 UNK        -0.1150 
     11 C11        -1.4299  -17.9574  -49.6927 C.ar      23 UNK        -0.0193 
     12 C12        -0.4517  -18.8186  -49.1938 C.ar      23 UNK        -0.1150 
     13 C13         0.7288  -18.3078  -48.6541 C.ar      23 UNK        -0.0193 
     14 C14         0.9344  -16.9274  -48.6246 C.ar      23 UNK        -0.1150 
     15 C15         1.7693  -19.2531  -48.0851 C.3       23 UNK        -0.0205 
     16 S16         1.4553  -19.5741  -46.3217 S.3       23 UNK        -0.2404 
     17 C17         2.3195  -21.1732  -46.1311 C.3       23 UNK        -0.0398 
     18 CA          1.4537  -22.4675  -46.1819 C.3       11 UNK         0.1400 
     19 N           1.0729  -22.9537  -44.8529 N.am      11 UNK        -0.5000 
     20 C           0.7834  -24.2366  -44.5882 C.2       10 UNK         0.5000 
     21 O           0.8031  -25.1278  -45.4376 O.2       10 UNK        -0.5000 
     22 CA          0.3817  -24.5800  -43.1428 C.3       10 UNK         0.1400 
     23 CB          1.6277  -24.7533  -42.2616 C.3       10 UNK        -0.1800 
     24 N          -0.4975  -23.5753  -42.5471 N.am      10 UNK        -0.5000 
     25 C          -1.7568  -23.3441  -42.9425 C.2       9 UNK         0.5000 
     26 O          -2.3193  -23.9708  -43.8401 O.2       9 UNK        -0.5000 
     27 CA         -2.4898  -22.1781  -42.2514 C.3       9 UNK         0.1400 
     28 CB         -3.1285  -22.6449  -40.9349 C.3       9 UNK        -0.1800 
     29 N          -1.6357  -21.0119  -41.9940 N.am      9 UNK        -0.5000 
     30 C          -0.9777  -20.3365  -42.9445 C.2       8 UNK         0.5000 
     31 O          -0.9645  -20.6732  -44.1305 O.2       8 UNK        -0.5000 
     32 CA         -0.1700  -19.1078  -42.5041 C.3       8 UNK         0.1400 
     33 CB          1.2480  -19.5247  -42.0855 C.3       8 UNK        -0.1800 
     34 N          -0.0828  -18.2092  -43.6498 N.am      8 UNK        -0.5000 
     35 C          -0.7828  -17.0826  -43.7928 C.2       7 UNK         0.5000 
     36 O          -1.4115  -16.5367  -42.8821 O.2       7 UNK        -0.5000 
     37 CA         -0.8483  -16.5265  -45.2257 C.3       7 UNK         0.1400 
     38 CB         -1.8948  -17.3084  -46.0352 C.3       7 UNK        -0.1800 
     39 N          -1.2161  -15.1134  -45.2338 N.am      7 UNK        -0.5000 
     40 C          -0.3676  -14.1119  -44.9872 C.2       6 UNK         0.5000 
     41 O           0.8423  -14.2675  -44.7995 O.2       6 UNK        -0.5000 
     42 CA         -0.9866  -12.7071  -44.9379 C.3       6 UNK         0.1400 
     43 CB         -1.5325  -12.3955  -43.5357 C.3       6 UNK        -0.1800 
     44 N           0.0130  -11.7020  -45.2847 N.am      6 UNK        -0.5000 
     45 C           0.1213  -11.1157  -46.4842 C.2       5 UNK         0.5000 
     46 O          -0.6446  -11.3402  -47.4218 O.2       5 UNK        -0.5000 
     47 CA          1.2679  -10.1084  -46.6853 C.3       5 UNK         0.1400 
     48 CB          0.7275   -8.6699  -46.6577 C.3       5 UNK        -0.1800 
     49 N           2.2971  -10.2404  -45.6546 N.am      5 UNK        -0.5000 
     50 C           3.5548  -10.6392  -45.8608 C.2       4 UNK         0.5000 
     51 O           4.0196  -10.9092  -46.9693 O.2       4 UNK        -0.5000 
     52 CA          4.4436  -10.7748  -44.6128 C.3       4 UNK         0.1400 
     53 CB          4.5145   -9.4670  -43.7984 C.3       4 UNK        -0.1800 
     54 N           4.0854  -11.9184  -43.7673 N.am      4 UNK        -0.5000 
     55 C           2.9690  -12.1356  -43.0561 C.2       3 UNK         0.5000 
     56 O           1.9975  -11.3758  -43.0450 O.2       3 UNK        -0.5000 
     57 CA          2.9516  -13.4481  -42.2516 C.3       3 UNK         0.1400 
     58 CB          1.6414  -13.6958  -41.4833 C.3       3 UNK        -0.1800 
     59 N           3.1946  -14.5581  -43.1673 N.am      3 UNK        -0.5000 
     60 C           4.2222  -15.4116  -43.0958 C.2       2 UNK         0.5000 
     61 O           5.0332  -15.4307  -42.1692 O.2       2 UNK        -0.5000 
     62 CA          4.4096  -16.3838  -44.2784 C.3       2 UNK         0.1400 
     63 CB          3.6671  -17.7007  -44.0181 C.3       2 UNK        -0.1800 
     64 N           3.9978  -15.8532  -45.5833 N.am      2 UNK        -0.5000 
     65 C           4.5033  -14.7559  -46.1658 C.2       1 UNK         0.5000 
     66 O           5.3370  -14.0244  -45.6231 O.2       1 UNK        -0.5000 
     67 C           0.2334  -22.4240  -47.1293 C.2       11 UNK         0.5000 
     68 O           0.3687  -22.7735  -48.3004 O.2       11 UNK        -0.5000 
     69 N          -0.9433  -22.0603  -46.5980 N.am      12 UNK        -0.5000 
     70 CA         -2.2262  -22.0983  -47.2992 C.3       12 UNK         0.1400 
     71 CB         -3.3079  -21.4393  -46.4319 C.3       12 UNK        -0.1800 
     72 C          -2.6338  -23.5298  -47.6897 C.2       12 UNK         0.5000 
     73 O          -3.1060  -23.7408  -48.8069 O.2       12 UNK        -0.5000 
     74 N          -2.4030  -24.4934  -46.7853 N.am      13 UNK        -0.5000 
     75 CA         -2.5965  -25.9221  -47.0328 C.3       13 UNK         0.1400 
     76 CB         -2.4636  -26.7058  -45.7188 C.3       13 UNK        -0.1800 
     77 C          -1.6328  -26.4682  -48.1017 C.2       13 UNK         0.5000 
     78 O          -2.0729  -27.1987  -48.9890 O.2       13 UNK        -0.5000 
     79 N          -0.3537  -26.0676  -48.0374 N.am      14 UNK        -0.5000 
     80 CA          0.6717  -26.4015  -49.0326 C.3       14 UNK         0.1400 
     81 CB          2.0491  -25.9471  -48.5278 C.3       14 UNK        -0.1800 
     82 C           0.3763  -25.8094  -50.4260 C.2       14 UNK         0.5000 
     83 O           0.6459  -26.4615  -51.4349 O.2       14 UNK        -0.5000 
     84 N          -0.2165  -24.6084  -50.4529 N.am      15 UNK        -0.5000 
     85 CA         -0.7189  -23.9279  -51.6487 C.3       15 UNK         0.1400 
     86 CB         -0.8729  -22.4307  -51.3306 C.3       15 UNK        -0.1800 
     87 C          -2.0435  -24.5160  -52.1874 C.2       15 UNK         0.5000 
     88 O          -2.5051  -24.0798  -53.2418 O.2       15 UNK        -0.5000 
     89 N          -2.6296  -25.4836  -51.4656 N.am      16 UNK        -0.5000 
     90 CA         -3.8845  -26.1831  -51.7523 C.3       16 UNK         0.1400 
     91 CB         -3.7726  -27.0343  -53.0345 C.3       16 UNK        -0.1800 
     92 C          -5.1234  -25.2647  -51.7067 C.2       16 UNK         0.5000 
     93 O          -6.0734  -25.4674  -52.4664 O.2       16 UNK        -0.5000 
     94 N          -5.0956  -24.2967  -50.7773 N.am      17 UNK        -0.5000 
     95 CA         -6.1744  -23.3972  -50.3672 C.3       17 UNK         0.1400 
     96 CB         -7.1574  -24.1525  -49.4482 C.3       17 UNK        -0.1800 
     97 C          -6.8587  -22.6814  -51.5481 C.2       17 UNK         0.5000 
     98 O          -6.2964  -21.7280  -52.0901 O.2       17 UNK        -0.5000 
     99 N          -8.0499  -23.1566  -51.9358 N.am      18 UNK        -0.5000 
    100 CA        -8.8718  -22.6381  -53.0300 C.3       18 UNK         0.1400 
    101 CB       -10.1830  -23.4349  -53.0911 C.3       18 UNK        -0.1800 
    102 C         -8.1755  -22.6402  -54.4043 C.2       18 UNK         0.5000 
    103 O         -8.4969  -21.7896  -55.2338 O.2       18 UNK        -0.5000 
    104 N         -7.2024  -23.5411  -54.6082 N.am      19 UNK        -0.5000 
    105 CA        -6.3660  -23.6001  -55.8113 C.3       19 UNK         0.1400 
    106 CB        -5.5093  -24.8716  -55.7650 C.3       19 UNK        -0.1800 
    107 C         -5.4648  -22.3605  -55.9918 C.2       19 UNK         0.5000 
    108 O         -5.1431  -22.0073  -57.1267 O.2       19 UNK        -0.5000 
    109 N         -5.0988  -21.7152  -54.8770 N.am      20 UNK        -0.5000 
    110 CA        -4.3305  -20.4711  -54.8267 C.3       20 UNK         0.1400 
    111 CB        -3.2143  -20.6402  -53.7837 C.3       20 UNK        -0.1800 
    112 C         -5.2206  -19.2589  -54.4865 C.2       20 UNK         0.5000 
    113 O         -4.6920  -18.1633  -54.2935 O.2       20 UNK        -0.5000 
    114 N         -6.5431  -19.4756  -54.3915 N.am      21 UNK        -0.5000 
    115 CA        -7.5740  -18.5320  -53.9434 C.3       21 UNK         0.1400 
    116 CB        -7.7469  -17.3845  -54.9600 C.3       21 UNK        -0.1800 
    117 C         -7.3437  -18.0344  -52.4982 C.2       21 UNK         0.5000 
    118 O         -7.6527  -16.8842  -52.1816 O.2       21 UNK        -0.5000 
    119 N         -6.7939  -18.9132  -51.6493 N.am      22 UNK        -0.5000 
    120 CA        -6.4157  -18.6263  -50.2566 C.3       22 UNK         0.1400 
    121 C         -7.6038  -18.5920  -49.2484 C.2       22 UNK         0.5000 
    122 N         -8.8147  -18.9790  -49.6319 N.am      22 UNK        -0.7600 
    123 O         -7.4280  -18.2015  -48.0982 O.2       22 UNK        -0.5000 
    124 C124       -5.2834  -19.5830  -49.7864 C.3       23 UNK        -0.0398 
    125 S125       -3.9460  -18.7255  -48.8989 S.3       23 UNK        -0.2404 
    126 C126       -2.7286  -18.5261  -50.2355 C.3       23 UNK        -0.0205 
    127 H127        6.2378  -11.4655  -49.0359 H         1 UNK         0.0600 
    128 H128        7.7407  -12.3728  -48.8464 H         1 UNK         0.0600 
    129 H129        6.8718  -12.4131  -50.3851 H         1 UNK         0.0600 
    130 H130        4.5481  -12.4448  -47.9827 H         1 UNK         0.3000 
    131 H131        4.0762  -15.3515  -48.1732 H         1 UNK         0.0600 
    132 H132        2.3681  -13.0583  -47.0640 H         1 UNK         0.0800 
    133 H133        1.9054  -14.7293  -47.0118 H         1 UNK         0.0800 
    134 H134       -0.5152  -14.0528  -49.7770 H         1 UNK         0.0800 
    135 H135       -0.2755  -14.1882  -48.0585 H         1 UNK         0.0800 
    136 H136       -1.9858  -15.9113  -50.0224 H         1 UNK         0.1150 
    137 H137       -0.6170  -19.8868  -49.2059 H         1 UNK         0.1150 
    138 H138        1.8534  -16.5571  -48.2039 H         1 UNK         0.1150 
    139 H139        1.7494  -20.1887  -48.6466 H         1 UNK         0.0800 
    140 H140        2.7718  -18.8407  -48.2081 H         1 UNK         0.0800 
    141 H141        3.0837  -21.2327  -46.9075 H         1 UNK         0.0800 
    142 H142        2.8845  -21.1376  -45.1987 H         1 UNK         0.0800 
    143 H143        2.1142  -23.2315  -46.5983 H         1 UNK         0.0600 
    144 H144        0.9569  -22.2608  -44.1287 H         1 UNK         0.3000 
    145 H145       -0.1548  -25.5311  -43.1644 H         1 UNK         0.0600 
    146 H146        1.3572  -25.0756  -41.2559 H         1 UNK         0.0600 
    147 H147        2.2956  -25.5100  -42.6754 H         1 UNK         0.0600 
    148 H148        2.1952  -23.8257  -42.1760 H         1 UNK         0.0600 
    149 H149       -0.1130  -23.0081  -41.8063 H         1 UNK         0.3000 
    150 H150       -3.2901  -21.8559  -42.9208 H         1 UNK         0.0600 
    151 H151       -3.7827  -23.5020  -41.1007 H         1 UNK         0.0600 
    152 H152       -3.7357  -21.8566  -40.4895 H         1 UNK         0.0600 
    153 H153       -2.3755  -22.9430  -40.2044 H         1 UNK         0.0600 
    154 H154       -1.5899  -20.6890  -41.0382 H         1 UNK         0.3000 
    155 H155       -0.6712  -18.6301  -41.6599 H         1 UNK         0.0600 
    156 H156        1.8262  -18.6607  -41.7581 H         1 UNK         0.0600 
    157 H157        1.7894  -20.0002  -42.9046 H         1 UNK         0.0600 
    158 H158        1.2219  -20.2294  -41.2536 H         1 UNK         0.0600 
    159 H159        0.3130  -18.6333  -44.4802 H         1 UNK         0.3000 
    160 H160        0.1272  -16.6447  -45.7026 H         1 UNK         0.0600 
    161 H161       -2.8643  -17.3282  -45.5360 H         1 UNK         0.0600 
    162 H162       -1.5812  -18.3425  -46.1854 H         1 UNK         0.0600 
    163 H163       -2.0417  -16.8705  -47.0205 H         1 UNK         0.0600 
    164 H164       -2.2006  -14.9126  -45.3287 H         1 UNK         0.3000 
    165 H165       -1.8210  -12.6749  -45.6417 H         1 UNK         0.0600 
    166 H166       -0.7349  -12.3105  -42.7984 H         1 UNK         0.0600 
    167 H167       -2.0826  -11.4544  -43.5335 H         1 UNK         0.0600 
    168 H168       -2.2175  -13.1729  -43.1944 H         1 UNK         0.0600 
    169 H169        0.7199  -11.5328  -44.5776 H         1 UNK         0.3000 
    170 H170        1.6887  -10.2971  -47.6752 H         1 UNK         0.0600 
    171 H171       -0.0359   -8.5231  -47.4229 H         1 UNK         0.0600 
    172 H172        0.2790   -8.4268  -45.6936 H         1 UNK         0.0600 
    173 H173        1.5219   -7.9484  -46.8495 H         1 UNK         0.0600 
    174 H174        2.0047  -10.1044  -44.6938 H         1 UNK         0.3000 
    175 H175        5.4520  -10.9821  -44.9750 H         1 UNK         0.0600 
    176 H176        3.5565   -9.2000  -43.3522 H         1 UNK         0.0600 
    177 H177        5.2435   -9.5488  -42.9923 H         1 UNK         0.0600 
    178 H178        4.8228   -8.6330  -44.4301 H         1 UNK         0.0600 
    179 H179        4.7656  -12.6680  -43.7844 H         1 UNK         0.3000 
    180 H180        3.7544  -13.3643  -41.5166 H         1 UNK         0.0600 
    181 H181        0.8061  -13.8832  -42.1555 H         1 UNK         0.0600 
    182 H182        1.3818  -12.8427  -40.8554 H         1 UNK         0.0600 
    183 H183        1.7345  -14.5633  -40.8301 H         1 UNK         0.0600 
    184 H184        2.5547  -14.6068  -43.9563 H         1 UNK         0.3000 
    185 H185        5.4766  -16.6064  -44.3432 H         1 UNK         0.0600 
    186 H186        3.9540  -18.1299  -43.0574 H         1 UNK         0.0600 
    187 H187        2.5881  -17.5502  -44.0043 H         1 UNK         0.0600 
    188 H188        3.8959  -18.4421  -44.7835 H         1 UNK         0.0600 
    189 H189        3.3175  -16.4057  -46.0824 H         1 UNK         0.3000 
    190 H190       -0.9584  -21.7134  -45.6411 H         1 UNK         0.3000 
    191 H191       -2.1261  -21.5163  -48.2171 H         1 UNK         0.0600 
    192 H192       -4.2692  -21.4302  -46.9469 H         1 UNK         0.0600 
    193 H193       -3.0515  -20.4045  -46.2045 H         1 UNK         0.0600 
    194 H194       -3.4433  -21.9652  -45.4867 H         1 UNK         0.0600 
    195 H195       -2.0725  -24.2321  -45.8624 H         1 UNK         0.3000 
    196 H196       -3.6141  -26.0598  -47.4045 H         1 UNK         0.0600 
    197 H197       -2.6145  -27.7734  -45.8837 H         1 UNK         0.0600 
    198 H198       -3.2075  -26.3815  -44.9911 H         1 UNK         0.0600 
    199 H199       -1.4791  -26.5788  -45.2686 H         1 UNK         0.0600 
    200 H200       -0.0551  -25.5072  -47.2459 H         1 UNK         0.3000 
    201 H201        0.6912  -27.4885  -49.1340 H         1 UNK         0.0600 
    202 H202        2.2841  -26.3952  -47.5622 H         1 UNK         0.0600 
    203 H203        2.1007  -24.8644  -48.4169 H         1 UNK         0.0600 
    204 H204        2.8353  -26.2421  -49.2238 H         1 UNK         0.0600 
    205 H205       -0.3185  -24.1037  -49.5774 H         1 UNK         0.3000 
    206 H206        0.0264  -24.0313  -52.4396 H         1 UNK         0.0600 
    207 H207        0.0556  -22.0095  -50.9448 H         1 UNK         0.0600 
    208 H208       -1.1308  -21.8650  -52.2245 H         1 UNK         0.0600 
    209 H209       -1.6542  -22.2530  -50.5916 H         1 UNK         0.0600 
    210 H210       -2.1762  -25.7651  -50.6052 H         1 UNK         0.3000 
    211 H211       -4.0257  -26.8812  -50.9264 H         1 UNK         0.0600 
    212 H212       -3.5694  -26.4288  -53.9157 H         1 UNK         0.0600 
    213 H213       -4.6912  -27.5911  -53.2222 H         1 UNK         0.0600 
    214 H214       -2.9678  -27.7639  -52.9451 H         1 UNK         0.0600 
    215 H215       -4.2457  -24.2009  -50.2251 H         1 UNK         0.3000 
    216 H216       -5.7030  -22.6181  -49.7691 H         1 UNK         0.0600 
    217 H217       -7.5986  -25.0205  -49.9395 H         1 UNK         0.0600 
    218 H218       -7.9697  -23.5031  -49.1186 H         1 UNK         0.0600 
    219 H219       -6.6495  -24.5084  -48.5516 H         1 UNK         0.0600 
    220 H220       -8.4095  -23.9690  -51.4564 H         1 UNK         0.3000 
    221 H221       -9.1131  -21.6003  -52.7918 H         1 UNK         0.0600 
    222 H222      -10.0014  -24.4915  -53.2926 H         1 UNK         0.0600 
    223 H223      -10.7346  -23.3608  -52.1537 H         1 UNK         0.0600 
    224 H224      -10.8346  -23.0571  -53.8803 H         1 UNK         0.0600 
    225 H225       -6.9762  -24.1946  -53.8646 H         1 UNK         0.3000 
    226 H226       -7.0277  -23.6618  -56.6776 H         1 UNK         0.0600 
    227 H227       -6.1218  -25.7634  -55.6312 H         1 UNK         0.0600 
    228 H228       -4.9432  -24.9967  -56.6888 H         1 UNK         0.0600 
    229 H229       -4.7929  -24.8266  -54.9454 H         1 UNK         0.0600 
    230 H230       -5.4248  -22.0630  -53.9821 H         1 UNK         0.3000 
    231 H231       -3.8658  -20.2669  -55.7932 H         1 UNK         0.0600 
    232 H232       -3.6158  -20.8703  -52.7960 H         1 UNK         0.0600 
    233 H233       -2.5440  -21.4500  -54.0704 H         1 UNK         0.0600 
    234 H234       -2.6087  -19.7376  -53.6938 H         1 UNK         0.0600 
    235 H235       -6.8773  -20.4055  -54.6085 H         1 UNK         0.3000 
    236 H236       -8.5089  -19.0936  -53.9224 H         1 UNK         0.0600 
    237 H237       -7.9140  -17.7713  -55.9652 H         1 UNK         0.0600 
    238 H238       -8.6064  -16.7632  -54.7060 H         1 UNK         0.0600 
    239 H239       -6.8723  -16.7343  -54.9914 H         1 UNK         0.0600 
    240 H240       -6.5878  -19.8518  -51.9797 H         1 UNK         0.3000 
    241 H241       -6.0173  -17.6097  -50.2598 H         1 UNK         0.0600 
    242 H242       -8.9801  -19.2868  -50.5758 H         1 UNK         0.3800 
    243 H243       -9.5769  -18.9460  -48.9732 H         1 UNK         0.3800 
    244 H244       -5.6691  -20.3708  -49.1381 H         1 UNK         0.0800 
    245 H245       -4.8346  -20.1063  -50.6310 H         1 UNK         0.0800 
    246 H246       -3.1376  -17.8750  -51.0100 H         1 UNK         0.0800 
    247 H247       -2.5367  -19.4907  -50.7084 H         1 UNK         0.0800 
@<TRIPOS>BOND
     1    1    2 1    
     2    1  127 1    
     3    1  128 1    
     4    1  129 1    
     5    2    3 2    
     6    2    4 am   BACKBONE|DICT|INTERRES
     7    4    5 1    
     8    4  130 1    
     9    5    6 1    
    10    5   65 1    
    11    5  131 1    
    12    6    7 1    
    13    6  132 1    
    14    6  133 1    
    15    7    8 1    
    16    8    9 1    
    17    8  134 1    
    18    8  135 1    
    19    9   10 ar   
    20    9   14 ar   
    21   10   11 ar   
    22   10  136 1    
    23   11   12 ar   
    24   11  126 1    
    25   12   13 ar   
    26   12  137 1    
    27   13   14 ar   
    28   13   15 1    
    29   14  138 1    
    30   15   16 1    
    31   15  139 1    
    32   15  140 1    
    33   16   17 1    
    34   17   18 1    
    35   17  141 1    
    36   17  142 1    
    37   18   19 1    
    38   18   67 1    
    39   18  143 1    
    40   19   20 am   BACKBONE|DICT|INTERRES
    41   19  144 1    
    42   20   21 2    
    43   20   22 1    
    44   22   23 1    
    45   22   24 1    
    46   22  145 1    
    47   23  146 1    
    48   23  147 1    
    49   23  148 1    
    50   24   25 am   BACKBONE|DICT|INTERRES
    51   24  149 1    
    52   25   26 2    
    53   25   27 1    
    54   27   28 1    
    55   27   29 1    
    56   27  150 1    
    57   28  151 1    
    58   28  152 1    
    59   28  153 1    
    60   29   30 am   BACKBONE|DICT|INTERRES
    61   29  154 1    
    62   30   31 2    
    63   30   32 1    
    64   32   33 1    
    65   32   34 1    
    66   32  155 1    
    67   33  156 1    
    68   33  157 1    
    69   33  158 1    
    70   34   35 am   BACKBONE|DICT|INTERRES
    71   34  159 1    
    72   35   36 2    
    73   35   37 1    
    74   37   38 1    
    75   37   39 1    
    76   37  160 1    
    77   38  161 1    
    78   38  162 1    
    79   38  163 1    
    80   39   40 am   BACKBONE|DICT|INTERRES
    81   39  164 1    
    82   40   41 2    
    83   40   42 1    
    84   42   43 1    
    85   42   44 1    
    86   42  165 1    
    87   43  166 1    
    88   43  167 1    
    89   43  168 1    
    90   44   45 am   BACKBONE|DICT|INTERRES
    91   44  169 1    
    92   45   46 2    
    93   45   47 1    
    94   47   48 1    
    95   47   49 1    
    96   47  170 1    
    97   48  171 1    
    98   48  172 1    
    99   48  173 1    
   100   49   50 am   BACKBONE|DICT|INTERRES
   101   49  174 1    
   102   50   51 2    
   103   50   52 1    
   104   52   53 1    
   105   52   54 1    
   106   52  175 1    
   107   53  176 1    
   108   53  177 1    
   109   53  178 1    
   110   54   55 am   BACKBONE|DICT|INTERRES
   111   54  179 1    
   112   55   56 2    
   113   55   57 1    
   114   57   58 1    
   115   57   59 1    
   116   57  180 1    
   117   58  181 1    
   118   58  182 1    
   119   58  183 1    
   120   59   60 am   BACKBONE|DICT|INTERRES
   121   59  184 1    
   122   60   61 2    
   123   60   62 1    
   124   62   63 1    
   125   62   64 1    
   126   62  185 1    
   127   63  186 1    
   128   63  187 1    
   129   63  188 1    
   130   64   65 am   BACKBONE|DICT|INTERRES
   131   64  189 1    
   132   65   66 2    
   133   67   68 2    
   134   67   69 am   BACKBONE|DICT|INTERRES
   135   69   70 1    
   136   69  190 1    
   137   70   71 1    
   138   70   72 1    
   139   70  191 1    
   140   71  192 1    
   141   71  193 1    
   142   71  194 1    
   143   72   73 2    
   144   72   74 am   BACKBONE|DICT|INTERRES
   145   74   75 1    
   146   74  195 1    
   147   75   76 1    
   148   75   77 1    
   149   75  196 1    
   150   76  197 1    
   151   76  198 1    
   152   76  199 1    
   153   77   78 2    
   154   77   79 am   BACKBONE|DICT|INTERRES
   155   79   80 1    
   156   79  200 1    
   157   80   81 1    
   158   80   82 1    
   159   80  201 1    
   160   81  202 1    
   161   81  203 1    
   162   81  204 1    
   163   82   83 2    
   164   82   84 am   BACKBONE|DICT|INTERRES
   165   84   85 1    
   166   84  205 1    
   167   85   86 1    
   168   85   87 1    
   169   85  206 1    
   170   86  207 1    
   171   86  208 1    
   172   86  209 1    
   173   87   88 2    
   174   87   89 am   BACKBONE|DICT|INTERRES
   175   89   90 1    
   176   89  210 1    
   177   90   91 1    
   178   90   92 1    
   179   90  211 1    
   180   91  212 1    
   181   91  213 1    
   182   91  214 1    
   183   92   93 2    
   184   92   94 am   BACKBONE|DICT|INTERRES
   185   94   95 1    
   186   94  215 1    
   187   95   96 1    
   188   95   97 1    
   189   95  216 1    
   190   96  217 1    
   191   96  218 1    
   192   96  219 1    
   193   97   98 2    
   194   97   99 am   BACKBONE|DICT|INTERRES
   195   99  100 1    
   196   99  220 1    
   197  100  101 1    
   198  100  102 1    
   199  100  221 1    
   200  101  222 1    
   201  101  223 1    
   202  101  224 1    
   203  102  103 2    
   204  102  104 am   BACKBONE|DICT|INTERRES
   205  104  105 1    
   206  104  225 1    
   207  105  106 1    
   208  105  107 1    
   209  105  226 1    
   210  106  227 1    
   211  106  228 1    
   212  106  229 1    
   213  107  108 2    
   214  107  109 am   BACKBONE|DICT|INTERRES
   215  109  110 1    
   216  109  230 1    
   217  110  111 1    
   218  110  112 1    
   219  110  231 1    
   220  111  232 1    
   221  111  233 1    
   222  111  234 1    
   223  112  113 2    
   224  112  114 am   BACKBONE|DICT|INTERRES
   225  114  115 1    
   226  114  235 1    
   227  115  116 1    
   228  115  117 1    
   229  115  236 1    
   230  116  237 1    
   231  116  238 1    
   232  116  239 1    
   233  117  118 2    
   234  117  119 am   BACKBONE|DICT|INTERRES
   235  119  120 1    
   236  119  240 1    
   237  120  121 1    
   238  120  124 1    
   239  120  241 1    
   240  121  122 am   BACKBONE|DICT|INTERRES
   241  121  123 2    
   242  122  242 1    
   243  122  243 1    
   244  124  125 1    
   245  124  244 1    
   246  124  245 1    
   247  125  126 1    
   248  126  246 1    
   249  126  247 1    
@<TRIPOS>SUBSTRUCTURE
     1 UNK         1 GROUP             0       ****    0 ROOT    
