@<TRIPOS>MOLECULE
3R540
247   249    1
SMALL
USER_CHARGES


@<TRIPOS>ATOM
      1 CA         -1.7053  -16.1298  -47.3177 C.3       0 UNK        -0.1800 
      2 C          -0.9092  -15.9095  -48.5926 C.2       0 UNK         0.5000 
      3 O          -1.2632  -15.0377  -49.3877 O.2       0 UNK        -0.5000 
      4 N           0.1752  -16.6777  -48.7708 N.am      1 UNK        -0.5000 
      5 CA          1.0865  -16.6625  -49.9293 C.3       1 UNK         0.1400 
      6 C6          2.2624  -17.6743  -49.8024 C.3       23 UNK        -0.0398 
      7 S7          1.8652  -19.2568  -48.9805 S.3       23 UNK        -0.2404 
      8 C8          1.1120  -20.2127  -50.3344 C.3       23 UNK        -0.0205 
      9 C9         -0.2780  -19.7055  -50.6919 C.ar      23 UNK        -0.0193 
     10 C10        -0.5694  -19.3084  -51.9995 C.ar      23 UNK        -0.1150 
     11 C11        -1.8304  -18.7976  -52.3196 C.ar      23 UNK        -0.0193 
     12 C12        -2.8110  -18.7198  -51.3296 C.ar      23 UNK        -0.1150 
     13 C13        -2.5424  -19.1267  -50.0217 C.ar      23 UNK        -0.0193 
     14 C14        -1.2698  -19.6149  -49.7105 C.ar      23 UNK        -0.1150 
     15 C15        -3.6257  -18.9928  -48.9591 C.3       23 UNK        -0.0205 
     16 S16        -4.0131  -20.5635  -48.1276 S.3       23 UNK        -0.2404 
     17 C17        -2.8422  -20.5587  -46.7263 C.3       23 UNK        -0.0398 
     18 CA         -1.9253  -21.8042  -46.7256 C.3       11 UNK         0.1400 
     19 N          -0.6882  -21.5975  -45.9690 N.am      11 UNK        -0.5000 
     20 C           0.3096  -22.4881  -45.8717 C.2       10 UNK         0.5000 
     21 O           0.3245  -23.5611  -46.4766 O.2       10 UNK        -0.5000 
     22 CA          1.4549  -22.1613  -44.8941 C.3       10 UNK         0.1400 
     23 CB          2.5989  -21.4435  -45.6233 C.3       10 UNK        -0.1800 
     24 N           1.0253  -21.3718  -43.7350 N.am      10 UNK        -0.5000 
     25 C           0.1300  -21.7803  -42.8219 C.2       9 UNK         0.5000 
     26 O          -0.4037  -22.8898  -42.8393 O.2       9 UNK        -0.5000 
     27 CA         -0.2988  -20.7538  -41.7566 C.3       9 UNK         0.1400 
     28 CB          0.7440  -20.6420  -40.6349 C.3       9 UNK        -0.1800 
     29 N          -0.5561  -19.4354  -42.3392 N.am      9 UNK        -0.5000 
     30 C          -1.5453  -19.1812  -43.2082 C.2       8 UNK         0.5000 
     31 O          -2.3967  -20.0104  -43.5273 O.2       8 UNK        -0.5000 
     32 CA         -1.5525  -17.7960  -43.8802 C.3       8 UNK         0.1400 
     33 CB         -2.2696  -16.7559  -43.0082 C.3       8 UNK        -0.1800 
     34 N          -0.2028  -17.3284  -44.1971 N.am      8 UNK        -0.5000 
     35 C           0.6093  -17.8868  -45.1045 C.2       7 UNK         0.5000 
     36 O           0.2561  -18.7909  -45.8589 O.2       7 UNK        -0.5000 
     37 CA          2.0633  -17.3777  -45.1508 C.3       7 UNK         0.1400 
     38 CB          2.2174  -16.1646  -46.0792 C.3       7 UNK        -0.1800 
     39 N           2.5508  -17.0205  -43.8219 N.am      7 UNK        -0.5000 
     40 C           2.8967  -17.9057  -42.8793 C.2       6 UNK         0.5000 
     41 O           2.8678  -19.1246  -43.0467 O.2       6 UNK        -0.5000 
     42 CA          3.3059  -17.3264  -41.5119 C.3       6 UNK         0.1400 
     43 CB          4.8099  -17.0173  -41.4859 C.3       6 UNK        -0.1800 
     44 N           2.5566  -16.1139  -41.1719 N.am      6 UNK        -0.5000 
     45 C           1.2472  -16.0972  -40.8866 C.2       5 UNK         0.5000 
     46 O           0.5518  -17.1113  -40.8311 O.2       5 UNK        -0.5000 
     47 CA          0.5974  -14.7138  -40.6853 C.3       5 UNK         0.1400 
     48 CB          0.7659  -14.2451  -39.2325 C.3       5 UNK        -0.1800 
     49 N           1.1096  -13.6802  -41.5940 N.am      5 UNK        -0.5000 
     50 C           1.0230  -13.7297  -42.9303 C.2       4 UNK         0.5000 
     51 O           0.5500  -14.6884  -43.5413 O.2       4 UNK        -0.5000 
     52 CA          1.6215  -12.5427  -43.7095 C.3       4 UNK         0.1400 
     53 CB          3.1466  -12.7003  -43.8170 C.3       4 UNK        -0.1800 
     54 N           1.0780  -12.4124  -45.0638 N.am      4 UNK        -0.5000 
     55 C          -0.1921  -12.1326  -45.3819 C.2       3 UNK         0.5000 
     56 O          -1.0651  -11.9195  -44.5391 O.2       3 UNK        -0.5000 
     57 CA         -0.5774  -12.0745  -46.8803 C.3       3 UNK         0.1400 
     58 CB         -0.9347  -10.6350  -47.2995 C.3       3 UNK        -0.1800 
     59 N           0.3752  -12.6677  -47.8355 N.am      3 UNK        -0.5000 
     60 C           1.6271  -12.2818  -48.1332 C.2       2 UNK         0.5000 
     61 O           2.2081  -11.3589  -47.5629 O.2       2 UNK        -0.5000 
     62 CA          2.3616  -13.0981  -49.2153 C.3       2 UNK         0.1400 
     63 CB          3.8934  -13.0557  -49.0616 C.3       2 UNK        -0.1800 
     64 N           1.9122  -14.4871  -49.1834 N.am      2 UNK        -0.5000 
     65 C           1.6527  -15.2598  -50.2449 C.2       1 UNK         0.5000 
     66 O           1.8253  -14.9126  -51.4131 O.2       1 UNK        -0.5000 
     67 C          -2.6944  -23.0554  -46.2565 C.2       11 UNK         0.5000 
     68 O          -3.1477  -23.8398  -47.0891 O.2       11 UNK        -0.5000 
     69 N          -2.7999  -23.2348  -44.9351 N.am      12 UNK        -0.5000 
     70 CA         -3.4244  -24.4052  -44.3281 C.3       12 UNK         0.1400 
     71 CB         -3.8546  -24.0635  -42.8930 C.3       12 UNK        -0.1800 
     72 C          -2.4878  -25.6250  -44.3458 C.2       12 UNK         0.5000 
     73 O          -2.9204  -26.7181  -44.7122 O.2       12 UNK        -0.5000 
     74 N          -1.2319  -25.4177  -43.9284 N.am      13 UNK        -0.5000 
     75 CA         -0.2650  -26.4833  -43.6715 C.3       13 UNK         0.1400 
     76 CB          0.8708  -25.9321  -42.7956 C.3       13 UNK        -0.1800 
     77 C           0.3111  -27.1469  -44.9339 C.2       13 UNK         0.5000 
     78 O           0.5450  -28.3564  -44.9100 O.2       13 UNK        -0.5000 
     79 N           0.5645  -26.3596  -45.9874 N.am      14 UNK        -0.5000 
     80 CA          1.2831  -26.8024  -47.1833 C.3       14 UNK         0.1400 
     81 CB          2.6145  -26.0391  -47.2862 C.3       14 UNK        -0.1800 
     82 C           0.4560  -26.6224  -48.4630 C.2       14 UNK         0.5000 
     83 O           0.4206  -27.5398  -49.2844 O.2       14 UNK        -0.5000 
     84 N          -0.1813  -25.4544  -48.6303 N.am      15 UNK        -0.5000 
     85 CA         -0.9066  -25.1047  -49.8591 C.3       15 UNK         0.1400 
     86 CB         -1.0649  -23.5791  -49.9512 C.3       15 UNK        -0.1800 
     87 C          -2.2747  -25.8035  -49.9852 C.2       15 UNK         0.5000 
     88 O          -2.7884  -25.9155  -51.0985 O.2       15 UNK        -0.5000 
     89 N          -2.8287  -26.2511  -48.8488 N.am      16 UNK        -0.5000 
     90 CA         -4.1260  -26.9115  -48.6846 C.3       16 UNK         0.1400 
     91 CB         -4.1221  -28.2999  -49.3583 C.3       16 UNK        -0.1800 
     92 C          -5.3039  -26.0171  -49.1267 C.2       16 UNK         0.5000 
     93 O          -6.1651  -26.4569  -49.8909 O.2       16 UNK        -0.5000 
     94 N          -5.3077  -24.7752  -48.6202 N.am      17 UNK        -0.5000 
     95 CA         -6.2890  -23.7130  -48.8606 C.3       17 UNK         0.1400 
     96 CB         -7.6820  -24.1087  -48.3264 C.3       17 UNK        -0.1800 
     97 C          -6.3017  -23.2567  -50.3332 C.2       17 UNK         0.5000 
     98 O          -7.3309  -23.3337  -51.0083 O.2       17 UNK        -0.5000 
     99 N          -5.1351  -22.7983  -50.8025 N.am      18 UNK        -0.5000 
    100 CA        -4.9368  -22.1980  -52.1221 C.3       18 UNK         0.1400 
    101 CB        -3.4273  -22.1329  -52.4036 C.3       18 UNK        -0.1800 
    102 C         -5.5941  -20.8058  -52.2455 C.2       18 UNK         0.5000 
    103 O         -5.9789  -20.2023  -51.2411 O.2       18 UNK        -0.5000 
    104 N         -5.7057  -20.3153  -53.4837 N.am      19 UNK        -0.5000 
    105 CA        -6.3049  -19.0311  -53.8380 C.3       19 UNK         0.1400 
    106 CB        -7.8429  -19.1489  -53.8027 C.3       19 UNK        -0.1800 
    107 C         -5.8033  -18.5992  -55.2274 C.2       19 UNK         0.5000 
    108 O         -5.0827  -19.3638  -55.8748 O.2       19 UNK        -0.5000 
    109 N         -6.2303  -17.4002  -55.6518 N.am      20 UNK        -0.5000 
    110 CA        -5.9336  -16.7011  -56.9087 C.3       20 UNK         0.1400 
    111 CB        -6.2053  -17.5721  -58.1520 C.3       20 UNK        -0.1800 
    112 C         -4.5150  -16.1031  -56.9141 C.2       20 UNK         0.5000 
    113 O         -3.5314  -16.8424  -56.8961 O.2       20 UNK        -0.5000 
    114 N         -4.4522  -14.7618  -56.9184 N.am      21 UNK        -0.5000 
    115 CA        -3.2548  -13.9045  -56.8424 C.3       21 UNK         0.1400 
    116 CB        -2.2932  -14.1731  -58.0188 C.3       21 UNK        -0.1800 
    117 C         -2.5301  -13.9393  -55.4764 C.2       21 UNK         0.5000 
    118 O         -1.4680  -13.3324  -55.3300 O.2       21 UNK        -0.5000 
    119 N         -3.1300  -14.6195  -54.4980 N.am      22 UNK        -0.5000 
    120 CA        -2.6588  -14.8400  -53.1297 C.3       22 UNK         0.1400 
    121 C         -3.8064  -15.4299  -52.2669 C.2       22 UNK         0.5000 
    122 N         -3.6583  -15.4515  -50.9497 N.am      22 UNK        -0.7600 
    123 O         -4.8380  -15.8661  -52.7776 O.2       22 UNK        -0.5000 
    124 C124       -1.3319  -15.6543  -53.0269 C.3       23 UNK        -0.0398 
    125 S125       -1.0503  -16.9690  -54.2736 S.3       23 UNK        -0.2404 
    126 C126       -2.1408  -18.3218  -53.7297 C.3       23 UNK        -0.0205 
    127 H127       -1.3266  -15.4920  -46.5188 H         1 UNK         0.0600 
    128 H128       -1.6383  -17.1671  -46.9956 H         1 UNK         0.0600 
    129 H129       -2.7569  -15.8923  -47.4777 H         1 UNK         0.0600 
    130 H130        0.3646  -17.4163  -48.1057 H         1 UNK         0.3000 
    131 H131        0.4877  -16.9617  -50.7887 H         1 UNK         0.0600 
    132 H132        3.0840  -17.2417  -49.2283 H         1 UNK         0.0800 
    133 H133        2.6780  -17.8851  -50.7892 H         1 UNK         0.0800 
    134 H134        1.7742  -20.1962  -51.2012 H         1 UNK         0.0800 
    135 H135        1.0396  -21.2543  -50.0248 H         1 UNK         0.0800 
    136 H136        0.1907  -19.3690  -52.7656 H         1 UNK         0.1150 
    137 H137       -3.7891  -18.3323  -51.5768 H         1 UNK         0.1150 
    138 H138       -1.0318  -19.9060  -48.6999 H         1 UNK         0.1150 
    139 H139       -3.3425  -18.2367  -48.2301 H         1 UNK         0.0800 
    140 H140       -4.5496  -18.6315  -49.4132 H         1 UNK         0.0800 
    141 H141       -3.4209  -20.4876  -45.8051 H         1 UNK         0.0800 
    142 H142       -2.2393  -19.6517  -46.7623 H         1 UNK         0.0800 
    143 H143       -1.6049  -21.9803  -47.7497 H         1 UNK         0.0600 
    144 H144       -0.5778  -20.7049  -45.5033 H         1 UNK         0.3000 
    145 H145        1.8420  -23.1097  -44.5182 H         1 UNK         0.0600 
    146 H146        3.4309  -21.2367  -44.9500 H         1 UNK         0.0600 
    147 H147        2.9838  -22.0561  -46.4395 H         1 UNK         0.0600 
    148 H148        2.2722  -20.4985  -46.0548 H         1 UNK         0.0600 
    149 H149        1.4594  -20.4620  -43.6189 H         1 UNK         0.3000 
    150 H150       -1.2308  -21.1090  -41.3118 H         1 UNK         0.0600 
    151 H151        0.9012  -21.6083  -40.1542 H         1 UNK         0.0600 
    152 H152        0.4190  -19.9433  -39.8637 H         1 UNK         0.0600 
    153 H153        1.7095  -20.3021  -41.0070 H         1 UNK         0.0600 
    154 H154        0.0616  -18.6792  -42.0653 H         1 UNK         0.3000 
    155 H155       -2.1083  -17.8885  -44.8144 H         1 UNK         0.0600 
    156 H156       -2.2936  -15.7816  -43.4971 H         1 UNK         0.0600 
    157 H157       -1.7827  -16.6329  -42.0415 H         1 UNK         0.0600 
    158 H158       -3.3019  -17.0527  -42.8194 H         1 UNK         0.0600 
    159 H159        0.1302  -16.5111  -43.6927 H         1 UNK         0.3000 
    160 H160        2.6937  -18.1800  -45.5394 H         1 UNK         0.0600 
    161 H161        3.1768  -15.6680  -45.9329 H         1 UNK         0.0600 
    162 H162        1.4294  -15.4254  -45.9318 H         1 UNK         0.0600 
    163 H163        2.1915  -16.4873  -47.1153 H         1 UNK         0.0600 
    164 H164        2.5353  -16.0403  -43.5834 H         1 UNK         0.3000 
    165 H165        3.0985  -18.0840  -40.7531 H         1 UNK         0.0600 
    166 H166        5.1242  -16.6713  -40.5010 H         1 UNK         0.0600 
    167 H167        5.3949  -17.9082  -41.7182 H         1 UNK         0.0600 
    168 H168        5.0775  -16.2497  -42.2133 H         1 UNK         0.0600 
    169 H169        3.0601  -15.2394  -41.1925 H         1 UNK         0.3000 
    170 H170       -0.4706  -14.8240  -40.8832 H         1 UNK         0.0600 
    171 H171        0.3751  -14.9873  -38.5350 H         1 UNK         0.0600 
    172 H172        1.8140  -14.0781  -38.9810 H         1 UNK         0.0600 
    173 H173        0.2246  -13.3162  -39.0522 H         1 UNK         0.0600 
    174 H174        1.5271  -12.8693  -41.1601 H         1 UNK         0.3000 
    175 H175        1.3955  -11.6237  -43.1653 H         1 UNK         0.0600 
    176 H176        3.4205  -13.6033  -44.3642 H         1 UNK         0.0600 
    177 H177        3.5947  -11.8500  -44.3317 H         1 UNK         0.0600 
    178 H178        3.6097  -12.7599  -42.8313 H         1 UNK         0.0600 
    179 H179        1.7367  -12.4909  -45.8259 H         1 UNK         0.3000 
    180 H180       -1.4848  -12.6735  -46.9726 H         1 UNK         0.0600 
    181 H181       -1.2849  -10.6001  -48.3312 H         1 UNK         0.0600 
    182 H182       -0.0814   -9.9622  -47.2109 H         1 UNK         0.0600 
    183 H183       -1.7320  -10.2316  -46.6740 H         1 UNK         0.0600 
    184 H184       -0.0097  -13.4235  -48.3892 H         1 UNK         0.3000 
    185 H185        2.0959  -12.6456  -50.1728 H         1 UNK         0.0600 
    186 H186        4.3835  -13.6323  -49.8462 H         1 UNK         0.0600 
    187 H187        4.2688  -12.0340  -49.1306 H         1 UNK         0.0600 
    188 H188        4.2107  -13.4611  -48.1001 H         1 UNK         0.0600 
    189 H189        1.7302  -14.8670  -48.2663 H         1 UNK         0.3000 
    190 H190       -2.3711  -22.5642  -44.3108 H         1 UNK         0.3000 
    191 H191       -4.3228  -24.6619  -44.8941 H         1 UNK         0.0600 
    192 H192       -4.3333  -24.9190  -42.4150 H         1 UNK         0.0600 
    193 H193       -4.5714  -23.2422  -42.8834 H         1 UNK         0.0600 
    194 H194       -3.0060  -23.7724  -42.2727 H         1 UNK         0.0600 
    195 H195       -0.9642  -24.4835  -43.6269 H         1 UNK         0.3000 
    196 H196       -0.7737  -27.2622  -43.0992 H         1 UNK         0.0600 
    197 H197        1.4168  -25.1349  -43.3000 H         1 UNK         0.0600 
    198 H198        0.4867  -25.5320  -41.8570 H         1 UNK         0.0600 
    199 H199        1.5884  -26.7147  -42.5460 H         1 UNK         0.0600 
    200 H200        0.3305  -25.3720  -45.9440 H         1 UNK         0.3000 
    201 H201        1.5242  -27.8653  -47.1159 H         1 UNK         0.0600 
    202 H202        2.4625  -24.9622  -47.3643 H         1 UNK         0.0600 
    203 H203        3.1790  -26.3550  -48.1644 H         1 UNK         0.0600 
    204 H204        3.2409  -26.2245  -46.4136 H         1 UNK         0.0600 
    205 H205       -0.0909  -24.7338  -47.9193 H         1 UNK         0.3000 
    206 H206       -0.2938  -25.4221  -50.7058 H         1 UNK         0.0600 
    207 H207       -0.2525  -23.0563  -49.4485 H         1 UNK         0.0600 
    208 H208       -1.0586  -23.2582  -50.9924 H         1 UNK         0.0600 
    209 H209       -2.0068  -23.2408  -49.5204 H         1 UNK         0.0600 
    210 H210       -2.3360  -26.0428  -47.9914 H         1 UNK         0.3000 
    211 H211       -4.2513  -27.0699  -47.6123 H         1 UNK         0.0600 
    212 H212       -5.0410  -28.8433  -49.1357 H         1 UNK         0.0600 
    213 H213       -3.2910  -28.9079  -49.0008 H         1 UNK         0.0600 
    214 H214       -4.0411  -28.2261  -50.4431 H         1 UNK         0.0600 
    215 H215       -4.5166  -24.5052  -48.0359 H         1 UNK         0.3000 
    216 H216       -5.9564  -22.8554  -48.2749 H         1 UNK         0.0600 
    217 H217       -8.3786  -23.2737  -48.4082 H         1 UNK         0.0600 
    218 H218       -8.1118  -24.9449  -48.8782 H         1 UNK         0.0600 
    219 H219       -7.6346  -24.3898  -47.2743 H         1 UNK         0.0600 
    220 H220       -4.3557  -22.7380  -50.1651 H         1 UNK         0.3000 
    221 H221       -5.3982  -22.8497  -52.8668 H         1 UNK         0.0600 
    222 H222       -2.9996  -23.1342  -52.4559 H         1 UNK         0.0600 
    223 H223       -2.8977  -21.5834  -51.6256 H         1 UNK         0.0600 
    224 H224       -3.2152  -21.6424  -53.3542 H         1 UNK         0.0600 
    225 H225       -5.3124  -20.8135  -54.2729 H         1 UNK         0.3000 
    226 H226       -5.9799  -18.2785  -53.1173 H         1 UNK         0.0600 
    227 H227       -8.2035  -19.8794  -54.5278 H         1 UNK         0.0600 
    228 H228       -8.1966  -19.4549  -52.8181 H         1 UNK         0.0600 
    229 H229       -8.3225  -18.1962  -54.0285 H         1 UNK         0.0600 
    230 H230       -6.7953  -16.8658  -55.0063 H         1 UNK         0.3000 
    231 H231       -6.6460  -15.8754  -56.9487 H         1 UNK         0.0600 
    232 H232       -5.4903  -18.3895  -58.2473 H         1 UNK         0.0600 
    233 H233       -6.1318  -16.9756  -59.0619 H         1 UNK         0.0600 
    234 H234       -7.2067  -18.0015  -58.1235 H         1 UNK         0.0600 
    235 H235       -5.3261  -14.2534  -56.9303 H         1 UNK         0.3000 
    236 H236       -3.6199  -12.8825  -56.9529 H         1 UNK         0.0600 
    237 H237       -1.5069  -13.4185  -58.0593 H         1 UNK         0.0600 
    238 H238       -1.8040  -15.1434  -57.9310 H         1 UNK         0.0600 
    239 H239       -2.8180  -14.1447  -58.9736 H         1 UNK         0.0600 
    240 H240       -4.0114  -15.0741  -54.6933 H         1 UNK         0.3000 
    241 H241       -2.4730  -13.8495  -52.7106 H         1 UNK         0.0600 
    242 H242       -4.4110  -15.8138  -50.3887 H         1 UNK         0.3800 
    243 H243       -2.8054  -15.1388  -50.4932 H         1 UNK         0.3800 
    244 H244       -1.2037  -16.0739  -52.0299 H         1 UNK         0.0800 
    245 H245       -0.5008  -14.9572  -53.1394 H         1 UNK         0.0800 
    246 H246       -3.1763  -17.9907  -53.8138 H         1 UNK         0.0800 
    247 H247       -2.0346  -19.1604  -54.4189 H         1 UNK         0.0800 
@<TRIPOS>BOND
     1    1    2 1    
     2    1  127 1    
     3    1  128 1    
     4    1  129 1    
     5    2    3 2    
     6    2    4 am   BACKBONE|DICT|INTERRES
     7    4    5 1    
     8    4  130 1    
     9    5    6 1    
    10    5   65 1    
    11    5  131 1    
    12    6    7 1    
    13    6  132 1    
    14    6  133 1    
    15    7    8 1    
    16    8    9 1    
    17    8  134 1    
    18    8  135 1    
    19    9   10 ar   
    20    9   14 ar   
    21   10   11 ar   
    22   10  136 1    
    23   11   12 ar   
    24   11  126 1    
    25   12   13 ar   
    26   12  137 1    
    27   13   14 ar   
    28   13   15 1    
    29   14  138 1    
    30   15   16 1    
    31   15  139 1    
    32   15  140 1    
    33   16   17 1    
    34   17   18 1    
    35   17  141 1    
    36   17  142 1    
    37   18   19 1    
    38   18   67 1    
    39   18  143 1    
    40   19   20 am   BACKBONE|DICT|INTERRES
    41   19  144 1    
    42   20   21 2    
    43   20   22 1    
    44   22   23 1    
    45   22   24 1    
    46   22  145 1    
    47   23  146 1    
    48   23  147 1    
    49   23  148 1    
    50   24   25 am   BACKBONE|DICT|INTERRES
    51   24  149 1    
    52   25   26 2    
    53   25   27 1    
    54   27   28 1    
    55   27   29 1    
    56   27  150 1    
    57   28  151 1    
    58   28  152 1    
    59   28  153 1    
    60   29   30 am   BACKBONE|DICT|INTERRES
    61   29  154 1    
    62   30   31 2    
    63   30   32 1    
    64   32   33 1    
    65   32   34 1    
    66   32  155 1    
    67   33  156 1    
    68   33  157 1    
    69   33  158 1    
    70   34   35 am   BACKBONE|DICT|INTERRES
    71   34  159 1    
    72   35   36 2    
    73   35   37 1    
    74   37   38 1    
    75   37   39 1    
    76   37  160 1    
    77   38  161 1    
    78   38  162 1    
    79   38  163 1    
    80   39   40 am   BACKBONE|DICT|INTERRES
    81   39  164 1    
    82   40   41 2    
    83   40   42 1    
    84   42   43 1    
    85   42   44 1    
    86   42  165 1    
    87   43  166 1    
    88   43  167 1    
    89   43  168 1    
    90   44   45 am   BACKBONE|DICT|INTERRES
    91   44  169 1    
    92   45   46 2    
    93   45   47 1    
    94   47   48 1    
    95   47   49 1    
    96   47  170 1    
    97   48  171 1    
    98   48  172 1    
    99   48  173 1    
   100   49   50 am   BACKBONE|DICT|INTERRES
   101   49  174 1    
   102   50   51 2    
   103   50   52 1    
   104   52   53 1    
   105   52   54 1    
   106   52  175 1    
   107   53  176 1    
   108   53  177 1    
   109   53  178 1    
   110   54   55 am   BACKBONE|DICT|INTERRES
   111   54  179 1    
   112   55   56 2    
   113   55   57 1    
   114   57   58 1    
   115   57   59 1    
   116   57  180 1    
   117   58  181 1    
   118   58  182 1    
   119   58  183 1    
   120   59   60 am   BACKBONE|DICT|INTERRES
   121   59  184 1    
   122   60   61 2    
   123   60   62 1    
   124   62   63 1    
   125   62   64 1    
   126   62  185 1    
   127   63  186 1    
   128   63  187 1    
   129   63  188 1    
   130   64   65 am   BACKBONE|DICT|INTERRES
   131   64  189 1    
   132   65   66 2    
   133   67   68 2    
   134   67   69 am   BACKBONE|DICT|INTERRES
   135   69   70 1    
   136   69  190 1    
   137   70   71 1    
   138   70   72 1    
   139   70  191 1    
   140   71  192 1    
   141   71  193 1    
   142   71  194 1    
   143   72   73 2    
   144   72   74 am   BACKBONE|DICT|INTERRES
   145   74   75 1    
   146   74  195 1    
   147   75   76 1    
   148   75   77 1    
   149   75  196 1    
   150   76  197 1    
   151   76  198 1    
   152   76  199 1    
   153   77   78 2    
   154   77   79 am   BACKBONE|DICT|INTERRES
   155   79   80 1    
   156   79  200 1    
   157   80   81 1    
   158   80   82 1    
   159   80  201 1    
   160   81  202 1    
   161   81  203 1    
   162   81  204 1    
   163   82   83 2    
   164   82   84 am   BACKBONE|DICT|INTERRES
   165   84   85 1    
   166   84  205 1    
   167   85   86 1    
   168   85   87 1    
   169   85  206 1    
   170   86  207 1    
   171   86  208 1    
   172   86  209 1    
   173   87   88 2    
   174   87   89 am   BACKBONE|DICT|INTERRES
   175   89   90 1    
   176   89  210 1    
   177   90   91 1    
   178   90   92 1    
   179   90  211 1    
   180   91  212 1    
   181   91  213 1    
   182   91  214 1    
   183   92   93 2    
   184   92   94 am   BACKBONE|DICT|INTERRES
   185   94   95 1    
   186   94  215 1    
   187   95   96 1    
   188   95   97 1    
   189   95  216 1    
   190   96  217 1    
   191   96  218 1    
   192   96  219 1    
   193   97   98 2    
   194   97   99 am   BACKBONE|DICT|INTERRES
   195   99  100 1    
   196   99  220 1    
   197  100  101 1    
   198  100  102 1    
   199  100  221 1    
   200  101  222 1    
   201  101  223 1    
   202  101  224 1    
   203  102  103 2    
   204  102  104 am   BACKBONE|DICT|INTERRES
   205  104  105 1    
   206  104  225 1    
   207  105  106 1    
   208  105  107 1    
   209  105  226 1    
   210  106  227 1    
   211  106  228 1    
   212  106  229 1    
   213  107  108 2    
   214  107  109 am   BACKBONE|DICT|INTERRES
   215  109  110 1    
   216  109  230 1    
   217  110  111 1    
   218  110  112 1    
   219  110  231 1    
   220  111  232 1    
   221  111  233 1    
   222  111  234 1    
   223  112  113 2    
   224  112  114 am   BACKBONE|DICT|INTERRES
   225  114  115 1    
   226  114  235 1    
   227  115  116 1    
   228  115  117 1    
   229  115  236 1    
   230  116  237 1    
   231  116  238 1    
   232  116  239 1    
   233  117  118 2    
   234  117  119 am   BACKBONE|DICT|INTERRES
   235  119  120 1    
   236  119  240 1    
   237  120  121 1    
   238  120  124 1    
   239  120  241 1    
   240  121  122 am   BACKBONE|DICT|INTERRES
   241  121  123 2    
   242  122  242 1    
   243  122  243 1    
   244  124  125 1    
   245  124  244 1    
   246  124  245 1    
   247  125  126 1    
   248  126  246 1    
   249  126  247 1    
@<TRIPOS>SUBSTRUCTURE
     1 UNK         1 GROUP             0       ****    0 ROOT    
