@<TRIPOS>MOLECULE
3R540
247   249    1
SMALL
USER_CHARGES


@<TRIPOS>ATOM
      1 CA          7.0773  -11.5311  -51.7874 C.3       0 UNK        -0.1800 
      2 C           6.7953  -12.6622  -50.8076 C.2       0 UNK         0.5000 
      3 O           7.0787  -13.8216  -51.1105 O.2       0 UNK        -0.5000 
      4 N           6.2446  -12.3314  -49.6365 N.am      1 UNK        -0.5000 
      5 CA          5.9124  -13.2565  -48.5548 C.3       1 UNK         0.1400 
      6 C6          4.6513  -14.1151  -48.8633 C.3       23 UNK        -0.0398 
      7 S7          3.0829  -13.1724  -48.9397 S.3       23 UNK        -0.2404 
      8 C8          1.9227  -14.3096  -48.1189 C.3       23 UNK        -0.0205 
      9 C9          1.3187  -15.3050  -49.0917 C.ar      23 UNK        -0.0193 
     10 C10         0.0525  -15.0635  -49.6300 C.ar      23 UNK        -0.1150 
     11 C11        -0.5397  -15.9858  -50.4943 C.ar      23 UNK        -0.0193 
     12 C12         0.1516  -17.1517  -50.8350 C.ar      23 UNK        -0.1150 
     13 C13         1.4255  -17.3975  -50.3128 C.ar      23 UNK        -0.0193 
     14 C14         2.0020  -16.4740  -49.4358 C.ar      23 UNK        -0.1150 
     15 C15         2.1835  -18.6577  -50.7005 C.3       23 UNK        -0.0205 
     16 S16         2.1467  -19.9057  -49.3791 S.3       23 UNK        -0.2404 
     17 C17         0.3661  -20.2888  -49.3067 C.3       23 UNK        -0.0398 
     18 CA          0.0929  -21.5763  -48.4994 C.3       11 UNK         0.1400 
     19 N           0.4189  -21.4326  -47.0771 N.am      11 UNK        -0.5000 
     20 C           0.4552  -22.4513  -46.2068 C.2       10 UNK         0.5000 
     21 O           0.2644  -23.6256  -46.5210 O.2       10 UNK        -0.5000 
     22 CA          0.6875  -22.0991  -44.7285 C.3       10 UNK         0.1400 
     23 CB          2.1792  -21.8667  -44.4455 C.3       10 UNK        -0.1800 
     24 N          -0.0862  -20.9329  -44.3063 N.am      10 UNK        -0.5000 
     25 C          -1.4243  -20.8715  -44.2812 C.2       9 UNK         0.5000 
     26 O          -2.1561  -21.8164  -44.5715 O.2       9 UNK        -0.5000 
     27 CA         -2.0535  -19.5175  -43.9108 C.3       9 UNK         0.1400 
     28 CB         -2.0883  -19.3230  -42.3874 C.3       9 UNK        -0.1800 
     29 N          -1.3636  -18.3899  -44.5367 N.am      9 UNK        -0.5000 
     30 C          -1.3467  -18.1448  -45.8549 C.2       8 UNK         0.5000 
     31 O          -1.9220  -18.8436  -46.6899 O.2       8 UNK        -0.5000 
     32 CA         -0.5083  -16.9369  -46.3151 C.3       8 UNK         0.1400 
     33 CB         -1.3185  -15.6383  -46.1860 C.3       8 UNK        -0.1800 
     34 N           0.7565  -16.8042  -45.5834 N.am      8 UNK        -0.5000 
     35 C           1.7263  -17.7302  -45.6124 C.2       7 UNK         0.5000 
     36 O           1.6498  -18.7780  -46.2540 O.2       7 UNK        -0.5000 
     37 CA          2.9666  -17.4770  -44.7367 C.3       7 UNK         0.1400 
     38 CB          3.8487  -16.3637  -45.3187 C.3       7 UNK        -0.1800 
     39 N           2.6617  -17.1893  -43.3322 N.am      7 UNK        -0.5000 
     40 C           1.9788  -17.9968  -42.5104 C.2       6 UNK         0.5000 
     41 O           1.4370  -19.0351  -42.8829 O.2       6 UNK        -0.5000 
     42 CA          1.8632  -17.6120  -41.0233 C.3       6 UNK         0.1400 
     43 CB          2.9516  -18.3154  -40.1908 C.3       6 UNK        -0.1800 
     44 N           1.8200  -16.1743  -40.7373 N.am      6 UNK        -0.5000 
     45 C           2.7739  -15.2448  -40.8679 C.2       5 UNK         0.5000 
     46 O           3.8836  -15.4601  -41.3574 O.2       5 UNK        -0.5000 
     47 CA          2.3775  -13.8268  -40.4120 C.3       5 UNK         0.1400 
     48 CB          3.5942  -12.9105  -40.1978 C.3       5 UNK        -0.1800 
     49 N           1.4592  -13.2102  -41.3706 N.am      5 UNK        -0.5000 
     50 C           0.1605  -13.5242  -41.5001 C.2       4 UNK         0.5000 
     51 O          -0.4108  -14.3356  -40.7690 O.2       4 UNK        -0.5000 
     52 CA         -0.6484  -12.8365  -42.6186 C.3       4 UNK         0.1400 
     53 CB         -1.6700  -11.8563  -42.0202 C.3       4 UNK        -0.1800 
     54 N           0.1689  -12.1191  -43.5967 N.am      4 UNK        -0.5000 
     55 C           0.9557  -12.6876  -44.5182 C.2       3 UNK         0.5000 
     56 O           1.0886  -13.9082  -44.6455 O.2       3 UNK        -0.5000 
     57 CA          1.7295  -11.7374  -45.4571 C.3       3 UNK         0.1400 
     58 CB          1.5491  -10.2319  -45.1504 C.3       3 UNK        -0.1800 
     59 N           3.1479  -12.0948  -45.5131 N.am      3 UNK        -0.5000 
     60 C           4.0265  -12.0629  -44.5002 C.2       2 UNK         0.5000 
     61 O           3.7344  -11.6760  -43.3683 O.2       2 UNK        -0.5000 
     62 CA          5.4672  -12.5493  -44.7823 C.3       2 UNK         0.1400 
     63 CB          5.9282  -13.5587  -43.7171 C.3       2 UNK        -0.1800 
     64 N           5.6441  -13.1460  -46.1131 N.am      2 UNK        -0.5000 
     65 C           5.8024  -12.4473  -47.2454 C.2       1 UNK         0.5000 
     66 O           5.8335  -11.2132  -47.2813 O.2       1 UNK        -0.5000 
     67 C          -1.3554  -22.0608  -48.7075 C.2       11 UNK         0.5000 
     68 O          -1.5749  -22.9670  -49.5115 O.2       11 UNK        -0.5000 
     69 N          -2.3097  -21.4901  -47.9563 N.am      12 UNK        -0.5000 
     70 CA         -3.7130  -21.9077  -47.9558 C.3       12 UNK         0.1400 
     71 CB         -4.5478  -20.9380  -47.1075 C.3       12 UNK        -0.1800 
     72 C          -3.9018  -23.3604  -47.4835 C.2       12 UNK         0.5000 
     73 O          -4.6558  -24.1043  -48.1108 O.2       12 UNK        -0.5000 
     74 N          -3.1862  -23.7494  -46.4194 N.am      13 UNK        -0.5000 
     75 CA         -3.1565  -25.1115  -45.8880 C.3       13 UNK         0.1400 
     76 CB         -2.4082  -25.1314  -44.5469 C.3       13 UNK        -0.1800 
     77 C          -2.5430  -26.1198  -46.8754 C.2       13 UNK         0.5000 
     78 O          -3.1142  -27.1927  -47.0692 O.2       13 UNK        -0.5000 
     79 N          -1.4246  -25.7469  -47.5149 N.am      14 UNK        -0.5000 
     80 CA         -0.7438  -26.5421  -48.5414 C.3       14 UNK         0.1400 
     81 CB          0.5940  -25.8803  -48.9040 C.3       14 UNK        -0.1800 
     82 C          -1.6012  -26.7609  -49.8023 C.2       14 UNK         0.5000 
     83 O          -1.5796  -27.8531  -50.3708 O.2       14 UNK        -0.5000 
     84 N          -2.3692  -25.7346  -50.1909 N.am      15 UNK        -0.5000 
     85 CA         -3.3508  -25.7881  -51.2752 C.3       15 UNK         0.1400 
     86 CB         -3.6669  -24.3535  -51.7258 C.3       15 UNK        -0.1800 
     87 C          -4.6536  -26.5188  -50.8922 C.2       15 UNK         0.5000 
     88 O          -5.4819  -26.7477  -51.7709 O.2       15 UNK        -0.5000 
     89 N          -4.8429  -26.8327  -49.6017 N.am      16 UNK        -0.5000 
     90 CA         -6.0520  -27.4045  -48.9970 C.3       16 UNK         0.1400 
     91 CB         -6.2685  -28.8558  -49.4717 C.3       16 UNK        -0.1800 
     92 C          -7.2912  -26.5049  -49.1987 C.2       16 UNK         0.5000 
     93 O          -8.3860  -27.0014  -49.4684 O.2       16 UNK        -0.5000 
     94 N          -7.0719  -25.1865  -49.0853 N.am      17 UNK        -0.5000 
     95 CA         -8.0229  -24.0875  -49.2775 C.3       17 UNK         0.1400 
     96 CB         -9.1544  -24.1490  -48.2305 C.3       17 UNK        -0.1800 
     97 C          -8.5545  -23.9391  -50.7213 C.2       17 UNK         0.5000 
     98 O          -9.5553  -23.2493  -50.9262 O.2       17 UNK        -0.5000 
     99 N          -7.8819  -24.5572  -51.7032 N.am      18 UNK        -0.5000 
    100 CA        -8.1779  -24.4023  -53.1273 C.3       18 UNK         0.1400 
    101 CB        -7.5037  -25.5405  -53.9107 C.3       18 UNK        -0.1800 
    102 C         -7.7058  -23.0374  -53.6644 C.2       18 UNK         0.5000 
    103 O         -6.8367  -22.3977  -53.0668 O.2       18 UNK        -0.5000 
    104 N         -8.2427  -22.6556  -54.8317 N.am      19 UNK        -0.5000 
    105 CA        -7.9695  -21.4031  -55.5515 C.3       19 UNK         0.1400 
    106 CB        -8.9610  -21.2880  -56.7212 C.3       19 UNK        -0.1800 
    107 C         -6.5158  -21.2267  -56.0488 C.2       19 UNK         0.5000 
    108 O         -6.1746  -20.1540  -56.5504 O.2       19 UNK        -0.5000 
    109 N         -5.6799  -22.2632  -55.8900 N.am      20 UNK        -0.5000 
    110 CA        -4.2302  -22.2294  -56.0894 C.3       20 UNK         0.1400 
    111 CB        -3.6881  -23.6649  -55.9945 C.3       20 UNK        -0.1800 
    112 C         -3.4941  -21.3080  -55.0913 C.2       20 UNK         0.5000 
    113 O         -2.3757  -20.8821  -55.3849 O.2       20 UNK        -0.5000 
    114 N         -4.1279  -21.0076  -53.9495 N.am      21 UNK        -0.5000 
    115 CA        -3.6747  -20.0384  -52.9574 C.3       21 UNK         0.1400 
    116 CB        -3.1413  -20.7911  -51.7255 C.3       21 UNK        -0.1800 
    117 C         -4.8348  -19.1008  -52.5815 C.2       21 UNK         0.5000 
    118 O         -5.9700  -19.2913  -53.0237 O.2       21 UNK        -0.5000 
    119 N         -4.5174  -18.0979  -51.7590 N.am      22 UNK        -0.5000 
    120 CA        -5.4525  -17.1035  -51.2084 C.3       22 UNK         0.1400 
    121 C         -6.3529  -17.6125  -50.0414 C.2       22 UNK         0.5000 
    122 N         -6.1998  -18.8405  -49.5637 N.am      22 UNK        -0.7600 
    123 O         -7.2226  -16.8834  -49.5725 O.2       22 UNK        -0.5000 
    124 C124       -4.7155  -15.7844  -50.8498 C.3       23 UNK        -0.0398 
    125 S125       -3.2191  -16.0318  -49.8260 S.3       23 UNK        -0.2404 
    126 C126       -1.9214  -15.7107  -51.0610 C.3       23 UNK        -0.0205 
    127 H127        6.7738  -10.5633  -51.3867 H         1 UNK         0.0600 
    128 H128        6.5358  -11.6977  -52.7191 H         1 UNK         0.0600 
    129 H129        8.1431  -11.4873  -52.0140 H         1 UNK         0.0600 
    130 H130        6.0655  -11.3620  -49.4016 H         1 UNK         0.3000 
    131 H131        6.7623  -13.9309  -48.4269 H         1 UNK         0.0600 
    132 H132        4.7757  -14.6348  -49.8140 H         1 UNK         0.0800 
    133 H133        4.5643  -14.9065  -48.1194 H         1 UNK         0.0800 
    134 H134        1.1190  -13.7253  -47.6746 H         1 UNK         0.0800 
    135 H135        2.4014  -14.8283  -47.2899 H         1 UNK         0.0800 
    136 H136       -0.4834  -14.1627  -49.3651 H         1 UNK         0.1150 
    137 H137       -0.2999  -17.8669  -51.5080 H         1 UNK         0.1150 
    138 H138        2.9793  -16.6708  -49.0192 H         1 UNK         0.1150 
    139 H139        1.7799  -19.0871  -51.6188 H         1 UNK         0.0800 
    140 H140        3.2221  -18.4024  -50.9153 H         1 UNK         0.0800 
    141 H141        0.0023  -20.3932  -50.3308 H         1 UNK         0.0800 
    142 H142       -0.1636  -19.4396  -48.8706 H         1 UNK         0.0800 
    143 H143        0.7403  -22.3601  -48.8992 H         1 UNK         0.0600 
    144 H144        0.6398  -20.4966  -46.7506 H         1 UNK         0.3000 
    145 H145        0.3584  -22.9501  -44.1289 H         1 UNK         0.0600 
    146 H146        2.3561  -21.6973  -43.3833 H         1 UNK         0.0600 
    147 H147        2.7723  -22.7329  -44.7409 H         1 UNK         0.0600 
    148 H148        2.5638  -21.0035  -44.9892 H         1 UNK         0.0600 
    149 H149        0.4481  -20.1236  -43.9980 H         1 UNK         0.3000 
    150 H150       -3.0835  -19.5211  -44.2735 H         1 UNK         0.0600 
    151 H151       -2.6338  -20.1352  -41.9053 H         1 UNK         0.0600 
    152 H152       -2.5886  -18.3923  -42.1194 H         1 UNK         0.0600 
    153 H153       -1.0871  -19.3020  -41.9570 H         1 UNK         0.0600 
    154 H154       -0.8168  -17.7960  -43.9318 H         1 UNK         0.3000 
    155 H155       -0.2718  -17.0886  -47.3703 H         1 UNK         0.0600 
    156 H156       -1.5474  -15.4069  -45.1452 H         1 UNK         0.0600 
    157 H157       -0.7767  -14.7915  -46.6048 H         1 UNK         0.0600 
    158 H158       -2.2639  -15.7138  -46.7247 H         1 UNK         0.0600 
    159 H159        0.8973  -15.9494  -45.0544 H         1 UNK         0.3000 
    160 H160        3.5524  -18.3985  -44.7512 H         1 UNK         0.0600 
    161 H161        3.3972  -15.3799  -45.1878 H         1 UNK         0.0600 
    162 H162        4.0193  -16.5193  -46.3843 H         1 UNK         0.0600 
    163 H163        4.8255  -16.3554  -44.8361 H         1 UNK         0.0600 
    164 H164        3.1090  -16.3792  -42.9164 H         1 UNK         0.3000 
    165 H165        0.8997  -17.9982  -40.6866 H         1 UNK         0.0600 
    166 H166        2.8288  -18.1115  -39.1271 H         1 UNK         0.0600 
    167 H167        2.9017  -19.3973  -40.3218 H         1 UNK         0.0600 
    168 H168        3.9544  -18.0003  -40.4805 H         1 UNK         0.0600 
    169 H169        0.9135  -15.8310  -40.4341 H         1 UNK         0.3000 
    170 H170        1.8690  -13.9169  -39.4495 H         1 UNK         0.0600 
    171 H171        4.2505  -13.3139  -39.4258 H         1 UNK         0.0600 
    172 H172        4.1889  -12.8044  -41.1037 H         1 UNK         0.0600 
    173 H173        3.2887  -11.9142  -39.8780 H         1 UNK         0.0600 
    174 H174        1.8714  -12.5667  -42.0335 H         1 UNK         0.3000 
    175 H175       -1.1965  -13.6203  -43.1458 H         1 UNK         0.0600 
    176 H176       -1.1798  -11.0410  -41.4864 H         1 UNK         0.0600 
    177 H177       -2.3002  -11.4204  -42.7958 H         1 UNK         0.0600 
    178 H178       -2.3311  -12.3604  -41.3138 H         1 UNK         0.0600 
    179 H179        0.1355  -11.1108  -43.5529 H         1 UNK         0.3000 
    180 H180        1.3275  -11.8978  -46.4557 H         1 UNK         0.0600 
    181 H181        1.8734   -9.9681  -44.1432 H         1 UNK         0.0600 
    182 H182        0.5061   -9.9302  -45.2551 H         1 UNK         0.0600 
    183 H183        2.1248   -9.6241  -45.8489 H         1 UNK         0.0600 
    184 H184        3.4757  -12.4356  -46.4046 H         1 UNK         0.3000 
    185 H185        6.1159  -11.6741  -44.7074 H         1 UNK         0.0600 
    186 H186        5.2383  -14.3969  -43.6277 H         1 UNK         0.0600 
    187 H187        6.9183  -13.9553  -43.9427 H         1 UNK         0.0600 
    188 H188        5.9886  -13.0872  -42.7357 H         1 UNK         0.0600 
    189 H189        5.6395  -14.1546  -46.1494 H         1 UNK         0.3000 
    190 H190       -2.0642  -20.7189  -47.3423 H         1 UNK         0.3000 
    191 H191       -4.0758  -21.8501  -48.9826 H         1 UNK         0.0600 
    192 H192       -4.2435  -20.9512  -46.0612 H         1 UNK         0.0600 
    193 H193       -5.6060  -21.1990  -47.1450 H         1 UNK         0.0600 
    194 H194       -4.4500  -19.9140  -47.4682 H         1 UNK         0.0600 
    195 H195       -2.6344  -23.0555  -45.9212 H         1 UNK         0.3000 
    196 H196       -4.1885  -25.4166  -45.7024 H         1 UNK         0.0600 
    197 H197       -2.3906  -26.1365  -44.1238 H         1 UNK         0.0600 
    198 H198       -2.8904  -24.4798  -43.8180 H         1 UNK         0.0600 
    199 H199       -1.3747  -24.8022  -44.6558 H         1 UNK         0.0600 
    200 H200       -0.9869  -24.8641  -47.2632 H         1 UNK         0.3000 
    201 H201       -0.5314  -27.5237  -48.1129 H         1 UNK         0.0600 
    202 H202        1.2433  -25.8007  -48.0320 H         1 UNK         0.0600 
    203 H203        0.4501  -24.8773  -49.3064 H         1 UNK         0.0600 
    204 H204        1.1282  -26.4630  -49.6553 H         1 UNK         0.0600 
    205 H205       -2.2739  -24.8450  -49.7100 H         1 UNK         0.3000 
    206 H206       -2.9123  -26.3227  -52.1202 H         1 UNK         0.0600 
    207 H207       -2.7676  -23.8436  -52.0706 H         1 UNK         0.0600 
    208 H208       -4.3823  -24.3410  -52.5491 H         1 UNK         0.0600 
    209 H209       -4.0961  -23.7684  -50.9120 H         1 UNK         0.0600 
    210 H210       -4.1075  -26.5969  -48.9479 H         1 UNK         0.3000 
    211 H211       -5.8701  -27.4330  -47.9222 H         1 UNK         0.0600 
    212 H212       -6.5131  -28.9046  -50.5327 H         1 UNK         0.0600 
    213 H213       -7.0868  -29.3269  -48.9260 H         1 UNK         0.0600 
    214 H214       -5.3773  -29.4602  -49.3046 H         1 UNK         0.0600 
    215 H215       -6.1290  -24.8887  -48.8369 H         1 UNK         0.3000 
    216 H216       -7.4535  -23.1775  -49.0839 H         1 UNK         0.0600 
    217 H217       -9.7634  -23.2449  -48.2578 H         1 UNK         0.0600 
    218 H218       -8.7533  -24.2359  -47.2209 H         1 UNK         0.0600 
    219 H219       -9.8203  -24.9948  -48.4019 H         1 UNK         0.0600 
    220 H220       -7.0700  -25.1128  -51.4692 H         1 UNK         0.3000 
    221 H221       -9.2591  -24.4779  -53.2660 H         1 UNK         0.0600 
    222 H222       -7.8082  -25.5335  -54.9579 H         1 UNK         0.0600 
    223 H223       -6.4161  -25.4555  -53.8882 H         1 UNK         0.0600 
    224 H224       -7.7735  -26.5158  -53.5037 H         1 UNK         0.0600 
    225 H225       -8.9236  -23.2635  -55.2640 H         1 UNK         0.3000 
    226 H226       -8.1622  -20.5808  -54.8591 H         1 UNK         0.0600 
    227 H227       -9.9930  -21.3183  -56.3698 H         1 UNK         0.0600 
    228 H228       -8.8319  -20.3457  -57.2565 H         1 UNK         0.0600 
    229 H229       -8.8257  -22.0956  -57.4417 H         1 UNK         0.0600 
    230 H230       -6.0545  -23.1014  -55.4713 H         1 UNK         0.3000 
    231 H231       -4.0348  -21.8503  -57.0949 H         1 UNK         0.0600 
    232 H232       -2.6111  -23.6886  -56.1678 H         1 UNK         0.0600 
    233 H233       -4.1500  -24.3120  -56.7405 H         1 UNK         0.0600 
    234 H234       -3.8717  -24.1004  -55.0111 H         1 UNK         0.0600 
    235 H235       -5.0698  -21.3572  -53.7998 H         1 UNK         0.3000 
    236 H236       -2.8764  -19.4157  -53.3687 H         1 UNK         0.0600 
    237 H237       -2.3100  -21.4432  -51.9938 H         1 UNK         0.0600 
    238 H238       -2.7747  -20.1077  -50.9580 H         1 UNK         0.0600 
    239 H239       -3.9198  -21.4082  -51.2760 H         1 UNK         0.0600 
    240 H240       -3.5717  -18.0210  -51.4148 H         1 UNK         0.3000 
    241 H241       -6.1572  -16.8557  -52.0045 H         1 UNK         0.0600 
    242 H242       -5.5073  -19.4550  -49.9540 H         1 UNK         0.3800 
    243 H243       -6.7982  -19.1552  -48.8173 H         1 UNK         0.3800 
    244 H244       -4.4339  -15.2736  -51.7714 H         1 UNK         0.0800 
    245 H245       -5.3792  -15.0882  -50.3341 H         1 UNK         0.0800 
    246 H246       -2.0952  -16.3214  -51.9481 H         1 UNK         0.0800 
    247 H247       -1.9811  -14.6710  -51.3863 H         1 UNK         0.0800 
@<TRIPOS>BOND
     1    1    2 1    
     2    1  127 1    
     3    1  128 1    
     4    1  129 1    
     5    2    3 2    
     6    2    4 am   BACKBONE|DICT|INTERRES
     7    4    5 1    
     8    4  130 1    
     9    5    6 1    
    10    5   65 1    
    11    5  131 1    
    12    6    7 1    
    13    6  132 1    
    14    6  133 1    
    15    7    8 1    
    16    8    9 1    
    17    8  134 1    
    18    8  135 1    
    19    9   10 ar   
    20    9   14 ar   
    21   10   11 ar   
    22   10  136 1    
    23   11   12 ar   
    24   11  126 1    
    25   12   13 ar   
    26   12  137 1    
    27   13   14 ar   
    28   13   15 1    
    29   14  138 1    
    30   15   16 1    
    31   15  139 1    
    32   15  140 1    
    33   16   17 1    
    34   17   18 1    
    35   17  141 1    
    36   17  142 1    
    37   18   19 1    
    38   18   67 1    
    39   18  143 1    
    40   19   20 am   BACKBONE|DICT|INTERRES
    41   19  144 1    
    42   20   21 2    
    43   20   22 1    
    44   22   23 1    
    45   22   24 1    
    46   22  145 1    
    47   23  146 1    
    48   23  147 1    
    49   23  148 1    
    50   24   25 am   BACKBONE|DICT|INTERRES
    51   24  149 1    
    52   25   26 2    
    53   25   27 1    
    54   27   28 1    
    55   27   29 1    
    56   27  150 1    
    57   28  151 1    
    58   28  152 1    
    59   28  153 1    
    60   29   30 am   BACKBONE|DICT|INTERRES
    61   29  154 1    
    62   30   31 2    
    63   30   32 1    
    64   32   33 1    
    65   32   34 1    
    66   32  155 1    
    67   33  156 1    
    68   33  157 1    
    69   33  158 1    
    70   34   35 am   BACKBONE|DICT|INTERRES
    71   34  159 1    
    72   35   36 2    
    73   35   37 1    
    74   37   38 1    
    75   37   39 1    
    76   37  160 1    
    77   38  161 1    
    78   38  162 1    
    79   38  163 1    
    80   39   40 am   BACKBONE|DICT|INTERRES
    81   39  164 1    
    82   40   41 2    
    83   40   42 1    
    84   42   43 1    
    85   42   44 1    
    86   42  165 1    
    87   43  166 1    
    88   43  167 1    
    89   43  168 1    
    90   44   45 am   BACKBONE|DICT|INTERRES
    91   44  169 1    
    92   45   46 2    
    93   45   47 1    
    94   47   48 1    
    95   47   49 1    
    96   47  170 1    
    97   48  171 1    
    98   48  172 1    
    99   48  173 1    
   100   49   50 am   BACKBONE|DICT|INTERRES
   101   49  174 1    
   102   50   51 2    
   103   50   52 1    
   104   52   53 1    
   105   52   54 1    
   106   52  175 1    
   107   53  176 1    
   108   53  177 1    
   109   53  178 1    
   110   54   55 am   BACKBONE|DICT|INTERRES
   111   54  179 1    
   112   55   56 2    
   113   55   57 1    
   114   57   58 1    
   115   57   59 1    
   116   57  180 1    
   117   58  181 1    
   118   58  182 1    
   119   58  183 1    
   120   59   60 am   BACKBONE|DICT|INTERRES
   121   59  184 1    
   122   60   61 2    
   123   60   62 1    
   124   62   63 1    
   125   62   64 1    
   126   62  185 1    
   127   63  186 1    
   128   63  187 1    
   129   63  188 1    
   130   64   65 am   BACKBONE|DICT|INTERRES
   131   64  189 1    
   132   65   66 2    
   133   67   68 2    
   134   67   69 am   BACKBONE|DICT|INTERRES
   135   69   70 1    
   136   69  190 1    
   137   70   71 1    
   138   70   72 1    
   139   70  191 1    
   140   71  192 1    
   141   71  193 1    
   142   71  194 1    
   143   72   73 2    
   144   72   74 am   BACKBONE|DICT|INTERRES
   145   74   75 1    
   146   74  195 1    
   147   75   76 1    
   148   75   77 1    
   149   75  196 1    
   150   76  197 1    
   151   76  198 1    
   152   76  199 1    
   153   77   78 2    
   154   77   79 am   BACKBONE|DICT|INTERRES
   155   79   80 1    
   156   79  200 1    
   157   80   81 1    
   158   80   82 1    
   159   80  201 1    
   160   81  202 1    
   161   81  203 1    
   162   81  204 1    
   163   82   83 2    
   164   82   84 am   BACKBONE|DICT|INTERRES
   165   84   85 1    
   166   84  205 1    
   167   85   86 1    
   168   85   87 1    
   169   85  206 1    
   170   86  207 1    
   171   86  208 1    
   172   86  209 1    
   173   87   88 2    
   174   87   89 am   BACKBONE|DICT|INTERRES
   175   89   90 1    
   176   89  210 1    
   177   90   91 1    
   178   90   92 1    
   179   90  211 1    
   180   91  212 1    
   181   91  213 1    
   182   91  214 1    
   183   92   93 2    
   184   92   94 am   BACKBONE|DICT|INTERRES
   185   94   95 1    
   186   94  215 1    
   187   95   96 1    
   188   95   97 1    
   189   95  216 1    
   190   96  217 1    
   191   96  218 1    
   192   96  219 1    
   193   97   98 2    
   194   97   99 am   BACKBONE|DICT|INTERRES
   195   99  100 1    
   196   99  220 1    
   197  100  101 1    
   198  100  102 1    
   199  100  221 1    
   200  101  222 1    
   201  101  223 1    
   202  101  224 1    
   203  102  103 2    
   204  102  104 am   BACKBONE|DICT|INTERRES
   205  104  105 1    
   206  104  225 1    
   207  105  106 1    
   208  105  107 1    
   209  105  226 1    
   210  106  227 1    
   211  106  228 1    
   212  106  229 1    
   213  107  108 2    
   214  107  109 am   BACKBONE|DICT|INTERRES
   215  109  110 1    
   216  109  230 1    
   217  110  111 1    
   218  110  112 1    
   219  110  231 1    
   220  111  232 1    
   221  111  233 1    
   222  111  234 1    
   223  112  113 2    
   224  112  114 am   BACKBONE|DICT|INTERRES
   225  114  115 1    
   226  114  235 1    
   227  115  116 1    
   228  115  117 1    
   229  115  236 1    
   230  116  237 1    
   231  116  238 1    
   232  116  239 1    
   233  117  118 2    
   234  117  119 am   BACKBONE|DICT|INTERRES
   235  119  120 1    
   236  119  240 1    
   237  120  121 1    
   238  120  124 1    
   239  120  241 1    
   240  121  122 am   BACKBONE|DICT|INTERRES
   241  121  123 2    
   242  122  242 1    
   243  122  243 1    
   244  124  125 1    
   245  124  244 1    
   246  124  245 1    
   247  125  126 1    
   248  126  246 1    
   249  126  247 1    
@<TRIPOS>SUBSTRUCTURE
     1 UNK         1 GROUP             0       ****    0 ROOT    
