@<TRIPOS>MOLECULE
3R540
247   249    1
SMALL
USER_CHARGES


@<TRIPOS>ATOM
      1 CA          7.8530  -11.7246  -45.9763 C.3       0 UNK        -0.1800 
      2 C           6.4391  -12.2852  -45.9764 C.2       0 UNK         0.5000 
      3 O           5.6048  -11.8357  -45.1930 O.2       0 UNK        -0.5000 
      4 N           6.1589  -13.2474  -46.8657 N.am      1 UNK        -0.5000 
      5 CA          4.8803  -13.9635  -47.0113 C.3       1 UNK         0.1400 
      6 C6          5.0124  -15.0711  -48.0866 C.3       23 UNK        -0.0398 
      7 S7          3.7374  -16.3718  -47.9799 S.3       23 UNK        -0.2404 
      8 C8          3.0616  -16.3061  -49.6682 C.3       23 UNK        -0.0205 
      9 C9          1.9893  -17.3623  -49.8733 C.ar      23 UNK        -0.0193 
     10 C10         0.6376  -17.0199  -49.7944 C.ar      23 UNK        -0.1150 
     11 C11        -0.3575  -17.9914  -49.9597 C.ar      23 UNK        -0.0193 
     12 C12         0.0213  -19.3174  -50.1900 C.ar      23 UNK        -0.1150 
     13 C13         1.3705  -19.6744  -50.2691 C.ar      23 UNK        -0.0193 
     14 C14         2.3499  -18.6872  -50.1286 C.ar      23 UNK        -0.1150 
     15 C15         1.7627  -21.1337  -50.4677 C.3       23 UNK        -0.0205 
     16 S16         2.8605  -21.7729  -49.1534 S.3       23 UNK        -0.2404 
     17 C17         1.9902  -21.2894  -47.6200 C.3       23 UNK        -0.0398 
     18 CA          1.1573  -22.4192  -46.9749 C.3       11 UNK         0.1400 
     19 N           0.7613  -22.0657  -45.6114 N.am      11 UNK        -0.5000 
     20 C           0.1659  -22.8876  -44.7379 C.2       10 UNK         0.5000 
     21 O          -0.0732  -24.0729  -44.9659 O.2       10 UNK        -0.5000 
     22 CA         -0.2817  -22.2654  -43.4027 C.3       10 UNK         0.1400 
     23 CB          0.9006  -22.1469  -42.4298 C.3       10 UNK        -0.1800 
     24 N          -0.9134  -20.9557  -43.5776 N.am      10 UNK        -0.5000 
     25 C          -2.0571  -20.7552  -44.2489 C.2       9 UNK         0.5000 
     26 O          -2.7208  -21.6620  -44.7506 O.2       9 UNK        -0.5000 
     27 CA         -2.5194  -19.2983  -44.4283 C.3       9 UNK         0.1400 
     28 CB         -3.2053  -18.7831  -43.1545 C.3       9 UNK        -0.1800 
     29 N          -1.4304  -18.3966  -44.8052 N.am      9 UNK        -0.5000 
     30 C          -0.7192  -18.4940  -45.9379 C.2       8 UNK         0.5000 
     31 O          -0.9280  -19.3438  -46.8019 O.2       8 UNK        -0.5000 
     32 CA          0.4584  -17.5168  -46.1065 C.3       8 UNK         0.1400 
     33 CB         -0.0390  -16.1189  -46.5008 C.3       8 UNK        -0.1800 
     34 N           1.2814  -17.4241  -44.9003 N.am      8 UNK        -0.5000 
     35 C           1.9338  -18.4545  -44.3436 C.2       7 UNK         0.5000 
     36 O           1.9685  -19.5869  -44.8226 O.2       7 UNK        -0.5000 
     37 CA          2.6056  -18.1926  -42.9871 C.3       7 UNK         0.1400 
     38 CB          3.9821  -17.5349  -43.1699 C.3       7 UNK        -0.1800 
     39 N           1.7596  -17.3682  -42.1234 N.am      7 UNK        -0.5000 
     40 C           0.6266  -17.8004  -41.5499 C.2       6 UNK         0.5000 
     41 O           0.2036  -18.9514  -41.6583 O.2       6 UNK        -0.5000 
     42 CA         -0.1898  -16.7660  -40.7520 C.3       6 UNK         0.1400 
     43 CB          0.3502  -16.6390  -39.3199 C.3       6 UNK        -0.1800 
     44 N          -0.2028  -15.4460  -41.3838 N.am      6 UNK        -0.5000 
     45 C          -0.7959  -15.1731  -42.5547 C.2       5 UNK         0.5000 
     46 O          -1.4448  -15.9977  -43.1962 O.2       5 UNK        -0.5000 
     47 CA         -0.5920  -13.7572  -43.1292 C.3       5 UNK         0.1400 
     48 CB         -1.7034  -12.8146  -42.6459 C.3       5 UNK        -0.1800 
     49 N           0.7114  -13.1678  -42.8113 N.am      5 UNK        -0.5000 
     50 C           1.9016  -13.7006  -43.1149 C.2       4 UNK         0.5000 
     51 O           2.0359  -14.7790  -43.6958 O.2       4 UNK        -0.5000 
     52 CA          3.1354  -12.8900  -42.6773 C.3       4 UNK         0.1400 
     53 CB          4.4219  -13.7341  -42.6738 C.3       4 UNK        -0.1800 
     54 N           3.3366  -11.7257  -43.5346 N.am      4 UNK        -0.5000 
     55 C           2.6297  -10.5887  -43.4941 C.2       3 UNK         0.5000 
     56 O           1.7106  -10.3855  -42.6989 O.2       3 UNK        -0.5000 
     57 CA          3.0089   -9.5021  -44.5132 C.3       3 UNK         0.1400 
     58 CB          4.2329   -8.7106  -44.0260 C.3       3 UNK        -0.1800 
     59 N           3.3049  -10.0849  -45.8220 N.am      3 UNK        -0.5000 
     60 C           2.4480  -10.1251  -46.8517 C.2       2 UNK         0.5000 
     61 O           1.3199   -9.6316  -46.8217 O.2       2 UNK        -0.5000 
     62 CA          2.9248  -10.8270  -48.1412 C.3       2 UNK         0.1400 
     63 CB          3.5061   -9.8010  -49.1260 C.3       2 UNK        -0.1800 
     64 N           3.9208  -11.8738  -47.9051 N.am      2 UNK        -0.5000 
     65 C           3.6708  -13.0341  -47.2811 C.2       1 UNK         0.5000 
     66 O           2.5502  -13.3589  -46.8913 O.2       1 UNK        -0.5000 
     67 C          -0.0624  -22.8099  -47.8345 C.2       11 UNK         0.5000 
     68 O          -0.0308  -23.8548  -48.4834 O.2       11 UNK        -0.5000 
     69 N          -1.1307  -22.0002  -47.7890 N.am      12 UNK        -0.5000 
     70 CA         -2.3988  -22.2609  -48.4716 C.3       12 UNK         0.1400 
     71 CB         -3.3382  -21.0584  -48.3026 C.3       12 UNK        -0.1800 
     72 C          -3.0810  -23.5556  -47.9969 C.2       12 UNK         0.5000 
     73 O          -3.5782  -24.3129  -48.8300 O.2       12 UNK        -0.5000 
     74 N          -3.0599  -23.8076  -46.6808 N.am      13 UNK        -0.5000 
     75 CA         -3.5621  -25.0359  -46.0659 C.3       13 UNK         0.1400 
     76 CB         -3.5864  -24.8817  -44.5378 C.3       13 UNK        -0.1800 
     77 C          -2.7547  -26.2784  -46.4830 C.2       13 UNK         0.5000 
     78 O          -3.3542  -27.2974  -46.8259 O.2       13 UNK        -0.5000 
     79 N          -1.4185  -26.1633  -46.4873 N.am      14 UNK        -0.5000 
     80 CA         -0.4915  -27.2117  -46.9223 C.3       14 UNK         0.1400 
     81 CB          0.9472  -26.8044  -46.5702 C.3       14 UNK        -0.1800 
     82 C          -0.6143  -27.5381  -48.4229 C.2       14 UNK         0.5000 
     83 O          -0.5601  -28.7099  -48.7978 O.2       14 UNK        -0.5000 
     84 N          -0.8092  -26.5009  -49.2477 N.am      15 UNK        -0.5000 
     85 CA         -1.0568  -26.6043  -50.6872 C.3       15 UNK         0.1400 
     86 CB         -0.8214  -25.2261  -51.3270 C.3       15 UNK        -0.1800 
     87 C          -2.4705  -27.1142  -51.0350 C.2       15 UNK         0.5000 
     88 O          -2.6988  -27.5030  -52.1812 O.2       15 UNK        -0.5000 
     89 N          -3.3887  -27.0795  -50.0569 N.am      16 UNK        -0.5000 
     90 CA         -4.8235  -27.3625  -50.1605 C.3       16 UNK         0.1400 
     91 CB         -5.0756  -28.8471  -50.4948 C.3       16 UNK        -0.1800 
     92 C          -5.5369  -26.3877  -51.1209 C.2       16 UNK         0.5000 
     93 O          -6.3980  -26.7937  -51.9049 O.2       16 UNK        -0.5000 
     94 N          -5.1581  -25.1054  -51.0428 N.am      17 UNK        -0.5000 
     95 CA         -5.6391  -24.0112  -51.8840 C.3       17 UNK         0.1400 
     96 CB         -4.5792  -22.8951  -51.9012 C.3       17 UNK        -0.1800 
     97 C          -7.0284  -23.5099  -51.4402 C.2       17 UNK         0.5000 
     98 O          -7.1889  -22.3395  -51.0909 O.2       17 UNK        -0.5000 
     99 N          -8.0179  -24.4129  -51.4676 N.am      18 UNK        -0.5000 
    100 CA        -9.4362  -24.1185  -51.2354 C.3       18 UNK         0.1400 
    101 CB       -10.1978  -25.4404  -51.0562 C.3       18 UNK        -0.1800 
    102 C        -10.0584  -23.2804  -52.3720 C.2       18 UNK         0.5000 
    103 O        -11.0266  -22.5547  -52.1428 O.2       18 UNK        -0.5000 
    104 N         -9.4635  -23.3805  -53.5640 N.am      19 UNK        -0.5000 
    105 CA        -9.6641  -22.5162  -54.7168 C.3       19 UNK         0.1400 
    106 CB       -10.4951  -23.2612  -55.7735 C.3       19 UNK        -0.1800 
    107 C         -8.2707  -22.1554  -55.2559 C.2       19 UNK         0.5000 
    108 O         -7.3074  -22.8795  -54.9838 O.2       19 UNK        -0.5000 
    109 N         -8.1916  -21.0477  -56.0061 N.am      20 UNK        -0.5000 
    110 CA        -6.9702  -20.4734  -56.5896 C.3       20 UNK         0.1400 
    111 CB        -6.3875  -21.4024  -57.6763 C.3       20 UNK        -0.1800 
    112 C         -5.9309  -20.0561  -55.5239 C.2       20 UNK         0.5000 
    113 O         -4.7285  -20.2559  -55.7093 O.2       20 UNK        -0.5000 
    114 N         -6.4258  -19.4826  -54.4186 N.am      21 UNK        -0.5000 
    115 CA        -5.6271  -18.9244  -53.3272 C.3       21 UNK         0.1400 
    116 CB        -6.5483  -18.6890  -52.1190 C.3       21 UNK        -0.1800 
    117 C         -4.9093  -17.6207  -53.7344 C.2       21 UNK         0.5000 
    118 O         -5.2533  -17.0093  -54.7503 O.2       21 UNK        -0.5000 
    119 N         -3.9253  -17.2200  -52.9217 N.am      22 UNK        -0.5000 
    120 CA        -3.1371  -15.9896  -53.0882 C.3       22 UNK         0.1400 
    121 C         -3.9677  -14.6742  -52.9861 C.2       22 UNK         0.5000 
    122 N         -3.4916  -13.5898  -53.5840 N.am      22 UNK        -0.7600 
    123 O         -5.0203  -14.6162  -52.3532 O.2       22 UNK        -0.5000 
    124 C124       -1.9034  -15.9801  -52.1464 C.3       23 UNK        -0.0398 
    125 S125       -2.3056  -15.9688  -50.3608 S.3       23 UNK        -0.2404 
    126 C126       -1.8446  -17.6582  -49.8453 C.3       23 UNK        -0.0205 
    127 H127        8.3153  -11.8789  -45.0014 H         1 UNK         0.0600 
    128 H128        7.8308  -10.6538  -46.1784 H         1 UNK         0.0600 
    129 H129        8.4795  -12.2015  -46.7303 H         1 UNK         0.0600 
    130 H130        6.8953  -13.5520  -47.4865 H         1 UNK         0.3000 
    131 H131        4.6920  -14.4485  -46.0514 H         1 UNK         0.0600 
    132 H132        5.0324  -14.6349  -49.0870 H         1 UNK         0.0800 
    133 H133        5.9695  -15.5821  -47.9719 H         1 UNK         0.0800 
    134 H134        2.6567  -15.3104  -49.8569 H         1 UNK         0.0800 
    135 H135        3.8654  -16.4588  -50.3901 H         1 UNK         0.0800 
    136 H136        0.3668  -15.9948  -49.5877 H         1 UNK         0.1150 
    137 H137       -0.7390  -20.0794  -50.2875 H         1 UNK         0.1150 
    138 H138        3.3953  -18.9576  -50.1797 H         1 UNK         0.1150 
    139 H139        0.8769  -21.7686  -50.5215 H         1 UNK         0.0800 
    140 H140        2.2685  -21.2350  -51.4285 H         1 UNK         0.0800 
    141 H141        1.3822  -20.3980  -47.7703 H         1 UNK         0.0800 
    142 H142        2.7718  -20.9834  -46.9239 H         1 UNK         0.0800 
    143 H143        1.7953  -23.3019  -46.8964 H         1 UNK         0.0600 
    144 H144        0.9610  -21.1115  -45.3215 H         1 UNK         0.3000 
    145 H145       -1.0206  -22.9345  -42.9571 H         1 UNK         0.0600 
    146 H146        0.5737  -21.7822  -41.4560 H         1 UNK         0.0600 
    147 H147        1.3751  -23.1162  -42.2721 H         1 UNK         0.0600 
    148 H148        1.6639  -21.4638  -42.8030 H         1 UNK         0.0600 
    149 H149       -0.4450  -20.1620  -43.1526 H         1 UNK         0.3000 
    150 H150       -3.2535  -19.2828  -45.2364 H         1 UNK         0.0600 
    151 H151       -4.0268  -19.4375  -42.8606 H         1 UNK         0.0600 
    152 H152       -3.6219  -17.7874  -43.3074 H         1 UNK         0.0600 
    153 H153       -2.5107  -18.7294  -42.3159 H         1 UNK         0.0600 
    154 H154       -1.2326  -17.6328  -44.1646 H         1 UNK         0.3000 
    155 H155        1.0901  -17.8948  -46.9129 H         1 UNK         0.0600 
    156 H156       -0.6238  -15.6585  -45.7069 H         1 UNK         0.0600 
    157 H157        0.7954  -15.4568  -46.7316 H         1 UNK         0.0600 
    158 H158       -0.6764  -16.1629  -47.3835 H         1 UNK         0.0600 
    159 H159        1.3500  -16.5134  -44.4569 H         1 UNK         0.3000 
    160 H160        2.7575  -19.1556  -42.4949 H         1 UNK         0.0600 
    161 H161        3.9168  -16.5956  -43.7184 H         1 UNK         0.0600 
    162 H162        4.6497  -18.1896  -43.7313 H         1 UNK         0.0600 
    163 H163        4.4561  -17.3331  -42.2094 H         1 UNK         0.0600 
    164 H164        1.9948  -16.3877  -42.0653 H         1 UNK         0.3000 
    165 H165       -1.2194  -17.1260  -40.6973 H         1 UNK         0.0600 
    166 H166       -0.2680  -15.9677  -38.7235 H         1 UNK         0.0600 
    167 H167        0.3541  -17.6074  -38.8177 H         1 UNK         0.0600 
    168 H168        1.3719  -16.2574  -39.3053 H         1 UNK         0.0600 
    169 H169        0.3062  -14.7088  -40.9193 H         1 UNK         0.3000 
    170 H170       -0.6574  -13.8298  -44.2159 H         1 UNK         0.0600 
    171 H171       -2.6885  -13.2131  -42.8925 H         1 UNK         0.0600 
    172 H172       -1.6675  -12.6708  -41.5653 H         1 UNK         0.0600 
    173 H173       -1.6226  -11.8351  -43.1179 H         1 UNK         0.0600 
    174 H174        0.7051  -12.2428  -42.3969 H         1 UNK         0.3000 
    175 H175        2.9639  -12.5475  -41.6546 H         1 UNK         0.0600 
    176 H176        4.6667  -14.1027  -43.6700 H         1 UNK         0.0600 
    177 H177        5.2725  -13.1533  -42.3171 H         1 UNK         0.0600 
    178 H178        4.3204  -14.5990  -42.0174 H         1 UNK         0.0600 
    179 H179        4.0974  -11.7992  -44.2064 H         1 UNK         0.3000 
    180 H180        2.1701   -8.8068  -44.5882 H         1 UNK         0.0600 
    181 H181        5.1141   -9.3460  -43.9277 H         1 UNK         0.0600 
    182 H182        4.0429   -8.2588  -43.0516 H         1 UNK         0.0600 
    183 H183        4.4785   -7.9036  -44.7163 H         1 UNK         0.0600 
    184 H184        4.1932  -10.5656  -45.9061 H         1 UNK         0.3000 
    185 H185        2.0512  -11.2890  -48.6060 H         1 UNK         0.0600 
    186 H186        2.7798   -9.0181  -49.3484 H         1 UNK         0.0600 
    187 H187        4.3972   -9.3173  -48.7240 H         1 UNK         0.0600 
    188 H188        3.7754  -10.2704  -50.0724 H         1 UNK         0.0600 
    189 H189        4.8694  -11.6728  -48.1859 H         1 UNK         0.3000 
    190 H190       -1.0700  -21.1299  -47.2638 H         1 UNK         0.3000 
    191 H191       -2.1814  -22.3744  -49.5355 H         1 UNK         0.0600 
    192 H192       -3.5546  -20.8613  -47.2526 H         1 UNK         0.0600 
    193 H193       -4.2901  -21.2264  -48.8075 H         1 UNK         0.0600 
    194 H194       -2.8996  -20.1567  -48.7260 H         1 UNK         0.0600 
    195 H195       -2.6845  -23.1027  -46.0524 H         1 UNK         0.3000 
    196 H196       -4.5899  -25.1801  -46.4054 H         1 UNK         0.0600 
    197 H197       -3.9759  -25.7816  -44.0604 H         1 UNK         0.0600 
    198 H198       -4.2249  -24.0511  -44.2367 H         1 UNK         0.0600 
    199 H199       -2.5906  -24.6998  -44.1335 H         1 UNK         0.0600 
    200 H200       -0.9999  -25.3012  -46.1485 H         1 UNK         0.3000 
    201 H201       -0.7318  -28.1200  -46.3659 H         1 UNK         0.0600 
    202 H202        1.0620  -26.6537  -45.4966 H         1 UNK         0.0600 
    203 H203        1.2379  -25.8798  -47.0698 H         1 UNK         0.0600 
    204 H204        1.6570  -27.5770  -46.8683 H         1 UNK         0.0600 
    205 H205       -0.7582  -25.5591  -48.8660 H         1 UNK         0.3000 
    206 H206       -0.3382  -27.3079  -51.1123 H         1 UNK         0.0600 
    207 H207        0.1938  -24.8735  -51.1435 H         1 UNK         0.0600 
    208 H208       -0.9619  -25.2644  -52.4079 H         1 UNK         0.0600 
    209 H209       -1.5113  -24.4792  -50.9322 H         1 UNK         0.0600 
    210 H210       -3.0892  -26.7179  -49.1609 H         1 UNK         0.3000 
    211 H211       -5.2407  -27.1730  -49.1705 H         1 UNK         0.0600 
    212 H212       -4.7404  -29.1015  -51.5006 H         1 UNK         0.0600 
    213 H213       -6.1385  -29.0840  -50.4362 H         1 UNK         0.0600 
    214 H214       -4.5585  -29.5011  -49.7927 H         1 UNK         0.0600 
    215 H215       -4.4953  -24.8487  -50.3130 H         1 UNK         0.3000 
    216 H216       -5.7424  -24.3782  -52.9075 H         1 UNK         0.0600 
    217 H217       -4.4363  -22.4605  -50.9122 H         1 UNK         0.0600 
    218 H218       -4.8741  -22.0916  -52.5771 H         1 UNK         0.0600 
    219 H219       -3.6153  -23.2708  -52.2450 H         1 UNK         0.0600 
    220 H220       -7.7776  -25.3640  -51.7300 H         1 UNK         0.3000 
    221 H221       -9.5213  -23.5423  -50.3119 H         1 UNK         0.0600 
    222 H222       -9.8031  -26.0120  -50.2159 H         1 UNK         0.0600 
    223 H223      -10.1334  -26.0657  -51.9476 H         1 UNK         0.0600 
    224 H224      -11.2548  -25.2584  -50.8575 H         1 UNK         0.0600 
    225 H225       -8.6320  -23.9532  -53.6314 H         1 UNK         0.3000 
    226 H226      -10.1754  -21.5978  -54.4208 H         1 UNK         0.0600 
    227 H227      -11.4720  -23.5408  -55.3787 H         1 UNK         0.0600 
    228 H228      -10.6653  -22.6362  -56.6509 H         1 UNK         0.0600 
    229 H229       -9.9966  -24.1716  -56.1088 H         1 UNK         0.0600 
    230 H230       -9.0394  -20.5245  -56.1778 H         1 UNK         0.3000 
    231 H231       -7.2750  -19.5500  -57.0842 H         1 UNK         0.0600 
    232 H232       -5.9960  -22.3282  -57.2541 H         1 UNK         0.0600 
    233 H233       -5.5689  -20.9155  -58.2075 H         1 UNK         0.0600 
    234 H234       -7.1427  -21.6645  -58.4172 H         1 UNK         0.0600 
    235 H235       -7.4226  -19.3391  -54.3617 H         1 UNK         0.3000 
    236 H236       -4.8676  -19.6577  -53.0488 H         1 UNK         0.0600 
    237 H237       -5.9869  -18.3231  -51.2585 H         1 UNK         0.0600 
    238 H238       -7.3228  -17.9538  -52.3414 H         1 UNK         0.0600 
    239 H239       -7.0396  -19.6128  -51.8124 H         1 UNK         0.0600 
    240 H240       -3.7401  -17.7444  -52.0811 H         1 UNK         0.3000 
    241 H241       -2.7525  -16.0231  -54.1096 H         1 UNK         0.0600 
    242 H242       -4.0122  -12.7286  -53.5185 H         1 UNK         0.3800 
    243 H243       -2.6308  -13.6058  -54.1090 H         1 UNK         0.3800 
    244 H244       -1.2805  -15.1084  -52.3528 H         1 UNK         0.0800 
    245 H245       -1.2707  -16.8398  -52.3703 H         1 UNK         0.0800 
    246 H246       -2.4331  -18.3691  -50.4262 H         1 UNK         0.0800 
    247 H247       -2.1424  -17.7901  -48.8047 H         1 UNK         0.0800 
@<TRIPOS>BOND
     1    1    2 1    
     2    1  127 1    
     3    1  128 1    
     4    1  129 1    
     5    2    3 2    
     6    2    4 am   BACKBONE|DICT|INTERRES
     7    4    5 1    
     8    4  130 1    
     9    5    6 1    
    10    5   65 1    
    11    5  131 1    
    12    6    7 1    
    13    6  132 1    
    14    6  133 1    
    15    7    8 1    
    16    8    9 1    
    17    8  134 1    
    18    8  135 1    
    19    9   10 ar   
    20    9   14 ar   
    21   10   11 ar   
    22   10  136 1    
    23   11   12 ar   
    24   11  126 1    
    25   12   13 ar   
    26   12  137 1    
    27   13   14 ar   
    28   13   15 1    
    29   14  138 1    
    30   15   16 1    
    31   15  139 1    
    32   15  140 1    
    33   16   17 1    
    34   17   18 1    
    35   17  141 1    
    36   17  142 1    
    37   18   19 1    
    38   18   67 1    
    39   18  143 1    
    40   19   20 am   BACKBONE|DICT|INTERRES
    41   19  144 1    
    42   20   21 2    
    43   20   22 1    
    44   22   23 1    
    45   22   24 1    
    46   22  145 1    
    47   23  146 1    
    48   23  147 1    
    49   23  148 1    
    50   24   25 am   BACKBONE|DICT|INTERRES
    51   24  149 1    
    52   25   26 2    
    53   25   27 1    
    54   27   28 1    
    55   27   29 1    
    56   27  150 1    
    57   28  151 1    
    58   28  152 1    
    59   28  153 1    
    60   29   30 am   BACKBONE|DICT|INTERRES
    61   29  154 1    
    62   30   31 2    
    63   30   32 1    
    64   32   33 1    
    65   32   34 1    
    66   32  155 1    
    67   33  156 1    
    68   33  157 1    
    69   33  158 1    
    70   34   35 am   BACKBONE|DICT|INTERRES
    71   34  159 1    
    72   35   36 2    
    73   35   37 1    
    74   37   38 1    
    75   37   39 1    
    76   37  160 1    
    77   38  161 1    
    78   38  162 1    
    79   38  163 1    
    80   39   40 am   BACKBONE|DICT|INTERRES
    81   39  164 1    
    82   40   41 2    
    83   40   42 1    
    84   42   43 1    
    85   42   44 1    
    86   42  165 1    
    87   43  166 1    
    88   43  167 1    
    89   43  168 1    
    90   44   45 am   BACKBONE|DICT|INTERRES
    91   44  169 1    
    92   45   46 2    
    93   45   47 1    
    94   47   48 1    
    95   47   49 1    
    96   47  170 1    
    97   48  171 1    
    98   48  172 1    
    99   48  173 1    
   100   49   50 am   BACKBONE|DICT|INTERRES
   101   49  174 1    
   102   50   51 2    
   103   50   52 1    
   104   52   53 1    
   105   52   54 1    
   106   52  175 1    
   107   53  176 1    
   108   53  177 1    
   109   53  178 1    
   110   54   55 am   BACKBONE|DICT|INTERRES
   111   54  179 1    
   112   55   56 2    
   113   55   57 1    
   114   57   58 1    
   115   57   59 1    
   116   57  180 1    
   117   58  181 1    
   118   58  182 1    
   119   58  183 1    
   120   59   60 am   BACKBONE|DICT|INTERRES
   121   59  184 1    
   122   60   61 2    
   123   60   62 1    
   124   62   63 1    
   125   62   64 1    
   126   62  185 1    
   127   63  186 1    
   128   63  187 1    
   129   63  188 1    
   130   64   65 am   BACKBONE|DICT|INTERRES
   131   64  189 1    
   132   65   66 2    
   133   67   68 2    
   134   67   69 am   BACKBONE|DICT|INTERRES
   135   69   70 1    
   136   69  190 1    
   137   70   71 1    
   138   70   72 1    
   139   70  191 1    
   140   71  192 1    
   141   71  193 1    
   142   71  194 1    
   143   72   73 2    
   144   72   74 am   BACKBONE|DICT|INTERRES
   145   74   75 1    
   146   74  195 1    
   147   75   76 1    
   148   75   77 1    
   149   75  196 1    
   150   76  197 1    
   151   76  198 1    
   152   76  199 1    
   153   77   78 2    
   154   77   79 am   BACKBONE|DICT|INTERRES
   155   79   80 1    
   156   79  200 1    
   157   80   81 1    
   158   80   82 1    
   159   80  201 1    
   160   81  202 1    
   161   81  203 1    
   162   81  204 1    
   163   82   83 2    
   164   82   84 am   BACKBONE|DICT|INTERRES
   165   84   85 1    
   166   84  205 1    
   167   85   86 1    
   168   85   87 1    
   169   85  206 1    
   170   86  207 1    
   171   86  208 1    
   172   86  209 1    
   173   87   88 2    
   174   87   89 am   BACKBONE|DICT|INTERRES
   175   89   90 1    
   176   89  210 1    
   177   90   91 1    
   178   90   92 1    
   179   90  211 1    
   180   91  212 1    
   181   91  213 1    
   182   91  214 1    
   183   92   93 2    
   184   92   94 am   BACKBONE|DICT|INTERRES
   185   94   95 1    
   186   94  215 1    
   187   95   96 1    
   188   95   97 1    
   189   95  216 1    
   190   96  217 1    
   191   96  218 1    
   192   96  219 1    
   193   97   98 2    
   194   97   99 am   BACKBONE|DICT|INTERRES
   195   99  100 1    
   196   99  220 1    
   197  100  101 1    
   198  100  102 1    
   199  100  221 1    
   200  101  222 1    
   201  101  223 1    
   202  101  224 1    
   203  102  103 2    
   204  102  104 am   BACKBONE|DICT|INTERRES
   205  104  105 1    
   206  104  225 1    
   207  105  106 1    
   208  105  107 1    
   209  105  226 1    
   210  106  227 1    
   211  106  228 1    
   212  106  229 1    
   213  107  108 2    
   214  107  109 am   BACKBONE|DICT|INTERRES
   215  109  110 1    
   216  109  230 1    
   217  110  111 1    
   218  110  112 1    
   219  110  231 1    
   220  111  232 1    
   221  111  233 1    
   222  111  234 1    
   223  112  113 2    
   224  112  114 am   BACKBONE|DICT|INTERRES
   225  114  115 1    
   226  114  235 1    
   227  115  116 1    
   228  115  117 1    
   229  115  236 1    
   230  116  237 1    
   231  116  238 1    
   232  116  239 1    
   233  117  118 2    
   234  117  119 am   BACKBONE|DICT|INTERRES
   235  119  120 1    
   236  119  240 1    
   237  120  121 1    
   238  120  124 1    
   239  120  241 1    
   240  121  122 am   BACKBONE|DICT|INTERRES
   241  121  123 2    
   242  122  242 1    
   243  122  243 1    
   244  124  125 1    
   245  124  244 1    
   246  124  245 1    
   247  125  126 1    
   248  126  246 1    
   249  126  247 1    
@<TRIPOS>SUBSTRUCTURE
     1 UNK         1 GROUP             0       ****    0 ROOT    
