@<TRIPOS>MOLECULE
3R540
247   249    1
SMALL
USER_CHARGES


@<TRIPOS>ATOM
      1 CA         -0.1423   -7.1021  -47.8882 C.3       0 UNK        -0.1800 
      2 C           0.6235   -8.3448  -47.4568 C.2       0 UNK         0.5000 
      3 O           1.7854   -8.2429  -47.0607 O.2       0 UNK        -0.5000 
      4 N          -0.0190   -9.5171  -47.5320 N.am      1 UNK        -0.5000 
      5 CA          0.5328  -10.8091  -47.1182 C.3       1 UNK         0.1400 
      6 C6         -0.1449  -11.9787  -47.8762 C.3       23 UNK        -0.0398 
      7 S7          0.9120  -13.4667  -47.8922 S.3       23 UNK        -0.2404 
      8 C8          0.7172  -14.0646  -49.6074 C.3       23 UNK        -0.0205 
      9 C9         -0.4970  -14.9610  -49.8613 C.ar      23 UNK        -0.0193 
     10 C10        -0.4840  -15.7902  -50.9874 C.ar      23 UNK        -0.1150 
     11 C11        -1.5466  -16.6581  -51.2525 C.ar      23 UNK        -0.0193 
     12 C12        -2.6477  -16.6836  -50.3919 C.ar      23 UNK        -0.1150 
     13 C13        -2.6854  -15.8519  -49.2703 C.ar      23 UNK        -0.0193 
     14 C14        -1.6117  -14.9957  -49.0118 C.ar      23 UNK        -0.1150 
     15 C15        -3.8817  -15.8704  -48.3323 C.3       23 UNK        -0.0205 
     16 S16        -3.7733  -17.2405  -47.1397 S.3       23 UNK        -0.2404 
     17 C17        -5.0290  -18.4023  -47.7859 C.3       23 UNK        -0.0398 
     18 CA         -4.6936  -19.8961  -47.5610 C.3       11 UNK         0.1400 
     19 N          -3.4517  -20.2900  -48.2316 N.am      11 UNK        -0.5000 
     20 C          -3.0183  -21.5502  -48.3574 C.2       10 UNK         0.5000 
     21 O          -3.6442  -22.5313  -47.9574 O.2       10 UNK        -0.5000 
     22 CA         -1.6461  -21.7612  -49.0123 C.3       10 UNK         0.1400 
     23 CB         -1.8455  -22.0219  -50.5094 C.3       10 UNK        -0.1800 
     24 N          -0.6896  -20.6640  -48.8216 N.am      10 UNK        -0.5000 
     25 C          -0.2899  -20.1742  -47.6386 C.2       9 UNK         0.5000 
     26 O          -0.7952  -20.4909  -46.5581 O.2       9 UNK        -0.5000 
     27 CA          0.8401  -19.1325  -47.6762 C.3       9 UNK         0.1400 
     28 CB          0.2602  -17.7262  -47.8533 C.3       9 UNK        -0.1800 
     29 N           1.6503  -19.1765  -46.4587 N.am      9 UNK        -0.5000 
     30 C           2.5126  -20.1622  -46.1709 C.2       8 UNK         0.5000 
     31 O           2.7482  -21.0995  -46.9352 O.2       8 UNK        -0.5000 
     32 CA          3.2579  -20.0998  -44.8259 C.3       8 UNK         0.1400 
     33 CB          4.6688  -19.5300  -45.0311 C.3       8 UNK        -0.1800 
     34 N           2.5528  -19.3052  -43.8192 N.am      8 UNK        -0.5000 
     35 C           1.6340  -19.7984  -42.9779 C.2       7 UNK         0.5000 
     36 O           1.3047  -20.9853  -42.9626 O.2       7 UNK        -0.5000 
     37 CA          0.9579  -18.8155  -41.9952 C.3       7 UNK         0.1400 
     38 CB          0.5422  -19.4877  -40.6706 C.3       7 UNK        -0.1800 
     39 N           1.7096  -17.5852  -41.7359 N.am      7 UNK        -0.5000 
     40 C           2.9158  -17.4429  -41.1705 C.2       6 UNK         0.5000 
     41 O           3.5986  -18.3786  -40.7500 O.2       6 UNK        -0.5000 
     42 CA          3.4379  -15.9891  -41.1004 C.3       6 UNK         0.1400 
     43 CB          4.8853  -15.8827  -40.5776 C.3       6 UNK        -0.1800 
     44 N           3.2920  -15.2904  -42.3846 N.am      6 UNK        -0.5000 
     45 C           3.8069  -15.6675  -43.5649 C.2       5 UNK         0.5000 
     46 O           4.5915  -16.6052  -43.7016 O.2       5 UNK        -0.5000 
     47 CA          3.3099  -14.8887  -44.7993 C.3       5 UNK         0.1400 
     48 CB          3.7417  -15.5271  -46.1375 C.3       5 UNK        -0.1800 
     49 N           1.8586  -14.6835  -44.7605 N.am      5 UNK        -0.5000 
     50 C           0.9007  -15.6232  -44.7521 C.2       4 UNK         0.5000 
     51 O           1.1217  -16.8328  -44.8280 O.2       4 UNK        -0.5000 
     52 CA         -0.5411  -15.1016  -44.5693 C.3       4 UNK         0.1400 
     53 CB         -1.5680  -16.2250  -44.3107 C.3       4 UNK        -0.1800 
     54 N          -0.6200  -14.0697  -43.5263 N.am      4 UNK        -0.5000 
     55 C          -0.2949  -14.2206  -42.2313 C.2       3 UNK         0.5000 
     56 O           0.0563  -15.2930  -41.7394 O.2       3 UNK        -0.5000 
     57 CA         -0.3154  -12.9501  -41.3534 C.3       3 UNK         0.1400 
     58 CB          0.4729  -13.1213  -40.0375 C.3       3 UNK        -0.1800 
     59 N           0.1398  -11.7496  -42.0630 N.am      3 UNK        -0.5000 
     60 C           1.3138  -11.5754  -42.6869 C.2       2 UNK         0.5000 
     61 O           2.2035  -12.4276  -42.7455 O.2       2 UNK        -0.5000 
     62 CA          1.4909  -10.2316  -43.4176 C.3       2 UNK         0.1400 
     63 CB          2.8353   -9.5805  -43.0549 C.3       2 UNK        -0.1800 
     64 N           1.4007  -10.3498  -44.8755 N.am      2 UNK        -0.5000 
     65 C           0.4275  -10.9416  -45.5829 C.2       1 UNK         0.5000 
     66 O          -0.5396  -11.5181  -45.0790 O.2       1 UNK        -0.5000 
     67 C          -4.7297  -20.2880  -46.0652 C.2       11 UNK         0.5000 
     68 O          -5.8112  -20.5542  -45.5402 O.2       11 UNK        -0.5000 
     69 N          -3.5532  -20.3515  -45.4276 N.am      12 UNK        -0.5000 
     70 CA         -3.3701  -20.7833  -44.0467 C.3       12 UNK         0.1400 
     71 CB         -2.4477  -19.7833  -43.3339 C.3       12 UNK        -0.1800 
     72 C          -2.7775  -22.2000  -43.9903 C.2       12 UNK         0.5000 
     73 O          -3.2772  -23.0351  -43.2366 O.2       12 UNK        -0.5000 
     74 N          -1.7273  -22.4484  -44.7849 N.am      13 UNK        -0.5000 
     75 CA         -0.9282  -23.6743  -44.7521 C.3       13 UNK         0.1400 
     76 CB          0.3795  -23.4418  -45.5241 C.3       13 UNK        -0.1800 
     77 C          -1.6515  -24.9148  -45.3039 C.2       13 UNK         0.5000 
     78 O          -1.3837  -26.0220  -44.8353 O.2       13 UNK        -0.5000 
     79 N          -2.5337  -24.7155  -46.2902 N.am      14 UNK        -0.5000 
     80 CA         -3.2548  -25.7771  -46.9946 C.3       14 UNK         0.1400 
     81 CB         -2.7176  -25.8596  -48.4358 C.3       14 UNK        -0.1800 
     82 C          -4.7757  -25.5457  -46.9826 C.2       14 UNK         0.5000 
     83 O          -5.4882  -26.2303  -47.7152 O.2       14 UNK        -0.5000 
     84 N          -5.2529  -24.5634  -46.2014 N.am      15 UNK        -0.5000 
     85 CA         -6.6496  -24.1121  -46.1135 C.3       15 UNK         0.1400 
     86 CB         -7.5065  -25.1655  -45.3816 C.3       15 UNK        -0.1800 
     87 C          -7.2459  -23.6995  -47.4810 C.2       15 UNK         0.5000 
     88 O          -8.4301  -23.9246  -47.7351 O.2       15 UNK        -0.5000 
     89 N          -6.3910  -23.1270  -48.3415 N.am      16 UNK        -0.5000 
     90 CA         -6.6351  -22.7021  -49.7225 C.3       16 UNK         0.1400 
     91 CB         -7.7777  -21.6685  -49.8100 C.3       16 UNK        -0.1800 
     92 C          -6.8035  -23.8585  -50.7312 C.2       16 UNK         0.5000 
     93 O          -7.1749  -23.5973  -51.8754 O.2       16 UNK        -0.5000 
     94 N          -6.4820  -25.1044  -50.3468 N.am      17 UNK        -0.5000 
     95 CA         -6.5098  -26.2605  -51.2530 C.3       17 UNK         0.1400 
     96 CB         -6.4304  -27.5616  -50.4415 C.3       17 UNK        -0.1800 
     97 C          -5.3887  -26.2212  -52.3115 C.2       17 UNK         0.5000 
     98 O          -5.5688  -26.7529  -53.4071 O.2       17 UNK        -0.5000 
     99 N          -4.2655  -25.5740  -51.9717 N.am      18 UNK        -0.5000 
    100 CA        -3.0953  -25.3922  -52.8339 C.3       18 UNK         0.1400 
    101 CB        -1.8237  -25.6852  -52.0180 C.3       18 UNK        -0.1800 
    102 C         -3.0513  -23.9892  -53.4741 C.2       18 UNK         0.5000 
    103 O         -1.9969  -23.5792  -53.9614 O.2       18 UNK        -0.5000 
    104 N         -4.1826  -23.2658  -53.4822 N.am      19 UNK        -0.5000 
    105 CA        -4.3102  -21.9015  -54.0120 C.3       19 UNK         0.1400 
    106 CB        -5.7261  -21.3743  -53.7412 C.3       19 UNK        -0.1800 
    107 C         -3.9518  -21.7503  -55.5058 C.2       19 UNK         0.5000 
    108 O         -3.5634  -20.6598  -55.9218 O.2       19 UNK        -0.5000 
    109 N         -4.0573  -22.8424  -56.2755 N.am      20 UNK        -0.5000 
    110 CA        -3.6411  -22.9156  -57.6772 C.3       20 UNK         0.1400 
    111 CB        -4.2531  -24.1729  -58.3137 C.3       20 UNK        -0.1800 
    112 C         -2.1087  -22.9115  -57.8594 C.2       20 UNK         0.5000 
    113 O         -1.6276  -22.4290  -58.8854 O.2       20 UNK        -0.5000 
    114 N         -1.3725  -23.4488  -56.8758 N.am      21 UNK        -0.5000 
    115 CA         0.0927  -23.4755  -56.8544 C.3       21 UNK         0.1400 
    116 CB         0.5585  -24.7345  -56.1055 C.3       21 UNK        -0.1800 
    117 C          0.6802  -22.2113  -56.1994 C.2       21 UNK         0.5000 
    118 O          1.7958  -21.8131  -56.5365 O.2       21 UNK        -0.5000 
    119 N         -0.0819  -21.6186  -55.2731 N.am      22 UNK        -0.5000 
    120 CA         0.2056  -20.3707  -54.5535 C.3       22 UNK         0.1400 
    121 C          0.4488  -19.1491  -55.4873 C.2       22 UNK         0.5000 
    122 N          1.3858  -18.2755  -55.1448 N.am      22 UNK        -0.7600 
    123 O         -0.2274  -18.9667  -56.4970 O.2       22 UNK        -0.5000 
    124 C124       -0.9382  -20.0910  -53.5500 C.3       23 UNK        -0.0398 
    125 S125       -0.4667  -19.0366  -52.1392 S.3       23 UNK        -0.2404 
    126 C126       -1.4989  -17.5737  -52.4635 C.3       23 UNK        -0.0205 
    127 H127       -1.1531   -7.3425  -48.2188 H         1 UNK         0.0600 
    128 H128        0.3760   -6.6087  -48.7105 H         1 UNK         0.0600 
    129 H129       -0.2140   -6.3992  -47.0582 H         1 UNK         0.0600 
    130 H130       -0.9827   -9.5301  -47.8351 H         1 UNK         0.3000 
    131 H131        1.5928  -10.8175  -47.3838 H         1 UNK         0.0600 
    132 H132       -1.1259  -12.2205  -47.4647 H         1 UNK         0.0800 
    133 H133       -0.3279  -11.6824  -48.9097 H         1 UNK         0.0800 
    134 H134        1.6188  -14.6298  -49.8483 H         1 UNK         0.0800 
    135 H135        0.6963  -13.2221  -50.2995 H         1 UNK         0.0800 
    136 H136        0.3683  -15.7786  -51.6525 H         1 UNK         0.1150 
    137 H137       -3.4725  -17.3531  -50.5907 H         1 UNK         0.1150 
    138 H138       -1.6531  -14.3706  -48.1341 H         1 UNK         0.1150 
    139 H139       -3.9327  -14.9341  -47.7747 H         1 UNK         0.0800 
    140 H140       -4.8081  -15.9233  -48.9056 H         1 UNK         0.0800 
    141 H141       -5.1564  -18.2318  -48.8555 H         1 UNK         0.0800 
    142 H142       -5.9911  -18.1562  -47.3333 H         1 UNK         0.0800 
    143 H143       -5.4919  -20.4670  -48.0358 H         1 UNK         0.0600 
    144 H144       -2.8610  -19.5393  -48.5586 H         1 UNK         0.3000 
    145 H145       -1.2084  -22.6555  -48.5649 H         1 UNK         0.0600 
    146 H146       -0.9056  -22.2713  -51.0022 H         1 UNK         0.0600 
    147 H147       -2.5307  -22.8539  -50.6708 H         1 UNK         0.0600 
    148 H148       -2.2778  -21.1536  -51.0066 H         1 UNK         0.0600 
    149 H149       -0.2516  -20.3123  -49.6616 H         1 UNK         0.3000 
    150 H150        1.4882  -19.3468  -48.5286 H         1 UNK         0.0600 
    151 H151       -0.2853  -17.6592  -48.7932 H         1 UNK         0.0600 
    152 H152        1.0431  -16.9676  -47.8736 H         1 UNK         0.0600 
    153 H153       -0.4366  -17.4711  -47.0562 H         1 UNK         0.0600 
    154 H154        1.4828  -18.4420  -45.7755 H         1 UNK         0.3000 
    155 H155        3.3671  -21.1238  -44.4622 H         1 UNK         0.0600 
    156 H156        4.6404  -18.5426  -45.4922 H         1 UNK         0.0600 
    157 H157        5.2576  -20.1758  -45.6835 H         1 UNK         0.0600 
    158 H158        5.2046  -19.4455  -44.0854 H         1 UNK         0.0600 
    159 H159        2.7481  -18.3125  -43.7965 H         1 UNK         0.3000 
    160 H160        0.0461  -18.4879  -42.4927 H         1 UNK         0.0600 
    161 H161        1.4028  -19.8864  -40.1329 H         1 UNK         0.0600 
    162 H162       -0.1442  -20.3164  -40.8474 H         1 UNK         0.0600 
    163 H163        0.0324  -18.7822  -40.0146 H         1 UNK         0.0600 
    164 H164        1.2172  -16.7321  -41.9921 H         1 UNK         0.3000 
    165 H165        2.7933  -15.4681  -40.3914 H         1 UNK         0.0600 
    166 H166        5.5890  -16.4202  -41.2137 H         1 UNK         0.0600 
    167 H167        5.2084  -14.8431  -40.5235 H         1 UNK         0.0600 
    168 H168        4.9679  -16.3010  -39.5739 H         1 UNK         0.0600 
    169 H169        2.6778  -14.4833  -42.3835 H         1 UNK         0.3000 
    170 H170        3.7650  -13.8990  -44.7419 H         1 UNK         0.0600 
    171 H171        4.8276  -15.6015  -46.2021 H         1 UNK         0.0600 
    172 H172        3.3383  -16.5322  -46.2610 H         1 UNK         0.0600 
    173 H173        3.4092  -14.9288  -46.9850 H         1 UNK         0.0600 
    174 H174        1.5711  -13.7262  -44.6131 H         1 UNK         0.3000 
    175 H175       -0.8117  -14.6191  -45.5094 H         1 UNK         0.0600 
    176 H176       -1.3762  -16.7494  -43.3757 H         1 UNK         0.0600 
    177 H177       -2.5819  -15.8278  -44.2689 H         1 UNK         0.0600 
    178 H178       -1.5478  -16.9709  -45.1042 H         1 UNK         0.0600 
    179 H179       -0.8352  -13.1343  -43.8588 H         1 UNK         0.3000 
    180 H180       -1.3612  -12.7808  -41.0937 H         1 UNK         0.0600 
    181 H181        1.5288  -13.3208  -40.2206 H         1 UNK         0.0600 
    182 H182        0.0797  -13.9499  -39.4472 H         1 UNK         0.0600 
    183 H183        0.4052  -12.2259  -39.4198 H         1 UNK         0.0600 
    184 H184       -0.5402  -11.0041  -42.1223 H         1 UNK         0.3000 
    185 H185        0.6964   -9.5545  -43.0981 H         1 UNK         0.0600 
    186 H186        2.9380   -9.4714  -41.9744 H         1 UNK         0.0600 
    187 H187        3.6791  -10.1758  -43.4064 H         1 UNK         0.0600 
    188 H188        2.9226   -8.5852  -43.4911 H         1 UNK         0.0600 
    189 H189        2.1123   -9.8548  -45.3971 H         1 UNK         0.3000 
    190 H190       -2.7067  -20.1536  -45.9502 H         1 UNK         0.3000 
    191 H191       -4.3249  -20.7973  -43.5171 H         1 UNK         0.0600 
    192 H192       -2.2454  -20.0955  -42.3088 H         1 UNK         0.0600 
    193 H193       -2.9042  -18.7946  -43.2900 H         1 UNK         0.0600 
    194 H194       -1.4907  -19.6866  -43.8481 H         1 UNK         0.0600 
    195 H195       -1.3715  -21.7016  -45.3792 H         1 UNK         0.3000 
    196 H196       -0.6723  -23.8780  -43.7101 H         1 UNK         0.0600 
    197 H197        0.1949  -23.2170  -46.5748 H         1 UNK         0.0600 
    198 H198        0.9434  -22.6114  -45.1010 H         1 UNK         0.0600 
    199 H199        1.0215  -24.3225  -45.4839 H         1 UNK         0.0600 
    200 H200       -2.7074  -23.7733  -46.6215 H         1 UNK         0.3000 
    201 H201       -3.0907  -26.7427  -46.5128 H         1 UNK         0.0600 
    202 H202       -2.9139  -24.9416  -48.9895 H         1 UNK         0.0600 
    203 H203       -3.1791  -26.6811  -48.9851 H         1 UNK         0.0600 
    204 H204       -1.6413  -26.0316  -48.4457 H         1 UNK         0.0600 
    205 H205       -4.5905  -24.0574  -45.6317 H         1 UNK         0.3000 
    206 H206       -6.6427  -23.2094  -45.5015 H         1 UNK         0.0600 
    207 H207       -7.0720  -25.4247  -44.4162 H         1 UNK         0.0600 
    208 H208       -8.5127  -24.7899  -45.1923 H         1 UNK         0.0600 
    209 H209       -7.6033  -26.0828  -45.9632 H         1 UNK         0.0600 
    210 H210       -5.4266  -23.0180  -48.0343 H         1 UNK         0.3000 
    211 H211       -5.7215  -22.1903  -50.0277 H         1 UNK         0.0600 
    212 H212       -7.8119  -21.2076  -50.7978 H         1 UNK         0.0600 
    213 H213       -7.6475  -20.8660  -49.0846 H         1 UNK         0.0600 
    214 H214       -8.7521  -22.1245  -49.6342 H         1 UNK         0.0600 
    215 H215       -6.2030  -25.2838  -49.3876 H         1 UNK         0.3000 
    216 H216       -7.4654  -26.2537  -51.7817 H         1 UNK         0.0600 
    217 H217       -5.4657  -27.6689  -49.9448 H         1 UNK         0.0600 
    218 H218       -6.5620  -28.4307  -51.0871 H         1 UNK         0.0600 
    219 H219       -7.2084  -27.6014  -49.6788 H         1 UNK         0.0600 
    220 H220       -4.2188  -25.1603  -51.0528 H         1 UNK         0.3000 
    221 H221       -3.1261  -26.1070  -53.6584 H         1 UNK         0.0600 
    222 H222       -1.8567  -26.6857  -51.5864 H         1 UNK         0.0600 
    223 H223       -1.6874  -24.9757  -51.2031 H         1 UNK         0.0600 
    224 H224       -0.9330  -25.6364  -52.6458 H         1 UNK         0.0600 
    225 H225       -5.0196  -23.6736  -53.0886 H         1 UNK         0.3000 
    226 H226       -3.6167  -21.2733  -53.4523 H         1 UNK         0.0600 
    227 H227       -6.4867  -22.0154  -54.1883 H         1 UNK         0.0600 
    228 H228       -5.9231  -21.3109  -52.6714 H         1 UNK         0.0600 
    229 H229       -5.8586  -20.3717  -54.1500 H         1 UNK         0.0600 
    230 H230       -4.4031  -23.6932  -55.8568 H         1 UNK         0.3000 
    231 H231       -4.0383  -22.0424  -58.1993 H         1 UNK         0.0600 
    232 H232       -3.9067  -25.0830  -57.8224 H         1 UNK         0.0600 
    233 H233       -3.9845  -24.2467  -59.3684 H         1 UNK         0.0600 
    234 H234       -5.3417  -24.1536  -58.2578 H         1 UNK         0.0600 
    235 H235       -1.8367  -23.7802  -56.0394 H         1 UNK         0.3000 
    236 H236        0.4737  -23.5312  -57.8763 H         1 UNK         0.0600 
    237 H237        0.1789  -25.6388  -56.5812 H         1 UNK         0.0600 
    238 H238        1.6470  -24.8032  -56.0988 H         1 UNK         0.0600 
    239 H239        0.2241  -24.7356  -55.0675 H         1 UNK         0.0600 
    240 H240       -0.9560  -22.0708  -55.0399 H         1 UNK         0.3000 
    241 H241        1.1223  -20.5562  -53.9906 H         1 UNK         0.0600 
    242 H242        1.9356  -18.3939  -54.3081 H         1 UNK         0.3800 
    243 H243        1.5477  -17.4738  -55.7341 H         1 UNK         0.3800 
    244 H244       -1.2707  -21.0331  -53.1169 H         1 UNK         0.0800 
    245 H245       -1.8098  -19.6816  -54.0628 H         1 UNK         0.0800 
    246 H246       -2.5100  -17.8863  -52.7290 H         1 UNK         0.0800 
    247 H247       -1.1039  -17.0342  -53.3258 H         1 UNK         0.0800 
@<TRIPOS>BOND
     1    1    2 1    
     2    1  127 1    
     3    1  128 1    
     4    1  129 1    
     5    2    3 2    
     6    2    4 am   BACKBONE|DICT|INTERRES
     7    4    5 1    
     8    4  130 1    
     9    5    6 1    
    10    5   65 1    
    11    5  131 1    
    12    6    7 1    
    13    6  132 1    
    14    6  133 1    
    15    7    8 1    
    16    8    9 1    
    17    8  134 1    
    18    8  135 1    
    19    9   10 ar   
    20    9   14 ar   
    21   10   11 ar   
    22   10  136 1    
    23   11   12 ar   
    24   11  126 1    
    25   12   13 ar   
    26   12  137 1    
    27   13   14 ar   
    28   13   15 1    
    29   14  138 1    
    30   15   16 1    
    31   15  139 1    
    32   15  140 1    
    33   16   17 1    
    34   17   18 1    
    35   17  141 1    
    36   17  142 1    
    37   18   19 1    
    38   18   67 1    
    39   18  143 1    
    40   19   20 am   BACKBONE|DICT|INTERRES
    41   19  144 1    
    42   20   21 2    
    43   20   22 1    
    44   22   23 1    
    45   22   24 1    
    46   22  145 1    
    47   23  146 1    
    48   23  147 1    
    49   23  148 1    
    50   24   25 am   BACKBONE|DICT|INTERRES
    51   24  149 1    
    52   25   26 2    
    53   25   27 1    
    54   27   28 1    
    55   27   29 1    
    56   27  150 1    
    57   28  151 1    
    58   28  152 1    
    59   28  153 1    
    60   29   30 am   BACKBONE|DICT|INTERRES
    61   29  154 1    
    62   30   31 2    
    63   30   32 1    
    64   32   33 1    
    65   32   34 1    
    66   32  155 1    
    67   33  156 1    
    68   33  157 1    
    69   33  158 1    
    70   34   35 am   BACKBONE|DICT|INTERRES
    71   34  159 1    
    72   35   36 2    
    73   35   37 1    
    74   37   38 1    
    75   37   39 1    
    76   37  160 1    
    77   38  161 1    
    78   38  162 1    
    79   38  163 1    
    80   39   40 am   BACKBONE|DICT|INTERRES
    81   39  164 1    
    82   40   41 2    
    83   40   42 1    
    84   42   43 1    
    85   42   44 1    
    86   42  165 1    
    87   43  166 1    
    88   43  167 1    
    89   43  168 1    
    90   44   45 am   BACKBONE|DICT|INTERRES
    91   44  169 1    
    92   45   46 2    
    93   45   47 1    
    94   47   48 1    
    95   47   49 1    
    96   47  170 1    
    97   48  171 1    
    98   48  172 1    
    99   48  173 1    
   100   49   50 am   BACKBONE|DICT|INTERRES
   101   49  174 1    
   102   50   51 2    
   103   50   52 1    
   104   52   53 1    
   105   52   54 1    
   106   52  175 1    
   107   53  176 1    
   108   53  177 1    
   109   53  178 1    
   110   54   55 am   BACKBONE|DICT|INTERRES
   111   54  179 1    
   112   55   56 2    
   113   55   57 1    
   114   57   58 1    
   115   57   59 1    
   116   57  180 1    
   117   58  181 1    
   118   58  182 1    
   119   58  183 1    
   120   59   60 am   BACKBONE|DICT|INTERRES
   121   59  184 1    
   122   60   61 2    
   123   60   62 1    
   124   62   63 1    
   125   62   64 1    
   126   62  185 1    
   127   63  186 1    
   128   63  187 1    
   129   63  188 1    
   130   64   65 am   BACKBONE|DICT|INTERRES
   131   64  189 1    
   132   65   66 2    
   133   67   68 2    
   134   67   69 am   BACKBONE|DICT|INTERRES
   135   69   70 1    
   136   69  190 1    
   137   70   71 1    
   138   70   72 1    
   139   70  191 1    
   140   71  192 1    
   141   71  193 1    
   142   71  194 1    
   143   72   73 2    
   144   72   74 am   BACKBONE|DICT|INTERRES
   145   74   75 1    
   146   74  195 1    
   147   75   76 1    
   148   75   77 1    
   149   75  196 1    
   150   76  197 1    
   151   76  198 1    
   152   76  199 1    
   153   77   78 2    
   154   77   79 am   BACKBONE|DICT|INTERRES
   155   79   80 1    
   156   79  200 1    
   157   80   81 1    
   158   80   82 1    
   159   80  201 1    
   160   81  202 1    
   161   81  203 1    
   162   81  204 1    
   163   82   83 2    
   164   82   84 am   BACKBONE|DICT|INTERRES
   165   84   85 1    
   166   84  205 1    
   167   85   86 1    
   168   85   87 1    
   169   85  206 1    
   170   86  207 1    
   171   86  208 1    
   172   86  209 1    
   173   87   88 2    
   174   87   89 am   BACKBONE|DICT|INTERRES
   175   89   90 1    
   176   89  210 1    
   177   90   91 1    
   178   90   92 1    
   179   90  211 1    
   180   91  212 1    
   181   91  213 1    
   182   91  214 1    
   183   92   93 2    
   184   92   94 am   BACKBONE|DICT|INTERRES
   185   94   95 1    
   186   94  215 1    
   187   95   96 1    
   188   95   97 1    
   189   95  216 1    
   190   96  217 1    
   191   96  218 1    
   192   96  219 1    
   193   97   98 2    
   194   97   99 am   BACKBONE|DICT|INTERRES
   195   99  100 1    
   196   99  220 1    
   197  100  101 1    
   198  100  102 1    
   199  100  221 1    
   200  101  222 1    
   201  101  223 1    
   202  101  224 1    
   203  102  103 2    
   204  102  104 am   BACKBONE|DICT|INTERRES
   205  104  105 1    
   206  104  225 1    
   207  105  106 1    
   208  105  107 1    
   209  105  226 1    
   210  106  227 1    
   211  106  228 1    
   212  106  229 1    
   213  107  108 2    
   214  107  109 am   BACKBONE|DICT|INTERRES
   215  109  110 1    
   216  109  230 1    
   217  110  111 1    
   218  110  112 1    
   219  110  231 1    
   220  111  232 1    
   221  111  233 1    
   222  111  234 1    
   223  112  113 2    
   224  112  114 am   BACKBONE|DICT|INTERRES
   225  114  115 1    
   226  114  235 1    
   227  115  116 1    
   228  115  117 1    
   229  115  236 1    
   230  116  237 1    
   231  116  238 1    
   232  116  239 1    
   233  117  118 2    
   234  117  119 am   BACKBONE|DICT|INTERRES
   235  119  120 1    
   236  119  240 1    
   237  120  121 1    
   238  120  124 1    
   239  120  241 1    
   240  121  122 am   BACKBONE|DICT|INTERRES
   241  121  123 2    
   242  122  242 1    
   243  122  243 1    
   244  124  125 1    
   245  124  244 1    
   246  124  245 1    
   247  125  126 1    
   248  126  246 1    
   249  126  247 1    
@<TRIPOS>SUBSTRUCTURE
     1 UNK         1 GROUP             0       ****    0 ROOT    
