@<TRIPOS>MOLECULE
3R540
247   249    1
SMALL
USER_CHARGES


@<TRIPOS>ATOM
      1 CA          6.9561   -9.9536  -49.5316 C.3       0 UNK        -0.1800 
      2 C           6.6365  -11.3225  -48.9469 C.2       0 UNK         0.5000 
      3 O           7.4186  -12.2585  -49.1163 O.2       0 UNK        -0.5000 
      4 N           5.4890  -11.4437  -48.2678 N.am      1 UNK        -0.5000 
      5 CA          5.0483  -12.6595  -47.5759 C.3       1 UNK         0.1400 
      6 C6          3.5227  -12.6171  -47.2808 C.3       23 UNK        -0.0398 
      7 S7          2.7002  -14.2092  -47.6132 S.3       23 UNK        -0.2404 
      8 C8          2.5499  -14.1143  -49.4240 C.3       23 UNK        -0.0205 
      9 C9          1.8130  -15.3092  -50.0089 C.ar      23 UNK        -0.0193 
     10 C10         0.5806  -15.1304  -50.6413 C.ar      23 UNK        -0.1150 
     11 C11        -0.0856  -16.2084  -51.2348 C.ar      23 UNK        -0.0193 
     12 C12         0.5015  -17.4785  -51.1910 C.ar      23 UNK        -0.1150 
     13 C13         1.7446  -17.6688  -50.5758 C.ar      23 UNK        -0.0193 
     14 C14         2.3894  -16.5816  -49.9787 C.ar      23 UNK        -0.1150 
     15 C15         2.4317  -19.0275  -50.6136 C.3       23 UNK        -0.0205 
     16 S16         2.1740  -19.9848  -49.0886 S.3       23 UNK        -0.2404 
     17 C17         0.4587  -20.5416  -49.3257 C.3       23 UNK        -0.0398 
     18 CA          0.0620  -21.6965  -48.3750 C.3       11 UNK         0.1400 
     19 N           0.0229  -21.3001  -46.9605 N.am      11 UNK        -0.5000 
     20 C          -0.2176  -22.1368  -45.9382 C.2       10 UNK         0.5000 
     21 O          -0.3546  -23.3524  -46.0691 O.2       10 UNK        -0.5000 
     22 CA         -0.4003  -21.5176  -44.5401 C.3       10 UNK         0.1400 
     23 CB          0.9532  -21.2649  -43.8603 C.3       10 UNK        -0.1800 
     24 N          -1.1964  -20.2897  -44.5695 N.am      10 UNK        -0.5000 
     25 C          -2.4887  -20.2416  -44.9260 C.2       9 UNK         0.5000 
     26 O          -3.1540  -21.2391  -45.2011 O.2       9 UNK        -0.5000 
     27 CA         -3.1402  -18.8510  -45.0398 C.3       9 UNK         0.1400 
     28 CB         -3.6393  -18.3642  -43.6716 C.3       9 UNK        -0.1800 
     29 N          -2.2407  -17.8548  -45.6190 N.am      9 UNK        -0.5000 
     30 C          -1.7538  -17.9019  -46.8674 C.2       8 UNK         0.5000 
     31 O          -2.0773  -18.7560  -47.6928 O.2       8 UNK        -0.5000 
     32 CA         -0.6780  -16.8574  -47.2234 C.3       8 UNK         0.1400 
     33 CB         -1.3142  -15.5100  -47.5907 C.3       8 UNK        -0.1800 
     34 N           0.2804  -16.6646  -46.1331 N.am      8 UNK        -0.5000 
     35 C           1.1254  -17.6113  -45.7028 C.2       7 UNK         0.5000 
     36 O           1.2109  -18.7263  -46.2115 O.2       7 UNK        -0.5000 
     37 CA          1.9619  -17.2930  -44.4519 C.3       7 UNK         0.1400 
     38 CB          3.2871  -16.6151  -44.8151 C.3       7 UNK        -0.1800 
     39 N           1.2223  -16.4837  -43.4806 N.am      7 UNK        -0.5000 
     40 C           0.2360  -16.9885  -42.7243 C.2       6 UNK         0.5000 
     41 O          -0.1107  -18.1690  -42.7644 O.2       6 UNK        -0.5000 
     42 CA         -0.5178  -16.0215  -41.7954 C.3       6 UNK         0.1400 
     43 CB          0.2390  -15.8281  -40.4741 C.3       6 UNK        -0.1800 
     44 N          -0.7822  -14.7157  -42.3947 N.am      6 UNK        -0.5000 
     45 C          -1.5250  -14.4911  -43.4839 C.2       5 UNK         0.5000 
     46 O          -2.0421  -15.3915  -44.1435 O.2       5 UNK        -0.5000 
     47 CA         -1.7159  -13.0273  -43.9324 C.3       5 UNK         0.1400 
     48 CB         -2.9478  -12.3983  -43.2552 C.3       5 UNK        -0.1800 
     49 N          -0.5250  -12.1778  -43.7841 N.am      5 UNK        -0.5000 
     50 C           0.0984  -11.7823  -42.6657 C.2       4 UNK         0.5000 
     51 O          -0.2756  -12.0573  -41.5237 O.2       4 UNK        -0.5000 
     52 CA          1.4108  -11.0043  -42.8647 C.3       4 UNK         0.1400 
     53 CB          1.3604   -9.6427  -42.1535 C.3       4 UNK        -0.1800 
     54 N           2.5726  -11.7563  -42.3849 N.am      4 UNK        -0.5000 
     55 C           2.9430  -12.9703  -42.8120 C.2       3 UNK         0.5000 
     56 O           2.3207  -13.6355  -43.6452 O.2       3 UNK        -0.5000 
     57 CA          4.2440  -13.5373  -42.2363 C.3       3 UNK         0.1400 
     58 CB          3.9741  -14.6647  -41.2263 C.3       3 UNK        -0.1800 
     59 N           5.0097  -14.0407  -43.3658 N.am      3 UNK        -0.5000 
     60 C           6.3371  -14.1761  -43.4251 C.2       2 UNK         0.5000 
     61 O           7.0900  -13.9815  -42.4700 O.2       2 UNK        -0.5000 
     62 CA          6.9287  -14.5717  -44.7938 C.3       2 UNK         0.1400 
     63 CB          7.1748  -16.0868  -44.8631 C.3       2 UNK        -0.1800 
     64 N           6.1081  -14.1625  -45.9415 N.am      2 UNK        -0.5000 
     65 C           5.8824  -12.8896  -46.2969 C.2       1 UNK         0.5000 
     66 O           6.2952  -11.9191  -45.6562 O.2       1 UNK        -0.5000 
     67 C          -1.2764  -22.3110  -48.8286 C.2       11 UNK         0.5000 
     68 O          -1.2748  -23.3909  -49.4212 O.2       11 UNK        -0.5000 
     69 N          -2.3878  -21.6348  -48.5031 N.am      12 UNK        -0.5000 
     70 CA         -3.7476  -22.0922  -48.7851 C.3       12 UNK         0.1400 
     71 CB         -4.7539  -21.0110  -48.3633 C.3       12 UNK        -0.1800 
     72 C          -4.0724  -23.4326  -48.1036 C.2       12 UNK         0.5000 
     73 O          -4.6108  -24.3257  -48.7561 O.2       12 UNK        -0.5000 
     74 N          -3.7107  -23.5594  -46.8190 N.am      13 UNK        -0.5000 
     75 CA         -3.8844  -24.7694  -46.0166 C.3       13 UNK         0.1400 
     76 CB         -3.5479  -24.4703  -44.5482 C.3       13 UNK        -0.1800 
     77 C          -3.0574  -25.9584  -46.5357 C.2       13 UNK         0.5000 
     78 O          -3.5961  -27.0594  -46.6513 O.2       13 UNK        -0.5000 
     79 N          -1.7830  -25.7161  -46.8757 N.am      14 UNK        -0.5000 
     80 CA         -0.8640  -26.7134  -47.4334 C.3       14 UNK         0.1400 
     81 CB          0.5477  -26.1152  -47.5275 C.3       14 UNK        -0.1800 
     82 C          -1.3155  -27.2502  -48.8042 C.2       14 UNK         0.5000 
     83 O          -1.1582  -28.4407  -49.0764 O.2       14 UNK        -0.5000 
     84 N          -1.9018  -26.3688  -49.6227 N.am      15 UNK        -0.5000 
     85 CA         -2.4980  -26.6895  -50.9189 C.3       15 UNK         0.1400 
     86 CB         -2.4109  -25.4386  -51.8022 C.3       15 UNK        -0.1800 
     87 C          -3.9533  -27.1974  -50.8171 C.2       15 UNK         0.5000 
     88 O          -4.5690  -27.4560  -51.8524 O.2       15 UNK        -0.5000 
     89 N          -4.4937  -27.3085  -49.5923 N.am      16 UNK        -0.5000 
     90 CA         -5.8497  -27.7556  -49.2446 C.3       16 UNK         0.1400 
     91 CB         -5.9953  -29.2672  -49.5146 C.3       16 UNK        -0.1800 
     92 C          -6.9690  -26.9220  -49.9088 C.2       16 UNK         0.5000 
     93 O          -8.0402  -27.4524  -50.2075 O.2       16 UNK        -0.5000 
     94 N          -6.6793  -25.6363  -50.1560 N.am      17 UNK        -0.5000 
     95 CA         -7.4842  -24.6370  -50.8657 C.3       17 UNK         0.1400 
     96 CB         -8.7631  -24.3047  -50.0713 C.3       17 UNK        -0.1800 
     97 C          -7.7827  -24.9704  -52.3466 C.2       17 UNK         0.5000 
     98 O          -8.5885  -24.2737  -52.9656 O.2       17 UNK        -0.5000 
     99 N          -7.1233  -25.9943  -52.9110 N.am      18 UNK        -0.5000 
    100 CA        -7.2329  -26.3742  -54.3236 C.3       18 UNK         0.1400 
    101 CB        -6.7827  -27.8337  -54.4880 C.3       18 UNK        -0.1800 
    102 C         -6.4119  -25.4459  -55.2397 C.2       18 UNK         0.5000 
    103 O         -6.6983  -25.3466  -56.4334 O.2       18 UNK        -0.5000 
    104 N         -5.4199  -24.7744  -54.6517 N.am      19 UNK        -0.5000 
    105 CA        -4.5800  -23.7384  -55.2294 C.3       19 UNK         0.1400 
    106 CB        -3.3869  -24.3845  -55.9559 C.3       19 UNK        -0.1800 
    107 C         -4.1202  -22.8367  -54.0734 C.2       19 UNK         0.5000 
    108 O         -4.3517  -23.1758  -52.9095 O.2       19 UNK        -0.5000 
    109 N         -3.4831  -21.7064  -54.4106 N.am      20 UNK        -0.5000 
    110 CA        -2.8272  -20.7609  -53.4928 C.3       20 UNK         0.1400 
    111 CB        -1.5514  -21.3993  -52.9033 C.3       20 UNK        -0.1800 
    112 C         -3.7447  -20.1828  -52.3907 C.2       20 UNK         0.5000 
    113 O         -3.2515  -19.8000  -51.3301 O.2       20 UNK        -0.5000 
    114 N         -5.0589  -20.1300  -52.6611 N.am      21 UNK        -0.5000 
    115 CA        -6.1080  -19.7390  -51.7143 C.3       21 UNK         0.1400 
    116 CB        -7.4821  -19.9798  -52.3571 C.3       21 UNK        -0.1800 
    117 C         -5.9823  -18.2892  -51.2097 C.2       21 UNK         0.5000 
    118 O         -6.3480  -18.0080  -50.0685 O.2       21 UNK        -0.5000 
    119 N         -5.4354  -17.4141  -52.0634 N.am      22 UNK        -0.5000 
    120 CA        -5.0356  -16.0336  -51.7527 C.3       22 UNK         0.1400 
    121 C         -6.2049  -15.0410  -51.4618 C.2       22 UNK         0.5000 
    122 N         -7.4448  -15.3659  -51.8070 N.am      22 UNK        -0.7600 
    123 O         -5.9893  -13.9477  -50.9461 O.2       22 UNK        -0.5000 
    124 C124       -3.8913  -15.9855  -50.6933 C.3       23 UNK        -0.0398 
    125 S125       -2.5554  -14.8509  -51.1950 S.3       23 UNK        -0.2404 
    126 C126       -1.3823  -15.9909  -52.0115 C.3       23 UNK        -0.0205 
    127 H127        6.1737   -9.2263  -49.3134 H         1 UNK         0.0600 
    128 H128        7.8928   -9.5791  -49.1188 H         1 UNK         0.0600 
    129 H129        7.0628  -10.0234  -50.6141 H         1 UNK         0.0600 
    130 H130        4.9122  -10.6262  -48.1313 H         1 UNK         0.3000 
    131 H131        5.2566  -13.4908  -48.2530 H         1 UNK         0.0600 
    132 H132        3.3117  -12.3238  -46.2502 H         1 UNK         0.0800 
    133 H133        3.0267  -11.8634  -47.8942 H         1 UNK         0.0800 
    134 H134        2.0413  -13.1866  -49.6909 H         1 UNK         0.0800 
    135 H135        3.5430  -14.0595  -49.8714 H         1 UNK         0.0800 
    136 H136        0.1497  -14.1407  -50.6938 H         1 UNK         0.1150 
    137 H137        0.0090  -18.3137  -51.6689 H         1 UNK         0.1150 
    138 H138        3.3530  -16.7206  -49.5089 H         1 UNK         0.1150 
    139 H139        2.0955  -19.6044  -51.4765 H         1 UNK         0.0800 
    140 H140        3.5042  -18.8835  -50.7528 H         1 UNK         0.0800 
    141 H141        0.3610  -20.8635  -50.3636 H         1 UNK         0.0800 
    142 H142       -0.2068  -19.6865  -49.2073 H         1 UNK         0.0800 
    143 H143        0.8165  -22.4808  -48.4654 H         1 UNK         0.0600 
    144 H144        0.1988  -20.3197  -46.7594 H         1 UNK         0.3000 
    145 H145       -0.9436  -22.2413  -43.9292 H         1 UNK         0.0600 
    146 H146        0.8229  -20.8457  -42.8625 H         1 UNK         0.0600 
    147 H147        1.5099  -22.1964  -43.7516 H         1 UNK         0.0600 
    148 H148        1.5768  -20.5810  -44.4336 H         1 UNK         0.0600 
    149 H149       -0.7291  -19.4325  -44.2969 H         1 UNK         0.3000 
    150 H150       -4.0033  -18.9425  -45.7022 H         1 UNK         0.0600 
    151 H151       -4.3407  -19.0771  -43.2365 H         1 UNK         0.0600 
    152 H152       -4.1568  -17.4087  -43.7583 H         1 UNK         0.0600 
    153 H153       -2.8196  -18.2366  -42.9647 H         1 UNK         0.0600 
    154 H154       -1.9732  -17.0782  -45.0200 H         1 UNK         0.3000 
    155 H155       -0.1299  -17.2239  -48.0942 H         1 UNK         0.0600 
    156 H156       -0.5591  -14.7893  -47.9045 H         1 UNK         0.0600 
    157 H157       -1.8682  -15.0771  -46.7588 H         1 UNK         0.0600 
    158 H158       -2.0124  -15.6311  -48.4172 H         1 UNK         0.0600 
    159 H159        0.2495  -15.7830  -45.6443 H         1 UNK         0.3000 
    160 H160        2.2117  -18.2466  -43.9819 H         1 UNK         0.0600 
    161 H161        3.1332  -15.6029  -45.1811 H         1 UNK         0.0600 
    162 H162        3.8135  -17.1714  -45.5917 H         1 UNK         0.0600 
    163 H163        3.9431  -16.5663  -43.9469 H         1 UNK         0.0600 
    164 H164        1.4480  -15.4956  -43.4287 H         1 UNK         0.3000 
    165 H165       -1.4833  -16.4776  -41.5672 H         1 UNK         0.0600 
    166 H166        1.1789  -15.2990  -40.6253 H         1 UNK         0.0600 
    167 H167       -0.3547  -15.2550  -39.7618 H         1 UNK         0.0600 
    168 H168        0.4695  -16.7872  -40.0084 H         1 UNK         0.0600 
    169 H169       -0.4223  -13.9003  -41.9073 H         1 UNK         0.3000 
    170 H170       -1.9174  -13.0604  -45.0043 H         1 UNK         0.0600 
    171 H171       -3.8459  -12.9788  -43.4700 H         1 UNK         0.0600 
    172 H172       -2.8423  -12.3555  -42.1709 H         1 UNK         0.0600 
    173 H173       -3.1219  -11.3848  -43.6163 H         1 UNK         0.0600 
    174 H174       -0.0821  -11.9372  -44.6598 H         1 UNK         0.3000 
    175 H175        1.5551  -10.8212  -43.9315 H         1 UNK         0.0600 
    176 H176        2.2579   -9.0578  -42.3554 H         1 UNK         0.0600 
    177 H177        0.5071   -9.0556  -42.4955 H         1 UNK         0.0600 
    178 H178        1.2689   -9.7553  -41.0723 H         1 UNK         0.0600 
    179 H179        3.1322  -11.2982  -41.6806 H         1 UNK         0.3000 
    180 H180        4.8026  -12.7358  -41.7483 H         1 UNK         0.0600 
    181 H181        3.4211  -15.4883  -41.6789 H         1 UNK         0.0600 
    182 H182        3.3926  -14.2970  -40.3804 H         1 UNK         0.0600 
    183 H183        4.9046  -15.0689  -40.8277 H         1 UNK         0.0600 
    184 H184        4.4620  -14.1948  -44.2017 H         1 UNK         0.3000 
    185 H185        7.8948  -14.0703  -44.8824 H         1 UNK         0.0600 
    186 H186        7.6860  -16.3614  -45.7859 H         1 UNK         0.0600 
    187 H187        7.8030  -16.4184  -44.0352 H         1 UNK         0.0600 
    188 H188        6.2445  -16.6518  -44.8140 H         1 UNK         0.0600 
    189 H189        5.7326  -14.9057  -46.5130 H         1 UNK         0.3000 
    190 H190       -2.2962  -20.7294  -48.0523 H         1 UNK         0.3000 
    191 H191       -3.8305  -22.2365  -49.8647 H         1 UNK         0.0600 
    192 H192       -4.5494  -20.0650  -48.8651 H         1 UNK         0.0600 
    193 H193       -5.7725  -21.3065  -48.6167 H         1 UNK         0.0600 
    194 H194       -4.7270  -20.8263  -47.2901 H         1 UNK         0.0600 
    195 H195       -3.3144  -22.7530  -46.3425 H         1 UNK         0.3000 
    196 H196       -4.9379  -25.0515  -46.0705 H         1 UNK         0.0600 
    197 H197       -3.6898  -25.3549  -43.9262 H         1 UNK         0.0600 
    198 H198       -4.1904  -23.6853  -44.1492 H         1 UNK         0.0600 
    199 H199       -2.5134  -24.1472  -44.4300 H         1 UNK         0.0600 
    200 H200       -1.3990  -24.7867  -46.7193 H         1 UNK         0.3000 
    201 H201       -0.8306  -27.5582  -46.7426 H         1 UNK         0.0600 
    202 H202        0.9172  -25.8221  -46.5448 H         1 UNK         0.0600 
    203 H203        0.5678  -25.2332  -48.1689 H         1 UNK         0.0600 
    204 H204        1.2539  -26.8381  -47.9379 H         1 UNK         0.0600 
    205 H205       -1.9474  -25.3958  -49.3371 H         1 UNK         0.3000 
    206 H206       -1.9169  -27.4803  -51.3974 H         1 UNK         0.0600 
    207 H207       -2.8530  -25.6091  -52.7842 H         1 UNK         0.0600 
    208 H208       -2.9329  -24.6009  -51.3397 H         1 UNK         0.0600 
    209 H209       -1.3756  -25.1361  -51.9595 H         1 UNK         0.0600 
    210 H210       -3.9200  -27.0428  -48.8014 H         1 UNK         0.3000 
    211 H211       -5.9549  -27.5985  -48.1705 H         1 UNK         0.0600 
    212 H212       -5.9556  -29.4922  -50.5809 H         1 UNK         0.0600 
    213 H213       -6.9451  -29.6449  -49.1347 H         1 UNK         0.0600 
    214 H214       -5.2036  -29.8324  -49.0226 H         1 UNK         0.0600 
    215 H215       -5.7857  -25.2906  -49.8090 H         1 UNK         0.3000 
    216 H216       -6.8706  -23.7349  -50.8885 H         1 UNK         0.0600 
    217 H217       -8.5279  -24.0405  -49.0402 H         1 UNK         0.0600 
    218 H218       -9.4582  -25.1443  -50.0535 H         1 UNK         0.0600 
    219 H219       -9.2883  -23.4553  -50.5094 H         1 UNK         0.0600 
    220 H220       -6.4563  -26.5164  -52.3536 H         1 UNK         0.3000 
    221 H221       -8.2794  -26.3046  -54.6277 H         1 UNK         0.0600 
    222 H222       -5.7283  -27.9605  -54.2406 H         1 UNK         0.0600 
    223 H223       -7.3604  -28.5001  -53.8472 H         1 UNK         0.0600 
    224 H224       -6.9198  -28.1698  -55.5165 H         1 UNK         0.0600 
    225 H225       -5.2954  -24.8735  -53.6512 H         1 UNK         0.3000 
    226 H226       -5.1660  -23.1377  -55.9279 H         1 UNK         0.0600 
    227 H227       -3.7226  -25.0476  -56.7534 H         1 UNK         0.0600 
    228 H228       -2.7460  -23.6298  -56.4125 H         1 UNK         0.0600 
    229 H229       -2.7707  -24.9701  -55.2725 H         1 UNK         0.0600 
    230 H230       -3.3703  -21.4988  -55.3933 H         1 UNK         0.3000 
    231 H231       -2.5185  -19.9097  -54.1011 H         1 UNK         0.0600 
    232 H232       -0.9146  -21.8097  -53.6868 H         1 UNK         0.0600 
    233 H233       -1.7887  -22.2050  -52.2069 H         1 UNK         0.0600 
    234 H234       -0.9600  -20.6609  -52.3620 H         1 UNK         0.0600 
    235 H235       -5.3675  -20.4698  -53.5596 H         1 UNK         0.3000 
    236 H236       -6.0251  -20.3962  -50.8483 H         1 UNK         0.0600 
    237 H237       -8.2867  -19.7187  -51.6683 H         1 UNK         0.0600 
    238 H238       -7.6151  -19.3829  -53.2601 H         1 UNK         0.0600 
    239 H239       -7.6139  -21.0290  -52.6240 H         1 UNK         0.0600 
    240 H240       -5.1913  -17.7459  -52.9850 H         1 UNK         0.3000 
    241 H241       -4.6311  -15.6778  -52.7008 H         1 UNK         0.0600 
    242 H242       -7.6404  -16.2564  -52.2353 H         1 UNK         0.3800 
    243 H243       -8.1965  -14.7187  -51.6272 H         1 UNK         0.3800 
    244 H244       -4.2676  -15.6826  -49.7148 H         1 UNK         0.0800 
    245 H245       -3.4549  -16.9726  -50.5302 H         1 UNK         0.0800 
    246 H246       -1.8704  -16.9444  -52.2199 H         1 UNK         0.0800 
    247 H247       -1.1227  -15.5696  -52.9834 H         1 UNK         0.0800 
@<TRIPOS>BOND
     1    1    2 1    
     2    1  127 1    
     3    1  128 1    
     4    1  129 1    
     5    2    3 2    
     6    2    4 am   BACKBONE|DICT|INTERRES
     7    4    5 1    
     8    4  130 1    
     9    5    6 1    
    10    5   65 1    
    11    5  131 1    
    12    6    7 1    
    13    6  132 1    
    14    6  133 1    
    15    7    8 1    
    16    8    9 1    
    17    8  134 1    
    18    8  135 1    
    19    9   10 ar   
    20    9   14 ar   
    21   10   11 ar   
    22   10  136 1    
    23   11   12 ar   
    24   11  126 1    
    25   12   13 ar   
    26   12  137 1    
    27   13   14 ar   
    28   13   15 1    
    29   14  138 1    
    30   15   16 1    
    31   15  139 1    
    32   15  140 1    
    33   16   17 1    
    34   17   18 1    
    35   17  141 1    
    36   17  142 1    
    37   18   19 1    
    38   18   67 1    
    39   18  143 1    
    40   19   20 am   BACKBONE|DICT|INTERRES
    41   19  144 1    
    42   20   21 2    
    43   20   22 1    
    44   22   23 1    
    45   22   24 1    
    46   22  145 1    
    47   23  146 1    
    48   23  147 1    
    49   23  148 1    
    50   24   25 am   BACKBONE|DICT|INTERRES
    51   24  149 1    
    52   25   26 2    
    53   25   27 1    
    54   27   28 1    
    55   27   29 1    
    56   27  150 1    
    57   28  151 1    
    58   28  152 1    
    59   28  153 1    
    60   29   30 am   BACKBONE|DICT|INTERRES
    61   29  154 1    
    62   30   31 2    
    63   30   32 1    
    64   32   33 1    
    65   32   34 1    
    66   32  155 1    
    67   33  156 1    
    68   33  157 1    
    69   33  158 1    
    70   34   35 am   BACKBONE|DICT|INTERRES
    71   34  159 1    
    72   35   36 2    
    73   35   37 1    
    74   37   38 1    
    75   37   39 1    
    76   37  160 1    
    77   38  161 1    
    78   38  162 1    
    79   38  163 1    
    80   39   40 am   BACKBONE|DICT|INTERRES
    81   39  164 1    
    82   40   41 2    
    83   40   42 1    
    84   42   43 1    
    85   42   44 1    
    86   42  165 1    
    87   43  166 1    
    88   43  167 1    
    89   43  168 1    
    90   44   45 am   BACKBONE|DICT|INTERRES
    91   44  169 1    
    92   45   46 2    
    93   45   47 1    
    94   47   48 1    
    95   47   49 1    
    96   47  170 1    
    97   48  171 1    
    98   48  172 1    
    99   48  173 1    
   100   49   50 am   BACKBONE|DICT|INTERRES
   101   49  174 1    
   102   50   51 2    
   103   50   52 1    
   104   52   53 1    
   105   52   54 1    
   106   52  175 1    
   107   53  176 1    
   108   53  177 1    
   109   53  178 1    
   110   54   55 am   BACKBONE|DICT|INTERRES
   111   54  179 1    
   112   55   56 2    
   113   55   57 1    
   114   57   58 1    
   115   57   59 1    
   116   57  180 1    
   117   58  181 1    
   118   58  182 1    
   119   58  183 1    
   120   59   60 am   BACKBONE|DICT|INTERRES
   121   59  184 1    
   122   60   61 2    
   123   60   62 1    
   124   62   63 1    
   125   62   64 1    
   126   62  185 1    
   127   63  186 1    
   128   63  187 1    
   129   63  188 1    
   130   64   65 am   BACKBONE|DICT|INTERRES
   131   64  189 1    
   132   65   66 2    
   133   67   68 2    
   134   67   69 am   BACKBONE|DICT|INTERRES
   135   69   70 1    
   136   69  190 1    
   137   70   71 1    
   138   70   72 1    
   139   70  191 1    
   140   71  192 1    
   141   71  193 1    
   142   71  194 1    
   143   72   73 2    
   144   72   74 am   BACKBONE|DICT|INTERRES
   145   74   75 1    
   146   74  195 1    
   147   75   76 1    
   148   75   77 1    
   149   75  196 1    
   150   76  197 1    
   151   76  198 1    
   152   76  199 1    
   153   77   78 2    
   154   77   79 am   BACKBONE|DICT|INTERRES
   155   79   80 1    
   156   79  200 1    
   157   80   81 1    
   158   80   82 1    
   159   80  201 1    
   160   81  202 1    
   161   81  203 1    
   162   81  204 1    
   163   82   83 2    
   164   82   84 am   BACKBONE|DICT|INTERRES
   165   84   85 1    
   166   84  205 1    
   167   85   86 1    
   168   85   87 1    
   169   85  206 1    
   170   86  207 1    
   171   86  208 1    
   172   86  209 1    
   173   87   88 2    
   174   87   89 am   BACKBONE|DICT|INTERRES
   175   89   90 1    
   176   89  210 1    
   177   90   91 1    
   178   90   92 1    
   179   90  211 1    
   180   91  212 1    
   181   91  213 1    
   182   91  214 1    
   183   92   93 2    
   184   92   94 am   BACKBONE|DICT|INTERRES
   185   94   95 1    
   186   94  215 1    
   187   95   96 1    
   188   95   97 1    
   189   95  216 1    
   190   96  217 1    
   191   96  218 1    
   192   96  219 1    
   193   97   98 2    
   194   97   99 am   BACKBONE|DICT|INTERRES
   195   99  100 1    
   196   99  220 1    
   197  100  101 1    
   198  100  102 1    
   199  100  221 1    
   200  101  222 1    
   201  101  223 1    
   202  101  224 1    
   203  102  103 2    
   204  102  104 am   BACKBONE|DICT|INTERRES
   205  104  105 1    
   206  104  225 1    
   207  105  106 1    
   208  105  107 1    
   209  105  226 1    
   210  106  227 1    
   211  106  228 1    
   212  106  229 1    
   213  107  108 2    
   214  107  109 am   BACKBONE|DICT|INTERRES
   215  109  110 1    
   216  109  230 1    
   217  110  111 1    
   218  110  112 1    
   219  110  231 1    
   220  111  232 1    
   221  111  233 1    
   222  111  234 1    
   223  112  113 2    
   224  112  114 am   BACKBONE|DICT|INTERRES
   225  114  115 1    
   226  114  235 1    
   227  115  116 1    
   228  115  117 1    
   229  115  236 1    
   230  116  237 1    
   231  116  238 1    
   232  116  239 1    
   233  117  118 2    
   234  117  119 am   BACKBONE|DICT|INTERRES
   235  119  120 1    
   236  119  240 1    
   237  120  121 1    
   238  120  124 1    
   239  120  241 1    
   240  121  122 am   BACKBONE|DICT|INTERRES
   241  121  123 2    
   242  122  242 1    
   243  122  243 1    
   244  124  125 1    
   245  124  244 1    
   246  124  245 1    
   247  125  126 1    
   248  126  246 1    
   249  126  247 1    
@<TRIPOS>SUBSTRUCTURE
     1 UNK         1 GROUP             0       ****    0 ROOT    
