@<TRIPOS>MOLECULE
3R540
247   249    1
SMALL
USER_CHARGES


@<TRIPOS>ATOM
      1 CA         -0.1872  -13.3547  -52.0891 C.3       0 UNK        -0.1800 
      2 C           0.2038  -14.3792  -51.0344 C.2       0 UNK         0.5000 
      3 O           1.0161  -15.2611  -51.3080 O.2       0 UNK        -0.5000 
      4 N          -0.3581  -14.2557  -49.8253 N.am      1 UNK        -0.5000 
      5 CA         -0.1708  -15.1841  -48.6981 C.3       1 UNK         0.1400 
      6 C6         -1.3575  -15.1443  -47.6957 C.3       23 UNK        -0.0398 
      7 S7         -3.0200  -15.1287  -48.4513 S.3       23 UNK        -0.2404 
      8 C8         -3.4383  -16.9037  -48.5032 C.3       23 UNK        -0.0205 
      9 C9         -2.6149  -17.7010  -49.5101 C.ar      23 UNK        -0.0193 
     10 C10        -2.3216  -17.1788  -50.7759 C.ar      23 UNK        -0.1150 
     11 C11        -1.5702  -17.9141  -51.6946 C.ar      23 UNK        -0.0193 
     12 C12        -1.1436  -19.1998  -51.3571 C.ar      23 UNK        -0.1150 
     13 C13        -1.4605  -19.7514  -50.1131 C.ar      23 UNK        -0.0193 
     14 C14        -2.1797  -18.9907  -49.1854 C.ar      23 UNK        -0.1150 
     15 C15        -1.0776  -21.1912  -49.8132 C.3       23 UNK        -0.0205 
     16 S16         0.6388  -21.3303  -49.2309 S.3       23 UNK        -0.2404 
     17 C17         0.4339  -21.0570  -47.4417 C.3       23 UNK        -0.0398 
     18 CA          0.5808  -22.3608  -46.6187 C.3       11 UNK         0.1400 
     19 N           0.9410  -22.0745  -45.2280 N.am      11 UNK        -0.5000 
     20 C           1.3068  -22.9929  -44.3237 C.2       10 UNK         0.5000 
     21 O           1.4274  -24.1906  -44.5764 O.2       10 UNK        -0.5000 
     22 CA          1.5294  -22.4984  -42.8832 C.3       10 UNK         0.1400 
     23 CB          2.9330  -21.8962  -42.7244 C.3       10 UNK        -0.1800 
     24 N           0.5174  -21.5299  -42.4552 N.am      10 UNK        -0.5000 
     25 C          -0.7895  -21.8071  -42.3389 C.2       9 UNK         0.5000 
     26 O          -1.2686  -22.9209  -42.5411 O.2       9 UNK        -0.5000 
     27 CA         -1.7313  -20.6455  -41.9814 C.3       9 UNK         0.1400 
     28 CB         -1.7019  -20.3643  -40.4721 C.3       9 UNK        -0.1800 
     29 N          -1.4287  -19.4214  -42.7208 N.am      9 UNK        -0.5000 
     30 C          -1.5016  -19.2906  -44.0537 C.2       8 UNK         0.5000 
     31 O          -1.8633  -20.1884  -44.8158 O.2       8 UNK        -0.5000 
     32 CA         -1.0321  -17.9428  -44.6333 C.3       8 UNK         0.1400 
     33 CB         -2.0896  -16.8505  -44.4046 C.3       8 UNK        -0.1800 
     34 N           0.2473  -17.5153  -44.0651 N.am      8 UNK        -0.5000 
     35 C           1.3919  -18.2076  -44.1638 C.2       7 UNK         0.5000 
     36 O           1.5060  -19.2584  -44.7944 O.2       7 UNK        -0.5000 
     37 CA          2.5932  -17.6789  -43.3633 C.3       7 UNK         0.1400 
     38 CB          3.3215  -16.5626  -44.1237 C.3       7 UNK        -0.1800 
     39 N           2.1964  -17.2113  -42.0350 N.am      7 UNK        -0.5000 
     40 C           1.8065  -18.0240  -41.0416 C.2       6 UNK         0.5000 
     41 O           1.7789  -19.2502  -41.1344 O.2       6 UNK        -0.5000 
     42 CA          1.3287  -17.3550  -39.7402 C.3       6 UNK         0.1400 
     43 CB          2.5231  -17.0108  -38.8382 C.3       6 UNK        -0.1800 
     44 N           0.5437  -16.1463  -39.9875 N.am      6 UNK        -0.5000 
     45 C          -0.6531  -16.1264  -40.5919 C.2       5 UNK         0.5000 
     46 O          -1.2529  -17.1374  -40.9534 O.2       5 UNK        -0.5000 
     47 CA         -1.2515  -14.7393  -40.8903 C.3       5 UNK         0.1400 
     48 CB         -2.1060  -14.2533  -39.7105 C.3       5 UNK        -0.1800 
     49 N          -0.2262  -13.7377  -41.1962 N.am      5 UNK        -0.5000 
     50 C           0.5781  -13.7849  -42.2661 C.2       4 UNK         0.5000 
     51 O           0.5259  -14.6713  -43.1219 O.2       4 UNK        -0.5000 
     52 CA          1.6701  -12.7056  -42.3445 C.3       4 UNK         0.1400 
     53 CB          3.0142  -13.2670  -41.8557 C.3       4 UNK        -0.1800 
     54 N           1.8345  -12.1903  -43.7001 N.am      4 UNK        -0.5000 
     55 C           0.9597  -11.4019  -44.3312 C.2       3 UNK         0.5000 
     56 O          -0.1016  -11.0280  -43.8294 O.2       3 UNK        -0.5000 
     57 CA          1.3289  -10.9191  -45.7475 C.3       3 UNK         0.1400 
     58 CB          2.2832   -9.7112  -45.6833 C.3       3 UNK        -0.1800 
     59 N           1.8413  -11.9477  -46.6631 N.am      3 UNK        -0.5000 
     60 C           2.9783  -12.6594  -46.6138 C.2       2 UNK         0.5000 
     61 O           3.7855  -12.6075  -45.6842 O.2       2 UNK        -0.5000 
     62 CA          3.2572  -13.5568  -47.8395 C.3       2 UNK         0.1400 
     63 CB          4.2806  -14.6775  -47.5645 C.3       2 UNK        -0.1800 
     64 N           2.0262  -14.0735  -48.4519 N.am      2 UNK        -0.5000 
     65 C           1.1626  -14.9651  -47.9397 C.2       1 UNK         0.5000 
     66 O           1.3569  -15.5709  -46.8866 O.2       1 UNK        -0.5000 
     67 C          -0.6734  -23.2598  -46.7119 C.2       11 UNK         0.5000 
     68 O          -0.6759  -24.2332  -47.4681 O.2       11 UNK        -0.5000 
     69 N          -1.6958  -22.9503  -45.9011 N.am      12 UNK        -0.5000 
     70 CA         -2.9139  -23.7494  -45.7708 C.3       12 UNK         0.1400 
     71 CB         -3.9535  -22.9731  -44.9491 C.3       12 UNK        -0.1800 
     72 C          -2.6502  -25.1413  -45.1634 C.2       12 UNK         0.5000 
     73 O          -3.1689  -26.1317  -45.6780 O.2       12 UNK        -0.5000 
     74 N          -1.8187  -25.2051  -44.1129 N.am      13 UNK        -0.5000 
     75 CA         -1.3975  -26.4415  -43.4444 C.3       13 UNK         0.1400 
     76 CB         -0.6218  -26.0978  -42.1644 C.3       13 UNK        -0.1800 
     77 C          -0.5653  -27.3729  -44.3466 C.2       13 UNK         0.5000 
     78 O          -0.6657  -28.5931  -44.2152 O.2       13 UNK        -0.5000 
     79 N           0.2029  -26.7869  -45.2752 N.am      14 UNK        -0.5000 
     80 CA          0.9366  -27.4862  -46.3330 C.3       14 UNK         0.1400 
     81 CB          2.0082  -26.5427  -46.9038 C.3       14 UNK        -0.1800 
     82 C           0.0304  -28.0342  -47.4585 C.2       14 UNK         0.5000 
     83 O           0.5318  -28.7352  -48.3385 O.2       14 UNK        -0.5000 
     84 N          -1.2722  -27.7130  -47.4149 N.am      15 UNK        -0.5000 
     85 CA         -2.3338  -28.1214  -48.3389 C.3       15 UNK         0.1400 
     86 CB         -2.5100  -29.6548  -48.3486 C.3       15 UNK        -0.1800 
     87 C          -2.1916  -27.5177  -49.7500 C.2       15 UNK         0.5000 
     88 O          -2.7087  -28.0861  -50.7142 O.2       15 UNK        -0.5000 
     89 N          -1.5214  -26.3626  -49.8510 N.am      16 UNK        -0.5000 
     90 CA         -1.4657  -25.5571  -51.0671 C.3       16 UNK         0.1400 
     91 CB         -0.2319  -24.6467  -51.0047 C.3       16 UNK        -0.1800 
     92 C          -2.7586  -24.7349  -51.2141 C.2       16 UNK         0.5000 
     93 O          -3.3455  -24.3296  -50.2069 O.2       16 UNK        -0.5000 
     94 N          -3.1791  -24.5010  -52.4637 N.am      17 UNK        -0.5000 
     95 CA         -4.3587  -23.7039  -52.8022 C.3       17 UNK         0.1400 
     96 CB         -4.6691  -23.8619  -54.2993 C.3       17 UNK        -0.1800 
     97 C          -4.1462  -22.2250  -52.4352 C.2       17 UNK         0.5000 
     98 O          -3.1838  -21.6186  -52.9092 O.2       17 UNK        -0.5000 
     99 N          -5.0292  -21.6901  -51.5863 N.am      18 UNK        -0.5000 
    100 CA        -4.9694  -20.3158  -51.1036 C.3       18 UNK         0.1400 
    101 CB        -5.4921  -20.2666  -49.6592 C.3       18 UNK        -0.1800 
    102 C         -5.7769  -19.3811  -52.0123 C.2       18 UNK         0.5000 
    103 O         -6.9139  -19.7074  -52.3629 O.2       18 UNK        -0.5000 
    104 N         -5.1811  -18.2248  -52.3319 N.am      19 UNK        -0.5000 
    105 CA        -5.7249  -17.1475  -53.1620 C.3       19 UNK         0.1400 
    106 CB        -6.8539  -16.4105  -52.4082 C.3       19 UNK        -0.1800 
    107 C         -6.1123  -17.6320  -54.5775 C.2       19 UNK         0.5000 
    108 O         -5.3619  -18.4083  -55.1725 O.2       19 UNK        -0.5000 
    109 N         -7.2464  -17.1489  -55.1085 N.am      20 UNK        -0.5000 
    110 CA        -7.7782  -17.4217  -56.4481 C.3       20 UNK         0.1400 
    111 CB        -8.2785  -18.8805  -56.5490 C.3       20 UNK        -0.1800 
    112 C         -6.7578  -17.0294  -57.5354 C.2       20 UNK         0.5000 
    113 O         -6.5615  -15.8352  -57.7674 O.2       20 UNK        -0.5000 
    114 N         -6.0828  -18.0235  -58.1281 N.am      21 UNK        -0.5000 
    115 CA        -5.0061  -17.8643  -59.1082 C.3       21 UNK         0.1400 
    116 CB        -4.5687  -19.2538  -59.5962 C.3       21 UNK        -0.1800 
    117 C         -3.7891  -17.0663  -58.5938 C.2       21 UNK         0.5000 
    118 O         -3.1108  -16.4334  -59.4044 O.2       21 UNK        -0.5000 
    119 N         -3.5483  -17.0868  -57.2754 N.am      22 UNK        -0.5000 
    120 CA        -2.5352  -16.2654  -56.5919 C.3       22 UNK         0.1400 
    121 C         -3.1441  -15.1078  -55.7452 C.2       22 UNK         0.5000 
    122 N         -4.4228  -14.7754  -55.8888 N.am      22 UNK        -0.7600 
    123 O         -2.4418  -14.4757  -54.9621 O.2       22 UNK        -0.5000 
    124 C124       -1.5007  -17.1332  -55.8258 C.3       23 UNK        -0.0398 
    125 S125       -2.1633  -18.0595  -54.3970 S.3       23 UNK        -0.2404 
    126 C126       -1.2048  -17.3163  -53.0433 C.3       23 UNK        -0.0205 
    127 H127       -0.9734  -12.6877  -51.7349 H         1 UNK         0.0600 
    128 H128       -0.5497  -13.8578  -52.9853 H         1 UNK         0.0600 
    129 H129        0.6768  -12.7498  -52.3639 H         1 UNK         0.0600 
    130 H130       -1.0265  -13.5152  -49.6651 H         1 UNK         0.3000 
    131 H131       -0.1230  -16.1958  -49.1059 H         1 UNK         0.0600 
    132 H132       -1.2936  -15.9982  -47.0223 H         1 UNK         0.0800 
    133 H133       -1.2920  -14.2572  -47.0629 H         1 UNK         0.0800 
    134 H134       -3.3365  -17.3222  -47.5009 H         1 UNK         0.0800 
    135 H135       -4.4908  -16.9991  -48.7716 H         1 UNK         0.0800 
    136 H136       -2.6618  -16.1880  -51.0420 H         1 UNK         0.1150 
    137 H137       -0.5848  -19.7827  -52.0760 H         1 UNK         0.1150 
    138 H138       -2.4303  -19.4164  -48.2238 H         1 UNK         0.1150 
    139 H139       -1.7644  -21.6354  -49.0908 H         1 UNK         0.0800 
    140 H140       -1.1866  -21.7817  -50.7240 H         1 UNK         0.0800 
    141 H141        1.2172  -20.3533  -47.1589 H         1 UNK         0.0800 
    142 H142       -0.5070  -20.5492  -47.2265 H         1 UNK         0.0800 
    143 H143        1.4144  -22.9305  -47.0357 H         1 UNK         0.0600 
    144 H144        0.9164  -21.0983  -44.9458 H         1 UNK         0.3000 
    145 H145        1.4593  -23.3639  -42.2217 H         1 UNK         0.0600 
    146 H146        3.1301  -21.6249  -41.6872 H         1 UNK         0.0600 
    147 H147        3.7005  -22.6106  -43.0245 H         1 UNK         0.0600 
    148 H148        3.0601  -21.0020  -43.3345 H         1 UNK         0.0600 
    149 H149        0.8494  -20.6007  -42.2151 H         1 UNK         0.3000 
    150 H150       -2.7456  -20.9488  -42.2487 H         1 UNK         0.0600 
    151 H151       -1.9401  -21.2633  -39.9022 H         1 UNK         0.0600 
    152 H152       -2.4330  -19.6032  -40.1992 H         1 UNK         0.0600 
    153 H153       -0.7212  -20.0178  -40.1455 H         1 UNK         0.0600 
    154 H154       -1.1633  -18.6133  -42.1641 H         1 UNK         0.3000 
    155 H155       -0.8890  -18.0677  -45.7085 H         1 UNK         0.0600 
    156 H156       -1.7341  -15.8735  -44.7313 H         1 UNK         0.0600 
    157 H157       -2.3626  -16.7624  -43.3535 H         1 UNK         0.0600 
    158 H158       -3.0019  -17.0721  -44.9592 H         1 UNK         0.0600 
    159 H159        0.2603  -16.6274  -43.5737 H         1 UNK         0.3000 
    160 H160        3.2964  -18.5044  -43.2344 H         1 UNK         0.0600 
    161 H161        2.6715  -15.7102  -44.3236 H         1 UNK         0.0600 
    162 H162        3.6784  -16.9320  -45.0852 H         1 UNK         0.0600 
    163 H163        4.1901  -16.2056  -43.5708 H         1 UNK         0.0600 
    164 H164        2.1349  -16.2134  -41.9037 H         1 UNK         0.3000 
    165 H165        0.6943  -18.0692  -39.2110 H         1 UNK         0.0600 
    166 H166        3.1836  -16.2779  -39.3033 H         1 UNK         0.0600 
    167 H167        2.1912  -16.6054  -37.8822 H         1 UNK         0.0600 
    168 H168        3.1181  -17.8997  -38.6238 H         1 UNK         0.0600 
    169 H169        0.9586  -15.2681  -39.7145 H         1 UNK         0.3000 
    170 H170       -1.8985  -14.8381  -41.7643 H         1 UNK         0.0600 
    171 H171       -2.8909  -14.9736  -39.4753 H         1 UNK         0.0600 
    172 H172       -1.5082  -14.1131  -38.8091 H         1 UNK         0.0600 
    173 H173       -2.5945  -13.3064  -39.9411 H         1 UNK         0.0600 
    174 H174       -0.1241  -12.9809  -40.5352 H         1 UNK         0.3000 
    175 H175        1.3909  -11.8723  -41.6962 H         1 UNK         0.0600 
    176 H176        3.7797  -12.4910  -41.8376 H         1 UNK         0.0600 
    177 H177        2.9319  -13.6644  -40.8433 H         1 UNK         0.0600 
    178 H178        3.3727  -14.0708  -42.4986 H         1 UNK         0.0600 
    179 H179        2.6678  -12.4698  -44.2114 H         1 UNK         0.3000 
    180 H180        0.4001  -10.5692  -46.2011 H         1 UNK         0.0600 
    181 H181        2.4705   -9.3035  -46.6767 H         1 UNK         0.0600 
    182 H182        1.8565   -8.9098  -45.0789 H         1 UNK         0.0600 
    183 H183        3.2449   -9.9739  -45.2416 H         1 UNK         0.0600 
    184 H184        1.2526  -12.1139  -47.4662 H         1 UNK         0.3000 
    185 H185        3.7028  -12.8982  -48.5862 H         1 UNK         0.0600 
    186 H186        4.4438  -15.2898  -48.4513 H         1 UNK         0.0600 
    187 H187        5.2459  -14.2610  -47.2751 H         1 UNK         0.0600 
    188 H188        3.9573  -15.3330  -46.7581 H         1 UNK         0.0600 
    189 H189        1.7757  -13.6610  -49.3395 H         1 UNK         0.3000 
    190 H190       -1.6349  -22.1136  -45.3286 H         1 UNK         0.3000 
    191 H191       -3.3207  -23.8984  -46.7736 H         1 UNK         0.0600 
    192 H192       -4.8843  -23.5354  -44.8665 H         1 UNK         0.0600 
    193 H193       -4.1901  -22.0172  -45.4170 H         1 UNK         0.0600 
    194 H194       -3.6009  -22.7705  -43.9378 H         1 UNK         0.0600 
    195 H195       -1.4787  -24.3362  -43.7061 H         1 UNK         0.3000 
    196 H196       -2.3001  -26.9848  -43.1576 H         1 UNK         0.0600 
    197 H197       -0.3213  -27.0022  -41.6339 H         1 UNK         0.0600 
    198 H198       -1.2311  -25.5074  -41.4800 H         1 UNK         0.0600 
    199 H199        0.2824  -25.5301  -42.3840 H         1 UNK         0.0600 
    200 H200        0.2884  -25.7760  -45.2615 H         1 UNK         0.3000 
    201 H201        1.4453  -28.3424  -45.8858 H         1 UNK         0.0600 
    202 H202        2.6868  -26.1987  -46.1231 H         1 UNK         0.0600 
    203 H203        1.5647  -25.6643  -47.3722 H         1 UNK         0.0600 
    204 H204        2.6133  -27.0458  -47.6590 H         1 UNK         0.0600 
    205 H205       -1.5841  -27.1131  -46.6601 H         1 UNK         0.3000 
    206 H206       -3.2533  -27.6970  -47.9343 H         1 UNK         0.0600 
    207 H207       -2.6076  -30.0466  -47.3361 H         1 UNK         0.0600 
    208 H208       -3.4103  -29.9411  -48.8933 H         1 UNK         0.0600 
    209 H209       -1.6687  -30.1585  -48.8250 H         1 UNK         0.0600 
    210 H210       -1.1842  -25.9199  -49.0048 H         1 UNK         0.3000 
    211 H211       -1.3631  -26.2150  -51.9328 H         1 UNK         0.0600 
    212 H212       -0.2501  -24.0150  -50.1180 H         1 UNK         0.0600 
    213 H213       -0.1771  -23.9934  -51.8764 H         1 UNK         0.0600 
    214 H214        0.6873  -25.2317  -50.9755 H         1 UNK         0.0600 
    215 H215       -2.6283  -24.8364  -53.2403 H         1 UNK         0.3000 
    216 H216       -5.2071  -24.0959  -52.2371 H         1 UNK         0.0600 
    217 H217       -5.5520  -23.2844  -54.5761 H         1 UNK         0.0600 
    218 H218       -4.8684  -24.9030  -54.5539 H         1 UNK         0.0600 
    219 H219       -3.8428  -23.5154  -54.9215 H         1 UNK         0.0600 
    220 H220       -5.8129  -22.2415  -51.2691 H         1 UNK         0.3000 
    221 H221       -3.9340  -19.9821  -51.1017 H         1 UNK         0.0600 
    222 H222       -6.5238  -20.6137  -49.5905 H         1 UNK         0.0600 
    223 H223       -4.8832  -20.8863  -49.0003 H         1 UNK         0.0600 
    224 H224       -5.4617  -19.2495  -49.2678 H         1 UNK         0.0600 
    225 H225       -4.2229  -18.0923  -52.0384 H         1 UNK         0.3000 
    226 H226       -4.9074  -16.4391  -53.3042 H         1 UNK         0.0600 
    227 H227       -6.5233  -16.1061  -51.4149 H         1 UNK         0.0600 
    228 H228       -7.1557  -15.5026  -52.9315 H         1 UNK         0.0600 
    229 H229       -7.7379  -17.0372  -52.2836 H         1 UNK         0.0600 
    230 H230       -7.7833  -16.4964  -54.5553 H         1 UNK         0.3000 
    231 H231       -8.6404  -16.7674  -56.5849 H         1 UNK         0.0600 
    232 H232       -7.4907  -19.6087  -56.3540 H         1 UNK         0.0600 
    233 H233       -9.0759  -19.0650  -55.8290 H         1 UNK         0.0600 
    234 H234       -8.6866  -19.0879  -57.5391 H         1 UNK         0.0600 
    235 H235       -6.2747  -18.9674  -57.8252 H         1 UNK         0.3000 
    236 H236       -5.4169  -17.3166  -59.9588 H         1 UNK         0.0600 
    237 H237       -4.1771  -19.8608  -58.7788 H         1 UNK         0.0600 
    238 H238       -5.4004  -19.7941  -60.0487 H         1 UNK         0.0600 
    239 H239       -3.7853  -19.1748  -60.3511 H         1 UNK         0.0600 
    240 H240       -4.1530  -17.6315  -56.6677 H         1 UNK         0.3000 
    241 H241       -1.9550  -15.7334  -57.3472 H         1 UNK         0.0600 
    242 H242       -5.0106  -15.2236  -56.5818 H         1 UNK         0.3800 
    243 H243       -4.7866  -14.0033  -55.3540 H         1 UNK         0.3800 
    244 H244       -1.0624  -17.8581  -56.5127 H         1 UNK         0.0800 
    245 H245       -0.6666  -16.5092  -55.5009 H         1 UNK         0.0800 
    246 H246       -0.1391  -17.4646  -53.2243 H         1 UNK         0.0800 
    247 H247       -1.3707  -16.2384  -53.0394 H         1 UNK         0.0800 
@<TRIPOS>BOND
     1    1    2 1    
     2    1  127 1    
     3    1  128 1    
     4    1  129 1    
     5    2    3 2    
     6    2    4 am   BACKBONE|DICT|INTERRES
     7    4    5 1    
     8    4  130 1    
     9    5    6 1    
    10    5   65 1    
    11    5  131 1    
    12    6    7 1    
    13    6  132 1    
    14    6  133 1    
    15    7    8 1    
    16    8    9 1    
    17    8  134 1    
    18    8  135 1    
    19    9   10 ar   
    20    9   14 ar   
    21   10   11 ar   
    22   10  136 1    
    23   11   12 ar   
    24   11  126 1    
    25   12   13 ar   
    26   12  137 1    
    27   13   14 ar   
    28   13   15 1    
    29   14  138 1    
    30   15   16 1    
    31   15  139 1    
    32   15  140 1    
    33   16   17 1    
    34   17   18 1    
    35   17  141 1    
    36   17  142 1    
    37   18   19 1    
    38   18   67 1    
    39   18  143 1    
    40   19   20 am   BACKBONE|DICT|INTERRES
    41   19  144 1    
    42   20   21 2    
    43   20   22 1    
    44   22   23 1    
    45   22   24 1    
    46   22  145 1    
    47   23  146 1    
    48   23  147 1    
    49   23  148 1    
    50   24   25 am   BACKBONE|DICT|INTERRES
    51   24  149 1    
    52   25   26 2    
    53   25   27 1    
    54   27   28 1    
    55   27   29 1    
    56   27  150 1    
    57   28  151 1    
    58   28  152 1    
    59   28  153 1    
    60   29   30 am   BACKBONE|DICT|INTERRES
    61   29  154 1    
    62   30   31 2    
    63   30   32 1    
    64   32   33 1    
    65   32   34 1    
    66   32  155 1    
    67   33  156 1    
    68   33  157 1    
    69   33  158 1    
    70   34   35 am   BACKBONE|DICT|INTERRES
    71   34  159 1    
    72   35   36 2    
    73   35   37 1    
    74   37   38 1    
    75   37   39 1    
    76   37  160 1    
    77   38  161 1    
    78   38  162 1    
    79   38  163 1    
    80   39   40 am   BACKBONE|DICT|INTERRES
    81   39  164 1    
    82   40   41 2    
    83   40   42 1    
    84   42   43 1    
    85   42   44 1    
    86   42  165 1    
    87   43  166 1    
    88   43  167 1    
    89   43  168 1    
    90   44   45 am   BACKBONE|DICT|INTERRES
    91   44  169 1    
    92   45   46 2    
    93   45   47 1    
    94   47   48 1    
    95   47   49 1    
    96   47  170 1    
    97   48  171 1    
    98   48  172 1    
    99   48  173 1    
   100   49   50 am   BACKBONE|DICT|INTERRES
   101   49  174 1    
   102   50   51 2    
   103   50   52 1    
   104   52   53 1    
   105   52   54 1    
   106   52  175 1    
   107   53  176 1    
   108   53  177 1    
   109   53  178 1    
   110   54   55 am   BACKBONE|DICT|INTERRES
   111   54  179 1    
   112   55   56 2    
   113   55   57 1    
   114   57   58 1    
   115   57   59 1    
   116   57  180 1    
   117   58  181 1    
   118   58  182 1    
   119   58  183 1    
   120   59   60 am   BACKBONE|DICT|INTERRES
   121   59  184 1    
   122   60   61 2    
   123   60   62 1    
   124   62   63 1    
   125   62   64 1    
   126   62  185 1    
   127   63  186 1    
   128   63  187 1    
   129   63  188 1    
   130   64   65 am   BACKBONE|DICT|INTERRES
   131   64  189 1    
   132   65   66 2    
   133   67   68 2    
   134   67   69 am   BACKBONE|DICT|INTERRES
   135   69   70 1    
   136   69  190 1    
   137   70   71 1    
   138   70   72 1    
   139   70  191 1    
   140   71  192 1    
   141   71  193 1    
   142   71  194 1    
   143   72   73 2    
   144   72   74 am   BACKBONE|DICT|INTERRES
   145   74   75 1    
   146   74  195 1    
   147   75   76 1    
   148   75   77 1    
   149   75  196 1    
   150   76  197 1    
   151   76  198 1    
   152   76  199 1    
   153   77   78 2    
   154   77   79 am   BACKBONE|DICT|INTERRES
   155   79   80 1    
   156   79  200 1    
   157   80   81 1    
   158   80   82 1    
   159   80  201 1    
   160   81  202 1    
   161   81  203 1    
   162   81  204 1    
   163   82   83 2    
   164   82   84 am   BACKBONE|DICT|INTERRES
   165   84   85 1    
   166   84  205 1    
   167   85   86 1    
   168   85   87 1    
   169   85  206 1    
   170   86  207 1    
   171   86  208 1    
   172   86  209 1    
   173   87   88 2    
   174   87   89 am   BACKBONE|DICT|INTERRES
   175   89   90 1    
   176   89  210 1    
   177   90   91 1    
   178   90   92 1    
   179   90  211 1    
   180   91  212 1    
   181   91  213 1    
   182   91  214 1    
   183   92   93 2    
   184   92   94 am   BACKBONE|DICT|INTERRES
   185   94   95 1    
   186   94  215 1    
   187   95   96 1    
   188   95   97 1    
   189   95  216 1    
   190   96  217 1    
   191   96  218 1    
   192   96  219 1    
   193   97   98 2    
   194   97   99 am   BACKBONE|DICT|INTERRES
   195   99  100 1    
   196   99  220 1    
   197  100  101 1    
   198  100  102 1    
   199  100  221 1    
   200  101  222 1    
   201  101  223 1    
   202  101  224 1    
   203  102  103 2    
   204  102  104 am   BACKBONE|DICT|INTERRES
   205  104  105 1    
   206  104  225 1    
   207  105  106 1    
   208  105  107 1    
   209  105  226 1    
   210  106  227 1    
   211  106  228 1    
   212  106  229 1    
   213  107  108 2    
   214  107  109 am   BACKBONE|DICT|INTERRES
   215  109  110 1    
   216  109  230 1    
   217  110  111 1    
   218  110  112 1    
   219  110  231 1    
   220  111  232 1    
   221  111  233 1    
   222  111  234 1    
   223  112  113 2    
   224  112  114 am   BACKBONE|DICT|INTERRES
   225  114  115 1    
   226  114  235 1    
   227  115  116 1    
   228  115  117 1    
   229  115  236 1    
   230  116  237 1    
   231  116  238 1    
   232  116  239 1    
   233  117  118 2    
   234  117  119 am   BACKBONE|DICT|INTERRES
   235  119  120 1    
   236  119  240 1    
   237  120  121 1    
   238  120  124 1    
   239  120  241 1    
   240  121  122 am   BACKBONE|DICT|INTERRES
   241  121  123 2    
   242  122  242 1    
   243  122  243 1    
   244  124  125 1    
   245  124  244 1    
   246  124  245 1    
   247  125  126 1    
   248  126  246 1    
   249  126  247 1    
@<TRIPOS>SUBSTRUCTURE
     1 UNK         1 GROUP             0       ****    0 ROOT    
