@<TRIPOS>MOLECULE
3R540
247   249    1
SMALL
USER_CHARGES


@<TRIPOS>ATOM
      1 CA         -3.6317  -14.9525  -51.6563 C.3       0 UNK        -0.1800 
      2 C          -2.8703  -14.4147  -50.4530 C.2       0 UNK         0.5000 
      3 O          -2.4968  -13.2417  -50.4372 O.2       0 UNK        -0.5000 
      4 N          -2.6332  -15.2690  -49.4512 N.am      1 UNK        -0.5000 
      5 CA         -1.9546  -14.9202  -48.2014 C.3       1 UNK         0.1400 
      6 C6         -1.4649  -16.1796  -47.4419 C.3       23 UNK        -0.0398 
      7 S7         -0.0713  -17.0209  -48.2621 S.3       23 UNK        -0.2404 
      8 C8         -0.9282  -18.3555  -49.1511 C.3       23 UNK        -0.0205 
      9 C9          0.0541  -19.2681  -49.8688 C.ar      23 UNK        -0.0193 
     10 C10         0.6550  -18.8519  -51.0596 C.ar      23 UNK        -0.1150 
     11 C11         1.5092  -19.7058  -51.7624 C.ar      23 UNK        -0.0193 
     12 C12         1.7858  -20.9769  -51.2505 C.ar      23 UNK        -0.1150 
     13 C13         1.1947  -21.4044  -50.0585 C.ar      23 UNK        -0.0193 
     14 C14         0.3330  -20.5439  -49.3713 C.ar      23 UNK        -0.1150 
     15 C15         1.4277  -22.8169  -49.5466 C.3       23 UNK        -0.0205 
     16 S16         2.4123  -22.8496  -48.0173 S.3       23 UNK        -0.2404 
     17 C17         1.9039  -24.4751  -47.3447 C.3       23 UNK        -0.0398 
     18 CA          0.8887  -24.3913  -46.1765 C.3       11 UNK         0.1400 
     19 N           1.4650  -23.7141  -45.0078 N.am      11 UNK        -0.5000 
     20 C           0.9164  -23.6064  -43.7903 C.2       10 UNK         0.5000 
     21 O          -0.1741  -24.0981  -43.4975 O.2       10 UNK        -0.5000 
     22 CA          1.6698  -22.7604  -42.7432 C.3       10 UNK         0.1400 
     23 CB          2.6626  -23.6180  -41.9373 C.3       10 UNK        -0.1800 
     24 N           2.3104  -21.5526  -43.2843 N.am      10 UNK        -0.5000 
     25 C           3.3530  -21.4475  -44.1221 C.2       9 UNK         0.5000 
     26 O           3.9647  -22.4110  -44.5842 O.2       9 UNK        -0.5000 
     27 CA          3.7589  -20.0263  -44.5452 C.3       9 UNK         0.1400 
     28 CB          2.8914  -19.5570  -45.7251 C.3       9 UNK        -0.1800 
     29 N           3.6670  -19.0536  -43.4563 N.am      9 UNK        -0.5000 
     30 C           4.4699  -19.0228  -42.3836 C.2       8 UNK         0.5000 
     31 O           5.3859  -19.8233  -42.1901 O.2       8 UNK        -0.5000 
     32 CA          4.2083  -17.9082  -41.3526 C.3       8 UNK         0.1400 
     33 CB          4.8043  -16.5725  -41.8236 C.3       8 UNK        -0.1800 
     34 N           2.7853  -17.7328  -41.0640 N.am      8 UNK        -0.5000 
     35 C           2.0438  -18.6040  -40.3653 C.2       7 UNK         0.5000 
     36 O           2.4949  -19.6240  -39.8434 O.2       7 UNK        -0.5000 
     37 CA          0.5390  -18.2969  -40.2451 C.3       7 UNK         0.1400 
     38 CB          0.2716  -17.3253  -39.0858 C.3       7 UNK        -0.1800 
     39 N          -0.0318  -17.7528  -41.4771 N.am      7 UNK        -0.5000 
     40 C          -0.1027  -18.4179  -42.6390 C.2       6 UNK         0.5000 
     41 O           0.2687  -19.5818  -42.7918 O.2       6 UNK        -0.5000 
     42 CA         -0.6325  -17.6304  -43.8469 C.3       6 UNK         0.1400 
     43 CB         -2.1666  -17.5408  -43.8102 C.3       6 UNK        -0.1800 
     44 N          -0.0695  -16.2859  -43.9259 N.am      6 UNK        -0.5000 
     45 C           1.2275  -15.9929  -44.0822 C.2       5 UNK         0.5000 
     46 O           2.1116  -16.8372  -44.1993 O.2       5 UNK        -0.5000 
     47 CA          1.6051  -14.5042  -44.0468 C.3       5 UNK         0.1400 
     48 CB          1.3565  -13.8421  -45.4105 C.3       5 UNK        -0.1800 
     49 N           0.8755  -13.7840  -43.0033 N.am      5 UNK        -0.5000 
     50 C           1.0628  -13.9639  -41.6882 C.2       4 UNK         0.5000 
     51 O           1.8978  -14.7357  -41.2150 O.2       4 UNK        -0.5000 
     52 CA          0.1379  -13.1694  -40.7478 C.3       4 UNK         0.1400 
     53 CB          0.6758  -11.7467  -40.5335 C.3       4 UNK        -0.1800 
     54 N          -1.2397  -13.0988  -41.2404 N.am      4 UNK        -0.5000 
     55 C          -2.0741  -14.1465  -41.2884 C.2       3 UNK         0.5000 
     56 O          -1.7722  -15.2780  -40.9064 O.2       3 UNK        -0.5000 
     57 CA         -3.4626  -13.8969  -41.9140 C.3       3 UNK         0.1400 
     58 CB         -4.4137  -13.2679  -40.8848 C.3       3 UNK        -0.1800 
     59 N          -3.4448  -13.0720  -43.1310 N.am      3 UNK        -0.5000 
     60 C          -2.7294  -13.3555  -44.2271 C.2       2 UNK         0.5000 
     61 O          -1.9345  -14.2939  -44.2843 O.2       2 UNK        -0.5000 
     62 CA         -2.8902  -12.4310  -45.4505 C.3       2 UNK         0.1400 
     63 CB         -2.1592  -11.0999  -45.2144 C.3       2 UNK        -0.1800 
     64 N          -2.3223  -13.0697  -46.6410 N.am      2 UNK        -0.5000 
     65 C          -2.8871  -14.0958  -47.2903 C.2       1 UNK         0.5000 
     66 O          -4.0622  -14.4410  -47.1411 O.2       1 UNK        -0.5000 
     67 C          -0.4621  -23.7884  -46.6292 C.2       11 UNK         0.5000 
     68 O          -1.2544  -24.4737  -47.2778 O.2       11 UNK        -0.5000 
     69 N          -0.7207  -22.5310  -46.2417 N.am      12 UNK        -0.5000 
     70 CA         -1.9701  -21.7960  -46.4354 C.3       12 UNK         0.1400 
     71 CB         -1.7927  -20.3832  -45.8697 C.3       12 UNK        -0.1800 
     72 C          -3.2023  -22.4757  -45.8089 C.2       12 UNK         0.5000 
     73 O          -4.3144  -22.2327  -46.2725 O.2       12 UNK        -0.5000 
     74 N          -2.9941  -23.3526  -44.8151 N.am      13 UNK        -0.5000 
     75 CA         -4.0312  -24.2154  -44.2454 C.3       13 UNK         0.1400 
     76 CB         -3.4551  -24.9530  -43.0277 C.3       13 UNK        -0.1800 
     77 C          -4.6141  -25.2226  -45.2605 C.2       13 UNK         0.5000 
     78 O          -5.7711  -25.6187  -45.1146 O.2       13 UNK        -0.5000 
     79 N          -3.8157  -25.6042  -46.2676 N.am      14 UNK        -0.5000 
     80 CA         -4.2197  -26.4700  -47.3726 C.3       14 UNK         0.1400 
     81 CB         -3.1269  -27.5244  -47.6118 C.3       14 UNK        -0.1800 
     82 C          -4.4726  -25.6557  -48.6526 C.2       14 UNK         0.5000 
     83 O          -5.4661  -25.9021  -49.3371 O.2       14 UNK        -0.5000 
     84 N          -3.5711  -24.7122  -48.9640 N.am      15 UNK        -0.5000 
     85 CA         -3.5942  -23.9316  -50.2045 C.3       15 UNK         0.1400 
     86 CB         -2.2025  -23.3326  -50.4534 C.3       15 UNK        -0.1800 
     87 C          -4.6638  -22.8257  -50.2444 C.2       15 UNK         0.5000 
     88 O          -5.0252  -22.3964  -51.3407 O.2       15 UNK        -0.5000 
     89 N          -5.1352  -22.3677  -49.0746 N.am      16 UNK        -0.5000 
     90 CA         -6.1024  -21.2824  -48.8851 C.3       16 UNK         0.1400 
     91 CB         -7.5112  -21.7359  -49.3305 C.3       16 UNK        -0.1800 
     92 C          -5.6116  -19.9769  -49.5464 C.2       16 UNK         0.5000 
     93 O          -4.5424  -19.4800  -49.1830 O.2       16 UNK        -0.5000 
     94 N          -6.3601  -19.4685  -50.5336 N.am      17 UNK        -0.5000 
     95 CA         -6.0265  -18.3056  -51.3565 C.3       17 UNK         0.1400 
     96 CB         -7.3201  -17.7609  -51.9879 C.3       17 UNK        -0.1800 
     97 C          -4.9406  -18.6252  -52.4087 C.2       17 UNK         0.5000 
     98 O          -5.1642  -18.4447  -53.6077 O.2       17 UNK        -0.5000 
     99 N          -3.7829  -19.1091  -51.9341 N.am      18 UNK        -0.5000 
    100 CA        -2.5592  -19.4044  -52.6911 C.3       18 UNK         0.1400 
    101 CB        -1.9170  -18.0817  -53.1490 C.3       18 UNK        -0.1800 
    102 C         -2.7739  -20.3898  -53.8607 C.2       18 UNK         0.5000 
    103 O         -2.1693  -20.2339  -54.9263 O.2       18 UNK        -0.5000 
    104 N         -3.7025  -21.3404  -53.6632 N.am      19 UNK        -0.5000 
    105 CA        -4.2046  -22.3346  -54.6199 C.3       19 UNK         0.1400 
    106 CB        -3.1093  -23.3814  -54.9069 C.3       19 UNK        -0.1800 
    107 C         -4.7944  -21.7358  -55.9191 C.2       19 UNK         0.5000 
    108 O         -4.9747  -22.4683  -56.8930 O.2       19 UNK        -0.5000 
    109 N         -5.0421  -20.4144  -55.9269 N.am      20 UNK        -0.5000 
    110 CA        -5.3054  -19.5597  -57.0894 C.3       20 UNK         0.1400 
    111 CB        -6.6993  -19.8587  -57.6784 C.3       20 UNK        -0.1800 
    112 C         -4.1784  -19.6086  -58.1516 C.2       20 UNK         0.5000 
    113 O         -4.4444  -19.3656  -59.3305 O.2       20 UNK        -0.5000 
    114 N         -2.9504  -19.9415  -57.7253 N.am      21 UNK        -0.5000 
    115 CA        -1.8180  -20.2539  -58.5973 C.3       21 UNK         0.1400 
    116 CB        -1.4486  -21.7344  -58.4114 C.3       21 UNK        -0.1800 
    117 C         -0.5939  -19.3680  -58.3225 C.2       21 UNK         0.5000 
    118 O          0.1245  -19.0429  -59.2692 O.2       21 UNK        -0.5000 
    119 N         -0.3665  -18.9975  -57.0562 N.am      22 UNK        -0.5000 
    120 CA         0.8086  -18.2255  -56.6089 C.3       22 UNK         0.1400 
    121 C          0.4505  -16.9297  -55.8270 C.2       22 UNK         0.5000 
    122 N         -0.7896  -16.4588  -55.8726 N.am      22 UNK        -0.7600 
    123 O          1.3110  -16.3192  -55.1988 O.2       22 UNK        -0.5000 
    124 C124        1.8633  -19.1245  -55.9048 C.3       23 UNK        -0.0398 
    125 S125        1.2217  -20.0607  -54.4746 S.3       23 UNK        -0.2404 
    126 C126        2.1011  -19.2693  -53.0925 C.3       23 UNK        -0.0205 
    127 H127       -4.5913  -14.4449  -51.7536 H         1 UNK         0.0600 
    128 H128       -3.0602  -14.7848  -52.5693 H         1 UNK         0.0600 
    129 H129       -3.8177  -16.0214  -51.5683 H         1 UNK         0.0600 
    130 H130       -3.0072  -16.2042  -49.4965 H         1 UNK         0.3000 
    131 H131       -1.0830  -14.3081  -48.4450 H         1 UNK         0.0600 
    132 H132       -2.2831  -16.8832  -47.2780 H         1 UNK         0.0800 
    133 H133       -1.1080  -15.9031  -46.4495 H         1 UNK         0.0800 
    134 H134       -1.6138  -17.9237  -49.8800 H         1 UNK         0.0800 
    135 H135       -1.5438  -18.9280  -48.4566 H         1 UNK         0.0800 
    136 H136        0.4390  -17.8675  -51.4495 H         1 UNK         0.1150 
    137 H137        2.4365  -21.6426  -51.8001 H         1 UNK         0.1150 
    138 H138       -0.1293  -20.8775  -48.4556 H         1 UNK         0.1150 
    139 H139        0.4591  -23.2806  -49.3678 H         1 UNK         0.0800 
    140 H140        1.9235  -23.4289  -50.3016 H         1 UNK         0.0800 
    141 H141        2.8048  -24.9859  -47.0020 H         1 UNK         0.0800 
    142 H142        1.5087  -25.1020  -48.1461 H         1 UNK         0.0800 
    143 H143        0.6704  -25.4140  -45.8628 H         1 UNK         0.0600 
    144 H144        2.3789  -23.2893  -45.1410 H         1 UNK         0.3000 
    145 H145        0.9161  -22.3941  -42.0443 H         1 UNK         0.0600 
    146 H146        3.1560  -23.0264  -41.1659 H         1 UNK         0.0600 
    147 H147        2.1477  -24.4398  -41.4383 H         1 UNK         0.0600 
    148 H148        3.4345  -24.0562  -42.5702 H         1 UNK         0.0600 
    149 H149        1.8325  -20.6912  -43.0312 H         1 UNK         0.3000 
    150 H150        4.7976  -20.0621  -44.8799 H         1 UNK         0.0600 
    151 H151        2.9586  -20.2507  -46.5635 H         1 UNK         0.0600 
    152 H152        3.2140  -18.5813  -46.0887 H         1 UNK         0.0600 
    153 H153        1.8396  -19.4776  -45.4473 H         1 UNK         0.0600 
    154 H154        2.9804  -18.3111  -43.5747 H         1 UNK         0.3000 
    155 H155        4.7109  -18.1892  -40.4246 H         1 UNK         0.0600 
    156 H156        4.3338  -16.2198  -42.7416 H         1 UNK         0.0600 
    157 H157        5.8730  -16.6691  -42.0184 H         1 UNK         0.0600 
    158 H158        4.6795  -15.7976  -41.0670 H         1 UNK         0.0600 
    159 H159        2.3445  -16.8965  -41.4278 H         1 UNK         0.3000 
    160 H160        0.0262  -19.2360  -40.0273 H         1 UNK         0.0600 
    161 H161       -0.7976  -17.1686  -38.9423 H         1 UNK         0.0600 
    162 H162        0.7307  -16.3520  -39.2617 H         1 UNK         0.0600 
    163 H163        0.6723  -17.7142  -38.1489 H         1 UNK         0.0600 
    164 H164       -0.3978  -16.8082  -41.4315 H         1 UNK         0.3000 
    165 H165       -0.3341  -18.1630  -44.7509 H         1 UNK         0.0600 
    166 H166       -2.5597  -17.0971  -44.7244 H         1 UNK         0.0600 
    167 H167       -2.6208  -18.5260  -43.7043 H         1 UNK         0.0600 
    168 H168       -2.5130  -16.9347  -42.9733 H         1 UNK         0.0600 
    169 H169       -0.7359  -15.5160  -43.8829 H         1 UNK         0.3000 
    170 H170        2.6724  -14.4353  -43.8255 H         1 UNK         0.0600 
    171 H171        1.9167  -14.3504  -46.1966 H         1 UNK         0.0600 
    172 H172        0.3046  -13.8727  -45.6898 H         1 UNK         0.0600 
    173 H173        1.6736  -12.7992  -45.4067 H         1 UNK         0.0600 
    174 H174        0.1262  -13.1804  -43.3059 H         1 UNK         0.3000 
    175 H175        0.1304  -13.6791  -39.7818 H         1 UNK         0.0600 
    176 H176        0.0707  -11.2019  -39.8086 H         1 UNK         0.0600 
    177 H177        1.6971  -11.7698  -40.1508 H         1 UNK         0.0600 
    178 H178        0.6856  -11.1737  -41.4615 H         1 UNK         0.0600 
    179 H179       -1.5634  -12.2055  -41.5808 H         1 UNK         0.3000 
    180 H180       -3.8676  -14.8718  -42.1930 H         1 UNK         0.0600 
    181 H181       -4.0936  -12.2649  -40.5999 H         1 UNK         0.0600 
    182 H182       -4.4587  -13.8690  -39.9756 H         1 UNK         0.0600 
    183 H183       -5.4287  -13.1983  -41.2763 H         1 UNK         0.0600 
    184 H184       -4.0651  -12.2752  -43.1427 H         1 UNK         0.3000 
    185 H185       -3.9526  -12.2379  -45.6125 H         1 UNK         0.0600 
    186 H186       -1.0955  -11.2509  -45.0245 H         1 UNK         0.0600 
    187 H187       -2.2543  -10.4409  -46.0777 H         1 UNK         0.0600 
    188 H188       -2.5737  -10.5685  -44.3570 H         1 UNK         0.0600 
    189 H189       -1.3535  -12.8581  -46.8265 H         1 UNK         0.3000 
    190 H190       -0.0041  -22.0588  -45.7107 H         1 UNK         0.3000 
    191 H191       -2.1538  -21.7183  -47.5078 H         1 UNK         0.0600 
    192 H192       -1.6200  -20.4124  -44.7936 H         1 UNK         0.0600 
    193 H193       -2.6790  -19.7731  -46.0502 H         1 UNK         0.0600 
    194 H194       -0.9462  -19.8744  -46.3302 H         1 UNK         0.0600 
    195 H195       -2.0499  -23.4999  -44.4777 H         1 UNK         0.3000 
    196 H196       -4.8496  -23.5776  -43.9054 H         1 UNK         0.0600 
    197 H197       -4.2134  -25.5772  -42.5532 H         1 UNK         0.0600 
    198 H198       -3.0937  -24.2515  -42.2756 H         1 UNK         0.0600 
    199 H199       -2.6234  -25.6009  -43.3077 H         1 UNK         0.0600 
    200 H200       -2.8845  -25.2092  -46.3285 H         1 UNK         0.3000 
    201 H201       -5.1431  -26.9981  -47.1254 H         1 UNK         0.0600 
    202 H202       -2.9800  -28.1440  -46.7271 H         1 UNK         0.0600 
    203 H203       -2.1685  -27.0679  -47.8622 H         1 UNK         0.0600 
    204 H204       -3.3989  -28.1891  -48.4327 H         1 UNK         0.0600 
    205 H205       -2.7562  -24.5955  -48.3676 H         1 UNK         0.3000 
    206 H206       -3.8117  -24.6134  -51.0296 H         1 UNK         0.0600 
    207 H207       -1.4487  -24.1164  -50.5253 H         1 UNK         0.0600 
    208 H208       -2.1747  -22.7726  -51.3892 H         1 UNK         0.0600 
    209 H209       -1.9091  -22.6509  -49.6560 H         1 UNK         0.0600 
    210 H210       -4.7472  -22.7376  -48.2147 H         1 UNK         0.3000 
    211 H211       -6.1461  -21.0802  -47.8146 H         1 UNK         0.0600 
    212 H212       -7.5544  -21.9755  -50.3936 H         1 UNK         0.0600 
    213 H213       -8.2566  -20.9656  -49.1286 H         1 UNK         0.0600 
    214 H214       -7.8193  -22.6271  -48.7833 H         1 UNK         0.0600 
    215 H215       -7.1923  -19.9741  -50.8000 H         1 UNK         0.3000 
    216 H216       -5.6242  -17.5265  -50.7060 H         1 UNK         0.0600 
    217 H217       -7.1216  -16.8622  -52.5734 H         1 UNK         0.0600 
    218 H218       -8.0497  -17.4927  -51.2235 H         1 UNK         0.0600 
    219 H219       -7.7829  -18.4915  -52.6525 H         1 UNK         0.0600 
    220 H220       -3.7415  -19.2777  -50.9328 H         1 UNK         0.3000 
    221 H221       -1.8744  -19.8979  -52.0013 H         1 UNK         0.0600 
    222 H222       -2.5256  -17.5781  -53.9002 H         1 UNK         0.0600 
    223 H223       -1.7812  -17.3936  -52.3158 H         1 UNK         0.0600 
    224 H224       -0.9347  -18.2571  -53.5838 H         1 UNK         0.0600 
    225 H225       -4.1595  -21.3802  -52.7562 H         1 UNK         0.3000 
    226 H226       -5.0306  -22.8448  -54.1229 H         1 UNK         0.0600 
    227 H227       -2.7340  -23.8198  -53.9821 H         1 UNK         0.0600 
    228 H228       -3.4932  -24.1987  -55.5183 H         1 UNK         0.0600 
    229 H229       -2.2631  -22.9446  -55.4374 H         1 UNK         0.0600 
    230 H230       -4.8963  -19.9069  -55.0599 H         1 UNK         0.3000 
    231 H231       -5.3185  -18.5364  -56.7117 H         1 UNK         0.0600 
    232 H232       -7.4695  -19.8147  -56.9084 H         1 UNK         0.0600 
    233 H233       -6.7411  -20.8458  -58.1394 H         1 UNK         0.0600 
    234 H234       -6.9663  -19.1291  -58.4437 H         1 UNK         0.0600 
    235 H235       -2.8083  -20.1007  -56.7315 H         1 UNK         0.3000 
    236 H236       -2.0898  -20.1061  -59.6444 H         1 UNK         0.0600 
    237 H237       -0.6287  -22.0198  -59.0718 H         1 UNK         0.0600 
    238 H238       -1.1350  -21.9437  -57.3879 H         1 UNK         0.0600 
    239 H239       -2.2942  -22.3832  -58.6410 H         1 UNK         0.0600 
    240 H240       -0.9738  -19.3334  -56.3156 H         1 UNK         0.3000 
    241 H241        1.3126  -17.8237  -57.4891 H         1 UNK         0.0600 
    242 H242       -1.0139  -15.6088  -55.3812 H         1 UNK         0.3800 
    243 H243       -1.4958  -16.9296  -56.4145 H         1 UNK         0.3800 
    244 H244        2.2388  -19.8543  -56.6230 H         1 UNK         0.0800 
    245 H245        2.7362  -18.5407  -55.6087 H         1 UNK         0.0800 
    246 H246        3.1593  -19.5313  -53.1333 H         1 UNK         0.0800 
    247 H247        2.0420  -18.1846  -53.1951 H         1 UNK         0.0800 
@<TRIPOS>BOND
     1    1    2 1    
     2    1  127 1    
     3    1  128 1    
     4    1  129 1    
     5    2    3 2    
     6    2    4 am   BACKBONE|DICT|INTERRES
     7    4    5 1    
     8    4  130 1    
     9    5    6 1    
    10    5   65 1    
    11    5  131 1    
    12    6    7 1    
    13    6  132 1    
    14    6  133 1    
    15    7    8 1    
    16    8    9 1    
    17    8  134 1    
    18    8  135 1    
    19    9   10 ar   
    20    9   14 ar   
    21   10   11 ar   
    22   10  136 1    
    23   11   12 ar   
    24   11  126 1    
    25   12   13 ar   
    26   12  137 1    
    27   13   14 ar   
    28   13   15 1    
    29   14  138 1    
    30   15   16 1    
    31   15  139 1    
    32   15  140 1    
    33   16   17 1    
    34   17   18 1    
    35   17  141 1    
    36   17  142 1    
    37   18   19 1    
    38   18   67 1    
    39   18  143 1    
    40   19   20 am   BACKBONE|DICT|INTERRES
    41   19  144 1    
    42   20   21 2    
    43   20   22 1    
    44   22   23 1    
    45   22   24 1    
    46   22  145 1    
    47   23  146 1    
    48   23  147 1    
    49   23  148 1    
    50   24   25 am   BACKBONE|DICT|INTERRES
    51   24  149 1    
    52   25   26 2    
    53   25   27 1    
    54   27   28 1    
    55   27   29 1    
    56   27  150 1    
    57   28  151 1    
    58   28  152 1    
    59   28  153 1    
    60   29   30 am   BACKBONE|DICT|INTERRES
    61   29  154 1    
    62   30   31 2    
    63   30   32 1    
    64   32   33 1    
    65   32   34 1    
    66   32  155 1    
    67   33  156 1    
    68   33  157 1    
    69   33  158 1    
    70   34   35 am   BACKBONE|DICT|INTERRES
    71   34  159 1    
    72   35   36 2    
    73   35   37 1    
    74   37   38 1    
    75   37   39 1    
    76   37  160 1    
    77   38  161 1    
    78   38  162 1    
    79   38  163 1    
    80   39   40 am   BACKBONE|DICT|INTERRES
    81   39  164 1    
    82   40   41 2    
    83   40   42 1    
    84   42   43 1    
    85   42   44 1    
    86   42  165 1    
    87   43  166 1    
    88   43  167 1    
    89   43  168 1    
    90   44   45 am   BACKBONE|DICT|INTERRES
    91   44  169 1    
    92   45   46 2    
    93   45   47 1    
    94   47   48 1    
    95   47   49 1    
    96   47  170 1    
    97   48  171 1    
    98   48  172 1    
    99   48  173 1    
   100   49   50 am   BACKBONE|DICT|INTERRES
   101   49  174 1    
   102   50   51 2    
   103   50   52 1    
   104   52   53 1    
   105   52   54 1    
   106   52  175 1    
   107   53  176 1    
   108   53  177 1    
   109   53  178 1    
   110   54   55 am   BACKBONE|DICT|INTERRES
   111   54  179 1    
   112   55   56 2    
   113   55   57 1    
   114   57   58 1    
   115   57   59 1    
   116   57  180 1    
   117   58  181 1    
   118   58  182 1    
   119   58  183 1    
   120   59   60 am   BACKBONE|DICT|INTERRES
   121   59  184 1    
   122   60   61 2    
   123   60   62 1    
   124   62   63 1    
   125   62   64 1    
   126   62  185 1    
   127   63  186 1    
   128   63  187 1    
   129   63  188 1    
   130   64   65 am   BACKBONE|DICT|INTERRES
   131   64  189 1    
   132   65   66 2    
   133   67   68 2    
   134   67   69 am   BACKBONE|DICT|INTERRES
   135   69   70 1    
   136   69  190 1    
   137   70   71 1    
   138   70   72 1    
   139   70  191 1    
   140   71  192 1    
   141   71  193 1    
   142   71  194 1    
   143   72   73 2    
   144   72   74 am   BACKBONE|DICT|INTERRES
   145   74   75 1    
   146   74  195 1    
   147   75   76 1    
   148   75   77 1    
   149   75  196 1    
   150   76  197 1    
   151   76  198 1    
   152   76  199 1    
   153   77   78 2    
   154   77   79 am   BACKBONE|DICT|INTERRES
   155   79   80 1    
   156   79  200 1    
   157   80   81 1    
   158   80   82 1    
   159   80  201 1    
   160   81  202 1    
   161   81  203 1    
   162   81  204 1    
   163   82   83 2    
   164   82   84 am   BACKBONE|DICT|INTERRES
   165   84   85 1    
   166   84  205 1    
   167   85   86 1    
   168   85   87 1    
   169   85  206 1    
   170   86  207 1    
   171   86  208 1    
   172   86  209 1    
   173   87   88 2    
   174   87   89 am   BACKBONE|DICT|INTERRES
   175   89   90 1    
   176   89  210 1    
   177   90   91 1    
   178   90   92 1    
   179   90  211 1    
   180   91  212 1    
   181   91  213 1    
   182   91  214 1    
   183   92   93 2    
   184   92   94 am   BACKBONE|DICT|INTERRES
   185   94   95 1    
   186   94  215 1    
   187   95   96 1    
   188   95   97 1    
   189   95  216 1    
   190   96  217 1    
   191   96  218 1    
   192   96  219 1    
   193   97   98 2    
   194   97   99 am   BACKBONE|DICT|INTERRES
   195   99  100 1    
   196   99  220 1    
   197  100  101 1    
   198  100  102 1    
   199  100  221 1    
   200  101  222 1    
   201  101  223 1    
   202  101  224 1    
   203  102  103 2    
   204  102  104 am   BACKBONE|DICT|INTERRES
   205  104  105 1    
   206  104  225 1    
   207  105  106 1    
   208  105  107 1    
   209  105  226 1    
   210  106  227 1    
   211  106  228 1    
   212  106  229 1    
   213  107  108 2    
   214  107  109 am   BACKBONE|DICT|INTERRES
   215  109  110 1    
   216  109  230 1    
   217  110  111 1    
   218  110  112 1    
   219  110  231 1    
   220  111  232 1    
   221  111  233 1    
   222  111  234 1    
   223  112  113 2    
   224  112  114 am   BACKBONE|DICT|INTERRES
   225  114  115 1    
   226  114  235 1    
   227  115  116 1    
   228  115  117 1    
   229  115  236 1    
   230  116  237 1    
   231  116  238 1    
   232  116  239 1    
   233  117  118 2    
   234  117  119 am   BACKBONE|DICT|INTERRES
   235  119  120 1    
   236  119  240 1    
   237  120  121 1    
   238  120  124 1    
   239  120  241 1    
   240  121  122 am   BACKBONE|DICT|INTERRES
   241  121  123 2    
   242  122  242 1    
   243  122  243 1    
   244  124  125 1    
   245  124  244 1    
   246  124  245 1    
   247  125  126 1    
   248  126  246 1    
   249  126  247 1    
@<TRIPOS>SUBSTRUCTURE
     1 UNK         1 GROUP             0       ****    0 ROOT    
