@<TRIPOS>MOLECULE
3R540
247   249    1
SMALL
USER_CHARGES


@<TRIPOS>ATOM
      1 CA          0.1128  -10.4422  -52.5933 C.3       0 UNK        -0.1800 
      2 C           0.1184  -11.6738  -51.6984 C.2       0 UNK         0.5000 
      3 O           1.0233  -12.5021  -51.8029 O.2       0 UNK        -0.5000 
      4 N          -0.8906  -11.7996  -50.8281 N.am      1 UNK        -0.5000 
      5 CA         -1.0345  -12.8887  -49.8582 C.3       1 UNK         0.1400 
      6 C6         -2.4402  -12.8925  -49.2068 C.3       23 UNK        -0.0398 
      7 S7         -3.7146  -13.4881  -50.3674 S.3       23 UNK        -0.2404 
      8 C8         -4.0162  -15.1698  -49.7280 C.3       23 UNK        -0.0205 
      9 C9         -2.7515  -16.0174  -49.6935 C.ar      23 UNK        -0.0193 
     10 C10        -2.0857  -16.3500  -50.8770 C.ar      23 UNK        -0.1150 
     11 C11        -0.9203  -17.1214  -50.8438 C.ar      23 UNK        -0.0193 
     12 C12        -0.4142  -17.5472  -49.6109 C.ar      23 UNK        -0.1150 
     13 C13        -1.0912  -17.2535  -48.4257 C.ar      23 UNK        -0.0193 
     14 C14        -2.2538  -16.4815  -48.4732 C.ar      23 UNK        -0.1150 
     15 C15        -0.5963  -17.8009  -47.0975 C.3       23 UNK        -0.0205 
     16 S16        -1.4240  -19.3686  -46.6918 S.3       23 UNK        -0.2404 
     17 C17        -0.5703  -20.5350  -47.8114 C.3       23 UNK        -0.0398 
     18 CA         -0.4500  -21.9860  -47.2816 C.3       11 UNK         0.1400 
     19 N           0.3839  -22.0936  -46.0789 N.am      11 UNK        -0.5000 
     20 C           0.8537  -23.2554  -45.6003 C.2       10 UNK         0.5000 
     21 O           0.6203  -24.3485  -46.1135 O.2       10 UNK        -0.5000 
     22 CA          1.6955  -23.2011  -44.3166 C.3       10 UNK         0.1400 
     23 CB          3.1131  -22.6857  -44.6085 C.3       10 UNK        -0.1800 
     24 N           1.0784  -22.3912  -43.2695 N.am      10 UNK        -0.5000 
     25 C          -0.0702  -22.6896  -42.6473 C.2       9 UNK         0.5000 
     26 O          -0.7697  -23.6643  -42.9231 O.2       9 UNK        -0.5000 
     27 CA         -0.5141  -21.7221  -41.5381 C.3       9 UNK         0.1400 
     28 CB          0.2220  -22.0254  -40.2246 C.3       9 UNK        -0.1800 
     29 N          -0.2822  -20.3288  -41.9126 N.am      9 UNK        -0.5000 
     30 C          -1.0432  -19.6612  -42.7913 C.2       8 UNK         0.5000 
     31 O          -2.0453  -20.1354  -43.3248 O.2       8 UNK        -0.5000 
     32 CA         -0.6030  -18.2260  -43.1368 C.3       8 UNK         0.1400 
     33 CB         -1.1132  -17.2708  -42.0465 C.3       8 UNK        -0.1800 
     34 N           0.8482  -18.0652  -43.2700 N.am      8 UNK        -0.5000 
     35 C           1.6668  -18.8153  -44.0273 C.2       7 UNK         0.5000 
     36 O           1.2759  -19.6803  -44.8090 O.2       7 UNK        -0.5000 
     37 CA          3.1875  -18.6209  -43.8539 C.3       7 UNK         0.1400 
     38 CB          3.7579  -17.8255  -45.0364 C.3       7 UNK        -0.1800 
     39 N           3.5757  -17.9567  -42.6097 N.am      7 UNK        -0.5000 
     40 C           3.2720  -18.3433  -41.3616 C.2       6 UNK         0.5000 
     41 O           2.7071  -19.4055  -41.0936 O.2       6 UNK        -0.5000 
     42 CA          3.5916  -17.3378  -40.2329 C.3       6 UNK         0.1400 
     43 CB          4.8239  -17.7970  -39.4393 C.3       6 UNK        -0.1800 
     44 N           3.8085  -15.9582  -40.6964 N.am      6 UNK        -0.5000 
     45 C           2.9137  -15.2039  -41.3528 C.2       5 UNK         0.5000 
     46 O           1.7713  -15.5865  -41.6176 O.2       5 UNK        -0.5000 
     47 CA          3.4151  -13.8337  -41.8430 C.3       5 UNK         0.1400 
     48 CB          4.5329  -14.0076  -42.8872 C.3       5 UNK        -0.1800 
     49 N           2.3289  -13.0858  -42.4700 N.am      5 UNK        -0.5000 
     50 C           1.7080  -12.0224  -41.9438 C.2       4 UNK         0.5000 
     51 O           2.0131  -11.5206  -40.8608 O.2       4 UNK        -0.5000 
     52 CA          0.5597  -11.3953  -42.7643 C.3       4 UNK         0.1400 
     53 CB          1.0446  -10.1253  -43.4809 C.3       4 UNK        -0.1800 
     54 N          -0.0042  -12.3076  -43.7600 N.am      4 UNK        -0.5000 
     55 C          -0.7773  -13.3635  -43.4748 C.2       3 UNK         0.5000 
     56 O          -1.2060  -13.6009  -42.3457 O.2       3 UNK        -0.5000 
     57 CA         -1.1371  -14.3161  -44.6362 C.3       3 UNK         0.1400 
     58 CB         -2.6201  -14.1653  -45.0094 C.3       3 UNK        -0.1800 
     59 N          -0.3294  -14.1614  -45.8503 N.am      3 UNK        -0.5000 
     60 C           0.9961  -14.3350  -45.9615 C.2       2 UNK         0.5000 
     61 O           1.7220  -14.6093  -45.0065 O.2       2 UNK        -0.5000 
     62 CA          1.6155  -14.1591  -47.3656 C.3       2 UNK         0.1400 
     63 CB          2.5183  -15.3467  -47.7362 C.3       2 UNK        -0.1800 
     64 N           0.6083  -13.9883  -48.4180 N.am      2 UNK        -0.5000 
     65 C           0.0572  -12.8206  -48.7725 C.2       1 UNK         0.5000 
     66 O           0.3357  -11.7416  -48.2451 O.2       1 UNK        -0.5000 
     67 C          -1.8216  -22.6699  -47.1016 C.2       11 UNK         0.5000 
     68 O          -2.3010  -23.3289  -48.0290 O.2       11 UNK        -0.5000 
     69 N          -2.3979  -22.5404  -45.8970 N.am      12 UNK        -0.5000 
     70 CA         -3.6394  -23.1905  -45.4904 C.3       12 UNK         0.1400 
     71 CB         -4.0863  -22.6618  -44.1197 C.3       12 UNK        -0.1800 
     72 C          -3.5101  -24.7217  -45.4836 C.2       12 UNK         0.5000 
     73 O          -4.3242  -25.4009  -46.1111 O.2       12 UNK        -0.5000 
     74 N          -2.4655  -25.2233  -44.8090 N.am      13 UNK        -0.5000 
     75 CA         -2.1518  -26.6470  -44.6914 C.3       13 UNK         0.1400 
     76 CB         -1.0224  -26.8342  -43.6670 C.3       13 UNK        -0.1800 
     77 C          -1.7775  -27.3122  -46.0283 C.2       13 UNK         0.5000 
     78 O          -2.0917  -28.4880  -46.2172 O.2       13 UNK        -0.5000 
     79 N          -1.1128  -26.5617  -46.9191 N.am      14 UNK        -0.5000 
     80 CA         -0.6785  -27.0183  -48.2375 C.3       14 UNK         0.1400 
     81 CB          0.2325  -25.9633  -48.8880 C.3       14 UNK        -0.1800 
     82 C          -1.8530  -27.3847  -49.1602 C.2       14 UNK         0.5000 
     83 O          -1.9653  -28.5456  -49.5580 O.2       14 UNK        -0.5000 
     84 N          -2.6957  -26.3964  -49.4908 N.am      15 UNK        -0.5000 
     85 CA         -3.7903  -26.5479  -50.4540 C.3       15 UNK         0.1400 
     86 CB         -3.2270  -26.7415  -51.8833 C.3       15 UNK        -0.1800 
     87 C          -4.7762  -25.3679  -50.3931 C.2       15 UNK         0.5000 
     88 O          -5.2946  -24.9676  -51.4368 O.2       15 UNK        -0.5000 
     89 N          -4.9973  -24.7885  -49.2009 N.am      16 UNK        -0.5000 
     90 CA         -5.8415  -23.6016  -48.9713 C.3       16 UNK         0.1400 
     91 CB         -7.3327  -23.9529  -49.1532 C.3       16 UNK        -0.1800 
     92 C          -5.4020  -22.3876  -49.8239 C.2       16 UNK         0.5000 
     93 O          -6.2344  -21.7064  -50.4279 O.2       16 UNK        -0.5000 
     94 N          -4.0761  -22.2061  -49.9220 N.am      17 UNK        -0.5000 
     95 CA         -3.3537  -21.2490  -50.7670 C.3       17 UNK         0.1400 
     96 CB         -3.6086  -19.8093  -50.2778 C.3       17 UNK        -0.1800 
     97 C          -3.6204  -21.4079  -52.2815 C.2       17 UNK         0.5000 
     98 O          -3.3581  -20.4757  -53.0402 O.2       17 UNK        -0.5000 
     99 N          -4.1686  -22.5593  -52.7032 N.am      18 UNK        -0.5000 
    100 CA        -4.6516  -22.8643  -54.0544 C.3       18 UNK         0.1400 
    101 CB        -3.4682  -23.0561  -55.0243 C.3       18 UNK        -0.1800 
    102 C         -5.6840  -21.8272  -54.5479 C.2       18 UNK         0.5000 
    103 O         -5.5908  -21.3513  -55.6797 O.2       18 UNK        -0.5000 
    104 N         -6.6136  -21.4532  -53.6535 N.am      19 UNK        -0.5000 
    105 CA        -7.6077  -20.3847  -53.8143 C.3       19 UNK         0.1400 
    106 CB        -8.6258  -20.7315  -54.9212 C.3       19 UNK        -0.1800 
    107 C         -6.9504  -18.9983  -53.9975 C.2       19 UNK         0.5000 
    108 O         -7.3705  -18.2152  -54.8501 O.2       19 UNK        -0.5000 
    109 N         -5.9114  -18.7459  -53.1877 N.am      20 UNK        -0.5000 
    110 CA        -5.0676  -17.5455  -53.1154 C.3       20 UNK         0.1400 
    111 CB        -5.9116  -16.2790  -52.8586 C.3       20 UNK        -0.1800 
    112 C         -4.0944  -17.3563  -54.2984 C.2       20 UNK         0.5000 
    113 O         -3.3843  -16.3500  -54.3284 O.2       20 UNK        -0.5000 
    114 N         -4.0535  -18.3027  -55.2449 N.am      21 UNK        -0.5000 
    115 CA        -3.1710  -18.2482  -56.4095 C.3       21 UNK         0.1400 
    116 CB        -3.7850  -19.0808  -57.5451 C.3       21 UNK        -0.1800 
    117 C         -1.7441  -18.7374  -56.1031 C.2       21 UNK         0.5000 
    118 O         -0.7979  -18.2477  -56.7209 O.2       21 UNK        -0.5000 
    119 N         -1.6180  -19.7072  -55.1862 N.am      22 UNK        -0.5000 
    120 CA        -0.3793  -20.4231  -54.8259 C.3       22 UNK         0.1400 
    121 C          0.3436  -21.1453  -56.0081 C.2       22 UNK         0.5000 
    122 N         -0.3501  -21.5015  -57.0828 N.am      22 UNK        -0.7600 
    123 O          1.5385  -21.4225  -55.9456 O.2       22 UNK        -0.5000 
    124 C124        0.5696  -19.5653  -53.9441 C.3       23 UNK        -0.0398 
    125 S125       -0.1291  -19.3383  -52.2762 S.3       23 UNK        -0.2404 
    126 C126       -0.2286  -17.5269  -52.1376 C.3       23 UNK        -0.0205 
    127 H127        1.0157   -9.8543  -52.4278 H         1 UNK         0.0600 
    128 H128       -0.7492   -9.8033  -52.3993 H         1 UNK         0.0600 
    129 H129        0.0858  -10.7400  -53.6415 H         1 UNK         0.0600 
    130 H130       -1.5983  -11.0808  -50.7854 H         1 UNK         0.3000 
    131 H131       -0.8983  -13.8255  -50.4020 H         1 UNK         0.0600 
    132 H132       -2.7122  -11.8911  -48.8689 H         1 UNK         0.0800 
    133 H133       -2.4678  -13.5195  -48.3143 H         1 UNK         0.0800 
    134 H134       -4.7602  -15.6662  -50.3487 H         1 UNK         0.0800 
    135 H135       -4.4587  -15.0928  -48.7335 H         1 UNK         0.0800 
    136 H136       -2.4793  -16.0062  -51.8230 H         1 UNK         0.1150 
    137 H137        0.4817  -18.1511  -49.5818 H         1 UNK         0.1150 
    138 H138       -2.7835  -16.2632  -47.5581 H         1 UNK         0.1150 
    139 H139        0.4837  -17.9492  -47.1066 H         1 UNK         0.0800 
    140 H140       -0.7973  -17.0784  -46.3064 H         1 UNK         0.0800 
    141 H141       -1.0838  -20.5233  -48.7727 H         1 UNK         0.0800 
    142 H142        0.4320  -20.1562  -48.0137 H         1 UNK         0.0800 
    143 H143        0.0651  -22.5521  -48.0609 H         1 UNK         0.0600 
    144 H144        0.6149  -21.2247  -45.5995 H         1 UNK         0.3000 
    145 H145        1.7817  -24.2206  -43.9347 H         1 UNK         0.0600 
    146 H146        3.7221  -22.6663  -43.7045 H         1 UNK         0.0600 
    147 H147        3.1017  -21.6805  -45.0293 H         1 UNK         0.0600 
    148 H148        3.6187  -23.3320  -45.3269 H         1 UNK         0.0600 
    149 H149        1.5558  -21.5406  -43.0123 H         1 UNK         0.3000 
    150 H150       -1.5832  -21.8703  -41.3701 H         1 UNK         0.0600 
    151 H151        0.0603  -23.0591  -39.9165 H         1 UNK         0.0600 
    152 H152       -0.1349  -21.3858  -39.4172 H         1 UNK         0.0600 
    153 H153        1.2982  -21.8744  -40.3198 H         1 UNK         0.0600 
    154 H154        0.5427  -19.8798  -41.5335 H         1 UNK         0.3000 
    155 H155       -1.0587  -17.9473  -44.0866 H         1 UNK         0.0600 
    156 H156       -2.2029  -17.2758  -42.0003 H         1 UNK         0.0600 
    157 H157       -0.7991  -16.2458  -42.2277 H         1 UNK         0.0600 
    158 H158       -0.7398  -17.5501  -41.0604 H         1 UNK         0.0600 
    159 H159        1.2651  -17.3472  -42.6875 H         1 UNK         0.3000 
    160 H160        3.6435  -19.6122  -43.8506 H         1 UNK         0.0600 
    161 H161        3.3738  -16.8055  -45.0482 H         1 UNK         0.0600 
    162 H162        3.4926  -18.2883  -45.9881 H         1 UNK         0.0600 
    163 H163        4.8459  -17.7749  -44.9923 H         1 UNK         0.0600 
    164 H164        4.0352  -17.0649  -42.7134 H         1 UNK         0.3000 
    165 H165        2.7324  -17.3290  -39.5593 H         1 UNK         0.0600 
    166 H166        5.0076  -17.1472  -38.5834 H         1 UNK         0.0600 
    167 H167        4.6865  -18.8080  -39.0532 H         1 UNK         0.0600 
    168 H168        5.7220  -17.8014  -40.0583 H         1 UNK         0.0600 
    169 H169        4.7260  -15.5745  -40.5198 H         1 UNK         0.3000 
    170 H170        3.8151  -13.2906  -40.9845 H         1 UNK         0.0600 
    171 H171        4.2000  -14.6010  -43.7399 H         1 UNK         0.0600 
    172 H172        4.8672  -13.0419  -43.2668 H         1 UNK         0.0600 
    173 H173        5.4063  -14.5026  -42.4617 H         1 UNK         0.0600 
    174 H174        1.9680  -13.4919  -43.3274 H         1 UNK         0.3000 
    175 H175       -0.2299  -11.1132  -42.0647 H         1 UNK         0.0600 
    176 H176        1.8320  -10.3465  -44.2026 H         1 UNK         0.0600 
    177 H177        0.2284   -9.6360  -44.0128 H         1 UNK         0.0600 
    178 H178        1.4456   -9.4031  -42.7685 H         1 UNK         0.0600 
    179 H179        0.2901  -12.1757  -44.7161 H         1 UNK         0.3000 
    180 H180       -0.9778  -15.3336  -44.2804 H         1 UNK         0.0600 
    181 H181       -2.8300  -13.1824  -45.4328 H         1 UNK         0.0600 
    182 H182       -3.2597  -14.2887  -44.1343 H         1 UNK         0.0600 
    183 H183       -2.9261  -14.9175  -45.7342 H         1 UNK         0.0600 
    184 H184       -0.8317  -13.9164  -46.6881 H         1 UNK         0.3000 
    185 H185        2.2436  -13.2669  -47.3246 H         1 UNK         0.0600 
    186 H186        1.9710  -16.2880  -47.7414 H         1 UNK         0.0600 
    187 H187        2.9593  -15.2119  -48.7240 H         1 UNK         0.0600 
    188 H188        3.3430  -15.4468  -47.0302 H         1 UNK         0.0600 
    189 H189        0.3178  -14.8321  -48.8929 H         1 UNK         0.3000 
    190 H190       -1.9371  -21.9673  -45.2028 H         1 UNK         0.3000 
    191 H191       -4.4059  -22.9159  -46.2129 H         1 UNK         0.0600 
    192 H192       -4.2767  -21.5891  -44.1573 H         1 UNK         0.0600 
    193 H193       -3.3356  -22.8392  -43.3494 H         1 UNK         0.0600 
    194 H194       -5.0097  -23.1439  -43.7966 H         1 UNK         0.0600 
    195 H195       -1.8491  -24.5871  -44.3113 H         1 UNK         0.3000 
    196 H196       -3.0424  -27.1520  -44.3116 H         1 UNK         0.0600 
    197 H197       -1.3118  -26.4532  -42.6875 H         1 UNK         0.0600 
    198 H198       -0.1139  -26.3138  -43.9734 H         1 UNK         0.0600 
    199 H199       -0.7734  -27.8890  -43.5450 H         1 UNK         0.0600 
    200 H200       -0.8207  -25.6290  -46.6452 H         1 UNK         0.3000 
    201 H201       -0.0832  -27.9222  -48.0928 H         1 UNK         0.0600 
    202 H202        1.1517  -25.8344  -48.3168 H         1 UNK         0.0600 
    203 H203       -0.2548  -24.9907  -48.9587 H         1 UNK         0.0600 
    204 H204        0.5203  -26.2617  -49.8969 H         1 UNK         0.0600 
    205 H205       -2.5447  -25.4704  -49.1095 H         1 UNK         0.3000 
    206 H206       -4.3643  -27.4367  -50.1851 H         1 UNK         0.0600 
    207 H207       -2.5821  -27.6164  -51.9559 H         1 UNK         0.0600 
    208 H208       -2.6484  -25.8740  -52.2031 H         1 UNK         0.0600 
    209 H209       -4.0279  -26.8882  -52.6091 H         1 UNK         0.0600 
    210 H210       -4.5573  -25.1768  -48.3749 H         1 UNK         0.3000 
    211 H211       -5.7061  -23.3124  -47.9317 H         1 UNK         0.0600 
    212 H212       -7.5683  -24.2092  -50.1865 H         1 UNK         0.0600 
    213 H213       -7.9686  -23.1124  -48.8728 H         1 UNK         0.0600 
    214 H214       -7.6170  -24.7971  -48.5252 H         1 UNK         0.0600 
    215 H215       -3.4813  -22.8068  -49.3554 H         1 UNK         0.3000 
    216 H216       -2.2933  -21.4638  -50.6323 H         1 UNK         0.0600 
    217 H217       -2.9740  -19.1016  -50.8094 H         1 UNK         0.0600 
    218 H218       -3.3846  -19.7041  -49.2165 H         1 UNK         0.0600 
    219 H219       -4.6429  -19.5024  -50.4310 H         1 UNK         0.0600 
    220 H220       -4.3947  -23.2655  -52.0110 H         1 UNK         0.3000 
    221 H221       -5.1807  -23.8158  -53.9870 H         1 UNK         0.0600 
    222 H222       -2.9290  -22.1262  -55.1940 H         1 UNK         0.0600 
    223 H223       -2.7595  -23.7906  -54.6420 H         1 UNK         0.0600 
    224 H224       -3.8143  -23.4127  -55.9950 H         1 UNK         0.0600 
    225 H225       -6.5734  -21.8698  -52.7306 H         1 UNK         0.3000 
    226 H226       -8.1551  -20.3365  -52.8718 H         1 UNK         0.0600 
    227 H227       -9.0721  -21.7115  -54.7530 H         1 UNK         0.0600 
    228 H228       -9.4388  -20.0049  -54.9429 H         1 UNK         0.0600 
    229 H229       -8.1683  -20.7362  -55.9108 H         1 UNK         0.0600 
    230 H230       -5.6204  -19.4963  -52.5770 H         1 UNK         0.3000 
    231 H231       -4.4324  -17.6910  -52.2417 H         1 UNK         0.0600 
    232 H232       -5.2738  -15.4163  -52.6632 H         1 UNK         0.0600 
    233 H233       -6.5622  -16.4054  -51.9933 H         1 UNK         0.0600 
    234 H234       -6.5355  -16.0228  -53.7147 H         1 UNK         0.0600 
    235 H235       -4.6450  -19.1173  -55.1497 H         1 UNK         0.3000 
    236 H236       -3.1029  -17.2145  -56.7556 H         1 UNK         0.0600 
    237 H237       -3.8399  -20.1384  -57.2861 H         1 UNK         0.0600 
    238 H238       -4.7932  -18.7415  -57.7839 H         1 UNK         0.0600 
    239 H239       -3.1890  -18.9976  -58.4548 H         1 UNK         0.0600 
    240 H240       -2.4363  -19.9790  -54.6480 H         1 UNK         0.3000 
    241 H241       -0.7127  -21.2575  -54.2077 H         1 UNK         0.0600 
    242 H242        0.1181  -21.9766  -57.8384 H         1 UNK         0.3800 
    243 H243       -1.3323  -21.2929  -57.1535 H         1 UNK         0.3800 
    244 H244        0.7769  -18.6033  -54.4142 H         1 UNK         0.0800 
    245 H245        1.5363  -20.0514  -53.8069 H         1 UNK         0.0800 
    246 H246       -0.7659  -17.1336  -53.0026 H         1 UNK         0.0800 
    247 H247        0.7748  -17.1002  -52.1627 H         1 UNK         0.0800 
@<TRIPOS>BOND
     1    1    2 1    
     2    1  127 1    
     3    1  128 1    
     4    1  129 1    
     5    2    3 2    
     6    2    4 am   BACKBONE|DICT|INTERRES
     7    4    5 1    
     8    4  130 1    
     9    5    6 1    
    10    5   65 1    
    11    5  131 1    
    12    6    7 1    
    13    6  132 1    
    14    6  133 1    
    15    7    8 1    
    16    8    9 1    
    17    8  134 1    
    18    8  135 1    
    19    9   10 ar   
    20    9   14 ar   
    21   10   11 ar   
    22   10  136 1    
    23   11   12 ar   
    24   11  126 1    
    25   12   13 ar   
    26   12  137 1    
    27   13   14 ar   
    28   13   15 1    
    29   14  138 1    
    30   15   16 1    
    31   15  139 1    
    32   15  140 1    
    33   16   17 1    
    34   17   18 1    
    35   17  141 1    
    36   17  142 1    
    37   18   19 1    
    38   18   67 1    
    39   18  143 1    
    40   19   20 am   BACKBONE|DICT|INTERRES
    41   19  144 1    
    42   20   21 2    
    43   20   22 1    
    44   22   23 1    
    45   22   24 1    
    46   22  145 1    
    47   23  146 1    
    48   23  147 1    
    49   23  148 1    
    50   24   25 am   BACKBONE|DICT|INTERRES
    51   24  149 1    
    52   25   26 2    
    53   25   27 1    
    54   27   28 1    
    55   27   29 1    
    56   27  150 1    
    57   28  151 1    
    58   28  152 1    
    59   28  153 1    
    60   29   30 am   BACKBONE|DICT|INTERRES
    61   29  154 1    
    62   30   31 2    
    63   30   32 1    
    64   32   33 1    
    65   32   34 1    
    66   32  155 1    
    67   33  156 1    
    68   33  157 1    
    69   33  158 1    
    70   34   35 am   BACKBONE|DICT|INTERRES
    71   34  159 1    
    72   35   36 2    
    73   35   37 1    
    74   37   38 1    
    75   37   39 1    
    76   37  160 1    
    77   38  161 1    
    78   38  162 1    
    79   38  163 1    
    80   39   40 am   BACKBONE|DICT|INTERRES
    81   39  164 1    
    82   40   41 2    
    83   40   42 1    
    84   42   43 1    
    85   42   44 1    
    86   42  165 1    
    87   43  166 1    
    88   43  167 1    
    89   43  168 1    
    90   44   45 am   BACKBONE|DICT|INTERRES
    91   44  169 1    
    92   45   46 2    
    93   45   47 1    
    94   47   48 1    
    95   47   49 1    
    96   47  170 1    
    97   48  171 1    
    98   48  172 1    
    99   48  173 1    
   100   49   50 am   BACKBONE|DICT|INTERRES
   101   49  174 1    
   102   50   51 2    
   103   50   52 1    
   104   52   53 1    
   105   52   54 1    
   106   52  175 1    
   107   53  176 1    
   108   53  177 1    
   109   53  178 1    
   110   54   55 am   BACKBONE|DICT|INTERRES
   111   54  179 1    
   112   55   56 2    
   113   55   57 1    
   114   57   58 1    
   115   57   59 1    
   116   57  180 1    
   117   58  181 1    
   118   58  182 1    
   119   58  183 1    
   120   59   60 am   BACKBONE|DICT|INTERRES
   121   59  184 1    
   122   60   61 2    
   123   60   62 1    
   124   62   63 1    
   125   62   64 1    
   126   62  185 1    
   127   63  186 1    
   128   63  187 1    
   129   63  188 1    
   130   64   65 am   BACKBONE|DICT|INTERRES
   131   64  189 1    
   132   65   66 2    
   133   67   68 2    
   134   67   69 am   BACKBONE|DICT|INTERRES
   135   69   70 1    
   136   69  190 1    
   137   70   71 1    
   138   70   72 1    
   139   70  191 1    
   140   71  192 1    
   141   71  193 1    
   142   71  194 1    
   143   72   73 2    
   144   72   74 am   BACKBONE|DICT|INTERRES
   145   74   75 1    
   146   74  195 1    
   147   75   76 1    
   148   75   77 1    
   149   75  196 1    
   150   76  197 1    
   151   76  198 1    
   152   76  199 1    
   153   77   78 2    
   154   77   79 am   BACKBONE|DICT|INTERRES
   155   79   80 1    
   156   79  200 1    
   157   80   81 1    
   158   80   82 1    
   159   80  201 1    
   160   81  202 1    
   161   81  203 1    
   162   81  204 1    
   163   82   83 2    
   164   82   84 am   BACKBONE|DICT|INTERRES
   165   84   85 1    
   166   84  205 1    
   167   85   86 1    
   168   85   87 1    
   169   85  206 1    
   170   86  207 1    
   171   86  208 1    
   172   86  209 1    
   173   87   88 2    
   174   87   89 am   BACKBONE|DICT|INTERRES
   175   89   90 1    
   176   89  210 1    
   177   90   91 1    
   178   90   92 1    
   179   90  211 1    
   180   91  212 1    
   181   91  213 1    
   182   91  214 1    
   183   92   93 2    
   184   92   94 am   BACKBONE|DICT|INTERRES
   185   94   95 1    
   186   94  215 1    
   187   95   96 1    
   188   95   97 1    
   189   95  216 1    
   190   96  217 1    
   191   96  218 1    
   192   96  219 1    
   193   97   98 2    
   194   97   99 am   BACKBONE|DICT|INTERRES
   195   99  100 1    
   196   99  220 1    
   197  100  101 1    
   198  100  102 1    
   199  100  221 1    
   200  101  222 1    
   201  101  223 1    
   202  101  224 1    
   203  102  103 2    
   204  102  104 am   BACKBONE|DICT|INTERRES
   205  104  105 1    
   206  104  225 1    
   207  105  106 1    
   208  105  107 1    
   209  105  226 1    
   210  106  227 1    
   211  106  228 1    
   212  106  229 1    
   213  107  108 2    
   214  107  109 am   BACKBONE|DICT|INTERRES
   215  109  110 1    
   216  109  230 1    
   217  110  111 1    
   218  110  112 1    
   219  110  231 1    
   220  111  232 1    
   221  111  233 1    
   222  111  234 1    
   223  112  113 2    
   224  112  114 am   BACKBONE|DICT|INTERRES
   225  114  115 1    
   226  114  235 1    
   227  115  116 1    
   228  115  117 1    
   229  115  236 1    
   230  116  237 1    
   231  116  238 1    
   232  116  239 1    
   233  117  118 2    
   234  117  119 am   BACKBONE|DICT|INTERRES
   235  119  120 1    
   236  119  240 1    
   237  120  121 1    
   238  120  124 1    
   239  120  241 1    
   240  121  122 am   BACKBONE|DICT|INTERRES
   241  121  123 2    
   242  122  242 1    
   243  122  243 1    
   244  124  125 1    
   245  124  244 1    
   246  124  245 1    
   247  125  126 1    
   248  126  246 1    
   249  126  247 1    
@<TRIPOS>SUBSTRUCTURE
     1 UNK         1 GROUP             0       ****    0 ROOT    
