@<TRIPOS>MOLECULE
3R540
247   249    1
SMALL
USER_CHARGES


@<TRIPOS>ATOM
      1 CA         -4.8647  -12.8759  -50.7924 C.3       0 UNK        -0.1800 
      2 C          -4.0666  -12.5488  -49.5395 C.2       0 UNK         0.5000 
      3 O          -3.8415  -11.3766  -49.2406 O.2       0 UNK        -0.5000 
      4 N          -3.6363  -13.5880  -48.8121 N.am      1 UNK        -0.5000 
      5 CA         -2.8466  -13.5391  -47.5723 C.3       1 UNK         0.1400 
      6 C6         -3.5069  -12.6638  -46.4659 C.3       23 UNK        -0.0398 
      7 S7         -3.2746  -13.2916  -44.7647 S.3       23 UNK        -0.2404 
      8 C8         -4.8216  -14.2138  -44.4659 C.3       23 UNK        -0.0205 
      9 C9         -4.7513  -15.6138  -45.0548 C.ar      23 UNK        -0.0193 
     10 C10        -5.1145  -15.8373  -46.3846 C.ar      23 UNK        -0.1150 
     11 C11        -4.9430  -17.0967  -46.9645 C.ar      23 UNK        -0.0193 
     12 C12        -4.4722  -18.1568  -46.1827 C.ar      23 UNK        -0.1150 
     13 C13        -4.1017  -17.9447  -44.8520 C.ar      23 UNK        -0.0193 
     14 C14        -4.2587  -16.6745  -44.2889 C.ar      23 UNK        -0.1150 
     15 C15        -3.4042  -19.0430  -44.0649 C.3       23 UNK        -0.0205 
     16 S16        -4.5595  -20.0843  -43.1261 S.3       23 UNK        -0.2404 
     17 C17        -4.6799  -21.6324  -44.0965 C.3       23 UNK        -0.0398 
     18 CA         -3.3448  -22.3212  -44.5250 C.3       11 UNK         0.1400 
     19 N          -2.2724  -22.3020  -43.5275 N.am      11 UNK        -0.5000 
     20 C          -2.2678  -22.8437  -42.3013 C.2       10 UNK         0.5000 
     21 O          -3.2235  -23.4542  -41.8201 O.2       10 UNK        -0.5000 
     22 CA         -0.9700  -22.7043  -41.4780 C.3       10 UNK         0.1400 
     23 CB         -0.1927  -24.0297  -41.4868 C.3       10 UNK        -0.1800 
     24 N          -0.0850  -21.6402  -41.9593 N.am      10 UNK        -0.5000 
     25 C          -0.3055  -20.3289  -41.7938 C.2       9 UNK         0.5000 
     26 O          -1.2435  -19.8740  -41.1394 O.2       9 UNK        -0.5000 
     27 CA          0.6757  -19.3563  -42.4800 C.3       9 UNK         0.1400 
     28 CB          1.7014  -18.8277  -41.4661 C.3       9 UNK        -0.1800 
     29 N           1.3968  -19.9018  -43.6355 N.am      9 UNK        -0.5000 
     30 C           0.8516  -20.3653  -44.7664 C.2       8 UNK         0.5000 
     31 O          -0.3615  -20.5184  -44.9101 O.2       8 UNK        -0.5000 
     32 CA          1.8112  -20.6961  -45.9330 C.3       8 UNK         0.1400 
     33 CB          1.0830  -20.7441  -47.2874 C.3       8 UNK        -0.1800 
     34 N           2.9575  -19.7858  -46.0612 N.am      8 UNK        -0.5000 
     35 C           4.0686  -19.8419  -45.3154 C.2       7 UNK         0.5000 
     36 O           4.1612  -20.5399  -44.3050 O.2       7 UNK        -0.5000 
     37 CA          5.2941  -19.0362  -45.7733 C.3       7 UNK         0.1400 
     38 CB          6.1399  -19.8973  -46.7342 C.3       7 UNK        -0.1800 
     39 N           4.9746  -17.7442  -46.3899 N.am      7 UNK        -0.5000 
     40 C           5.8837  -16.7712  -46.5592 C.2       6 UNK         0.5000 
     41 O           7.0542  -16.8568  -46.1831 O.2       6 UNK        -0.5000 
     42 CA          5.4263  -15.4798  -47.2601 C.3       6 UNK         0.1400 
     43 CB          5.2692  -15.7007  -48.7725 C.3       6 UNK        -0.1800 
     44 N           4.1929  -14.9323  -46.7009 N.am      6 UNK        -0.5000 
     45 C           4.0819  -14.4098  -45.4707 C.2       5 UNK         0.5000 
     46 O           5.0225  -14.3031  -44.6826 O.2       5 UNK        -0.5000 
     47 CA          2.6820  -13.9316  -45.0412 C.3       5 UNK         0.1400 
     48 CB          2.4405  -12.4822  -45.4890 C.3       5 UNK        -0.1800 
     49 N           1.6124  -14.7830  -45.5587 N.am      5 UNK        -0.5000 
     50 C           1.4260  -16.0625  -45.2058 C.2       4 UNK         0.5000 
     51 O           2.0920  -16.6466  -44.3519 O.2       4 UNK        -0.5000 
     52 CA          0.3426  -16.8313  -45.9753 C.3       4 UNK         0.1400 
     53 CB         -1.0540  -16.4927  -45.4518 C.3       4 UNK        -0.1800 
     54 N           0.3975  -16.5817  -47.4117 N.am      4 UNK        -0.5000 
     55 C           1.3983  -16.9636  -48.2154 C.2       3 UNK         0.5000 
     56 O           2.3833  -17.6004  -47.8359 O.2       3 UNK        -0.5000 
     57 CA          1.2827  -16.5281  -49.6859 C.3       3 UNK         0.1400 
     58 CB          0.4431  -17.5414  -50.4744 C.3       3 UNK        -0.1800 
     59 N           0.6924  -15.1950  -49.8236 N.am      3 UNK        -0.5000 
     60 C           1.2667  -14.0662  -49.3830 C.2       2 UNK         0.5000 
     61 O           2.3773  -14.0236  -48.8554 O.2       2 UNK        -0.5000 
     62 CA          0.4289  -12.7838  -49.4918 C.3       2 UNK         0.1400 
     63 CB          0.4522  -12.2282  -50.9235 C.3       2 UNK        -0.1800 
     64 N          -0.9533  -13.0174  -49.0791 N.am      2 UNK        -0.5000 
     65 C          -1.3525  -13.2128  -47.8145 C.2       1 UNK         0.5000 
     66 O          -0.5710  -13.1972  -46.8634 O.2       1 UNK        -0.5000 
     67 C          -3.5861  -23.7448  -45.0705 C.2       11 UNK         0.5000 
     68 O          -3.2255  -24.0300  -46.2138 O.2       11 UNK        -0.5000 
     69 N          -4.1965  -24.6138  -44.2533 N.am      12 UNK        -0.5000 
     70 CA         -4.6848  -25.9490  -44.6118 C.3       12 UNK         0.1400 
     71 CB         -5.4043  -26.5624  -43.4021 C.3       12 UNK        -0.1800 
     72 C          -3.5936  -26.9007  -45.1305 C.2       12 UNK         0.5000 
     73 O          -3.8504  -27.6728  -46.0547 O.2       12 UNK        -0.5000 
     74 N          -2.3820  -26.7813  -44.5711 N.am      13 UNK        -0.5000 
     75 CA         -1.1888  -27.5343  -44.9703 C.3       13 UNK         0.1400 
     76 CB         -0.0719  -27.2624  -43.9510 C.3       13 UNK        -0.1800 
     77 C          -0.6980  -27.2162  -46.3990 C.2       13 UNK         0.5000 
     78 O           0.0344  -28.0186  -46.9783 O.2       13 UNK        -0.5000 
     79 N          -1.1144  -26.0634  -46.9369 N.am      14 UNK        -0.5000 
     80 CA         -0.8006  -25.5753  -48.2769 C.3       14 UNK         0.1400 
     81 CB         -0.0920  -24.2193  -48.1304 C.3       14 UNK        -0.1800 
     82 C          -2.0716  -25.4815  -49.1469 C.2       14 UNK         0.5000 
     83 O          -2.1067  -24.6832  -50.0851 O.2       14 UNK        -0.5000 
     84 N          -3.0997  -26.2797  -48.8126 N.am      15 UNK        -0.5000 
     85 CA         -4.4014  -26.3790  -49.4850 C.3       15 UNK         0.1400 
     86 CB         -4.2402  -26.9786  -50.8979 C.3       15 UNK        -0.1800 
     87 C          -5.1744  -25.0435  -49.4744 C.2       15 UNK         0.5000 
     88 O          -5.6284  -24.5763  -50.5196 O.2       15 UNK        -0.5000 
     89 N          -5.2724  -24.4495  -48.2760 N.am      16 UNK        -0.5000 
     90 CA         -5.8140  -23.1161  -47.9812 C.3       16 UNK         0.1400 
     91 CB         -7.3005  -23.0002  -48.3791 C.3       16 UNK        -0.1800 
     92 C          -4.9290  -21.9920  -48.5606 C.2       16 UNK         0.5000 
     93 O          -5.4490  -20.9619  -48.9886 O.2       16 UNK        -0.5000 
     94 N          -3.6070  -22.2336  -48.5570 N.am      17 UNK        -0.5000 
     95 CA         -2.5380  -21.4348  -49.1652 C.3       17 UNK         0.1400 
     96 CB         -2.2791  -20.1574  -48.3479 C.3       17 UNK        -0.1800 
     97 C          -2.8157  -21.1531  -50.6528 C.2       17 UNK         0.5000 
     98 O          -2.9596  -19.9954  -51.0423 O.2       17 UNK        -0.5000 
     99 N          -2.9327  -22.2343  -51.4387 N.am      18 UNK        -0.5000 
    100 CA        -3.3253  -22.2238  -52.8503 C.3       18 UNK         0.1400 
    101 CB        -3.3148  -23.6592  -53.4004 C.3       18 UNK        -0.1800 
    102 C         -2.4685  -21.2741  -53.7066 C.2       18 UNK         0.5000 
    103 O         -2.9975  -20.2838  -54.2138 O.2       18 UNK        -0.5000 
    104 N         -1.1591  -21.5638  -53.7786 N.am      19 UNK        -0.5000 
    105 CA        -0.0893  -20.7334  -54.3464 C.3       19 UNK         0.1400 
    106 CB         0.3248  -19.6794  -53.2955 C.3       19 UNK        -0.1800 
    107 C         -0.4463  -20.1353  -55.7281 C.2       19 UNK         0.5000 
    108 O         -0.7714  -20.8896  -56.6471 O.2       19 UNK        -0.5000 
    109 N         -0.4177  -18.8020  -55.8340 N.am      20 UNK        -0.5000 
    110 CA        -0.9302  -18.0214  -56.9551 C.3       20 UNK         0.1400 
    111 CB         0.1750  -17.0699  -57.4486 C.3       20 UNK        -0.1800 
    112 C         -2.1863  -17.2779  -56.4688 C.2       20 UNK         0.5000 
    113 O         -2.1594  -16.0579  -56.2962 O.2       20 UNK        -0.5000 
    114 N         -3.2426  -18.0504  -56.1752 N.am      21 UNK        -0.5000 
    115 CA        -4.5309  -17.6239  -55.6105 C.3       21 UNK         0.1400 
    116 CB        -5.3287  -16.8019  -56.6442 C.3       21 UNK        -0.1800 
    117 C         -4.3757  -16.9034  -54.2528 C.2       21 UNK         0.5000 
    118 O         -5.0176  -15.8793  -54.0130 O.2       21 UNK        -0.5000 
    119 N         -3.4878  -17.4417  -53.4068 N.am      22 UNK        -0.5000 
    120 CA        -3.0489  -16.8711  -52.1214 C.3       22 UNK         0.1400 
    121 C         -2.2146  -15.5524  -52.2340 C.2       22 UNK         0.5000 
    122 N         -1.8223  -15.0999  -53.4193 N.am      22 UNK        -0.7600 
    123 O         -1.8657  -14.9438  -51.2257 O.2       22 UNK        -0.5000 
    124 C124       -4.2107  -16.7935  -51.0873 C.3       23 UNK        -0.0398 
    125 S125       -3.6439  -16.8257  -49.3540 S.3       23 UNK        -0.2404 
    126 C126       -5.1653  -17.2725  -48.4580 C.3       23 UNK        -0.0205 
    127 H127       -5.5279  -13.7237  -50.6221 H         1 UNK         0.0600 
    128 H128       -4.1935  -13.1183  -51.6165 H         1 UNK         0.0600 
    129 H129       -5.4786  -12.0256  -51.0896 H         1 UNK         0.0600 
    130 H130       -3.8098  -14.5254  -49.1548 H         1 UNK         0.3000 
    131 H131       -2.8424  -14.5710  -47.2225 H         1 UNK         0.0600 
    132 H132       -4.5802  -12.5824  -46.6402 H         1 UNK         0.0800 
    133 H133       -3.1354  -11.6387  -46.5116 H         1 UNK         0.0800 
    134 H134       -4.9863  -14.2780  -43.3893 H         1 UNK         0.0800 
    135 H135       -5.6765  -13.6687  -44.8686 H         1 UNK         0.0800 
    136 H136       -5.4666  -15.0134  -46.9889 H         1 UNK         0.1150 
    137 H137       -4.3340  -19.1326  -46.6223 H         1 UNK         0.1150 
    138 H138       -3.9444  -16.4980  -43.2698 H         1 UNK         0.1150 
    139 H139       -2.7906  -19.6361  -44.7384 H         1 UNK         0.0800 
    140 H140       -2.7039  -18.5963  -43.3579 H         1 UNK         0.0800 
    141 H141       -5.2824  -21.4200  -44.9808 H         1 UNK         0.0800 
    142 H142       -5.2826  -22.3062  -43.4860 H         1 UNK         0.0800 
    143 H143       -2.9502  -21.7574  -45.3706 H         1 UNK         0.0600 
    144 H144       -1.4424  -21.7995  -43.8255 H         1 UNK         0.3000 
    145 H145       -1.2574  -22.4809  -40.4485 H         1 UNK         0.0600 
    146 H146        0.6801  -23.9787  -40.8355 H         1 UNK         0.0600 
    147 H147       -0.8135  -24.8533  -41.1313 H         1 UNK         0.0600 
    148 H148        0.1514  -24.2853  -42.4892 H         1 UNK         0.0600 
    149 H149        0.7188  -21.9229  -42.5004 H         1 UNK         0.3000 
    150 H150        0.0866  -18.5105  -42.8398 H         1 UNK         0.0600 
    151 H151        1.2064  -18.3802  -40.6031 H         1 UNK         0.0600 
    152 H152        2.3340  -18.0587  -41.9100 H         1 UNK         0.0600 
    153 H153        2.3491  -19.6245  -41.0985 H         1 UNK         0.0600 
    154 H154        2.4092  -19.8561  -43.6012 H         1 UNK         0.3000 
    155 H155        2.1931  -21.6999  -45.7367 H         1 UNK         0.0600 
    156 H156        0.6625  -19.7740  -47.5482 H         1 UNK         0.0600 
    157 H157        0.2619  -21.4584  -47.2679 H         1 UNK         0.0600 
    158 H158        1.7552  -21.0466  -48.0903 H         1 UNK         0.0600 
    159 H159        2.9121  -19.1359  -46.8400 H         1 UNK         0.3000 
    160 H160        5.8842  -18.8441  -44.8744 H         1 UNK         0.0600 
    161 H161        5.6289  -20.0509  -47.6854 H         1 UNK         0.0600 
    162 H162        6.3415  -20.8809  -46.3074 H         1 UNK         0.0600 
    163 H163        7.1063  -19.4400  -46.9444 H         1 UNK         0.0600 
    164 H164        4.0245  -17.5983  -46.7165 H         1 UNK         0.3000 
    165 H165        6.2106  -14.7331  -47.1180 H         1 UNK         0.0600 
    166 H166        4.4872  -16.4243  -48.9987 H         1 UNK         0.0600 
    167 H167        5.0232  -14.7699  -49.2837 H         1 UNK         0.0600 
    168 H168        6.1959  -16.0750  -49.2091 H         1 UNK         0.0600 
    169 H169        3.3862  -14.9070  -47.3150 H         1 UNK         0.3000 
    170 H170        2.6394  -13.9635  -43.9505 H         1 UNK         0.0600 
    171 H171        2.4414  -12.3911  -46.5757 H         1 UNK         0.0600 
    172 H172        1.4821  -12.1122  -45.1243 H         1 UNK         0.0600 
    173 H173        3.2148  -11.8188  -45.1018 H         1 UNK         0.0600 
    174 H174        0.9804  -14.3577  -46.2290 H         1 UNK         0.3000 
    175 H175        0.5099  -17.8946  -45.8248 H         1 UNK         0.0600 
    176 H176       -1.2544  -15.4228  -45.4846 H         1 UNK         0.0600 
    177 H177       -1.8177  -16.9940  -46.0443 H         1 UNK         0.0600 
    178 H178       -1.1699  -16.8148  -44.4169 H         1 UNK         0.0600 
    179 H179       -0.3624  -16.0554  -47.8144 H         1 UNK         0.3000 
    180 H180        2.2871  -16.5038  -50.1126 H         1 UNK         0.0600 
    181 H181        0.3924  -17.2690  -51.5282 H         1 UNK         0.0600 
    182 H182       -0.5765  -17.6029  -50.0923 H         1 UNK         0.0600 
    183 H183        0.8768  -18.5402  -50.4130 H         1 UNK         0.0600 
    184 H184       -0.2263  -15.1346  -50.2567 H         1 UNK         0.3000 
    185 H185        0.8675  -12.0357  -48.8279 H         1 UNK         0.0600 
    186 H186        0.0147  -12.9273  -51.6368 H         1 UNK         0.0600 
    187 H187       -0.1013  -11.2916  -50.9906 H         1 UNK         0.0600 
    188 H188        1.4745  -12.0264  -51.2460 H         1 UNK         0.0600 
    189 H189       -1.6319  -13.1453  -49.8187 H         1 UNK         0.3000 
    190 H190       -4.3372  -24.3235  -43.2911 H         1 UNK         0.3000 
    191 H191       -5.4161  -25.8253  -45.4130 H         1 UNK         0.0600 
    192 H192       -5.7968  -27.5523  -43.6395 H         1 UNK         0.0600 
    193 H193       -6.2480  -25.9459  -43.0912 H         1 UNK         0.0600 
    194 H194       -4.7347  -26.6696  -42.5478 H         1 UNK         0.0600 
    195 H195       -2.2666  -26.1086  -43.8277 H         1 UNK         0.3000 
    196 H196       -1.4355  -28.5974  -44.9372 H         1 UNK         0.0600 
    197 H197        0.2288  -26.2145  -43.9570 H         1 UNK         0.0600 
    198 H198       -0.3863  -27.5182  -42.9389 H         1 UNK         0.0600 
    199 H199        0.8142  -27.8578  -44.1748 H         1 UNK         0.0600 
    200 H200       -1.7457  -25.4776  -46.4018 H         1 UNK         0.3000 
    201 H201       -0.1236  -26.2601  -48.7907 H         1 UNK         0.0600 
    202 H202       -0.7205  -23.5100  -47.5926 H         1 UNK         0.0600 
    203 H203        0.1591  -23.7871  -49.0998 H         1 UNK         0.0600 
    204 H204        0.8395  -24.3228  -47.5739 H         1 UNK         0.0600 
    205 H205       -2.9864  -26.8779  -48.0033 H         1 UNK         0.3000 
    206 H206       -4.9975  -27.0802  -48.8990 H         1 UNK         0.0600 
    207 H207       -3.7351  -27.9436  -50.8596 H         1 UNK         0.0600 
    208 H208       -5.2114  -27.1398  -51.3670 H         1 UNK         0.0600 
    209 H209       -3.6646  -26.3265  -51.5549 H         1 UNK         0.0600 
    210 H210       -4.7859  -24.8873  -47.5051 H         1 UNK         0.3000 
    211 H211       -5.7715  -23.0041  -46.8983 H         1 UNK         0.0600 
    212 H212       -7.7327  -22.0743  -47.9980 H         1 UNK         0.0600 
    213 H213       -7.8849  -23.8234  -47.9683 H         1 UNK         0.0600 
    214 H214       -7.4357  -22.9976  -49.4608 H         1 UNK         0.0600 
    215 H215       -3.3098  -23.1077  -48.1426 H         1 UNK         0.3000 
    216 H216       -1.6295  -22.0333  -49.1319 H         1 UNK         0.0600 
    217 H217       -3.1330  -19.4878  -48.3975 H         1 UNK         0.0600 
    218 H218       -1.4226  -19.6099  -48.7410 H         1 UNK         0.0600 
    219 H219       -2.0776  -20.3799  -47.3004 H         1 UNK         0.0600 
    220 H220       -2.7813  -23.1478  -51.0180 H         1 UNK         0.3000 
    221 H221       -4.3531  -21.8581  -52.8931 H         1 UNK         0.0600 
    222 H222       -3.5521  -23.6741  -54.4649 H         1 UNK         0.0600 
    223 H223       -4.0598  -24.2735  -52.8946 H         1 UNK         0.0600 
    224 H224       -2.3448  -24.1398  -53.2691 H         1 UNK         0.0600 
    225 H225       -0.8508  -22.4162  -53.3340 H         1 UNK         0.3000 
    226 H226        0.7642  -21.3920  -54.5127 H         1 UNK         0.0600 
    227 H227       -0.4969  -19.0035  -53.0549 H         1 UNK         0.0600 
    228 H228        0.6306  -20.1611  -52.3667 H         1 UNK         0.0600 
    229 H229        1.1719  -19.0821  -53.6350 H         1 UNK         0.0600 
    230 H230       -0.1584  -18.2693  -55.0162 H         1 UNK         0.3000 
    231 H231       -1.2239  -18.6655  -57.7865 H         1 UNK         0.0600 
    232 H232        0.5166  -16.3994  -56.6589 H         1 UNK         0.0600 
    233 H233       -0.1816  -16.4531  -58.2743 H         1 UNK         0.0600 
    234 H234        1.0393  -17.6277  -57.8090 H         1 UNK         0.0600 
    235 H235       -3.1215  -19.0530  -56.2417 H         1 UNK         0.3000 
    236 H236       -5.0943  -18.5357  -55.4069 H         1 UNK         0.0600 
    237 H237       -5.4393  -17.3479  -57.5810 H         1 UNK         0.0600 
    238 H238       -6.3320  -16.5814  -56.2779 H         1 UNK         0.0600 
    239 H239       -4.8449  -15.8501  -56.8657 H         1 UNK         0.0600 
    240 H240       -3.0648  -18.3272  -53.6675 H         1 UNK         0.3000 
    241 H241       -2.3323  -17.6005  -51.7481 H         1 UNK         0.0600 
    242 H242       -1.2751  -14.2565  -53.4605 H         1 UNK         0.3800 
    243 H243       -2.0992  -15.5526  -54.2817 H         1 UNK         0.3800 
    244 H244       -4.8256  -15.9098  -51.2564 H         1 UNK         0.0800 
    245 H245       -4.8701  -17.6526  -51.2198 H         1 UNK         0.0800 
    246 H246       -5.4383  -18.3028  -48.6887 H         1 UNK         0.0800 
    247 H247       -5.9916  -16.6433  -48.7921 H         1 UNK         0.0800 
@<TRIPOS>BOND
     1    1    2 1    
     2    1  127 1    
     3    1  128 1    
     4    1  129 1    
     5    2    3 2    
     6    2    4 am   BACKBONE|DICT|INTERRES
     7    4    5 1    
     8    4  130 1    
     9    5    6 1    
    10    5   65 1    
    11    5  131 1    
    12    6    7 1    
    13    6  132 1    
    14    6  133 1    
    15    7    8 1    
    16    8    9 1    
    17    8  134 1    
    18    8  135 1    
    19    9   10 ar   
    20    9   14 ar   
    21   10   11 ar   
    22   10  136 1    
    23   11   12 ar   
    24   11  126 1    
    25   12   13 ar   
    26   12  137 1    
    27   13   14 ar   
    28   13   15 1    
    29   14  138 1    
    30   15   16 1    
    31   15  139 1    
    32   15  140 1    
    33   16   17 1    
    34   17   18 1    
    35   17  141 1    
    36   17  142 1    
    37   18   19 1    
    38   18   67 1    
    39   18  143 1    
    40   19   20 am   BACKBONE|DICT|INTERRES
    41   19  144 1    
    42   20   21 2    
    43   20   22 1    
    44   22   23 1    
    45   22   24 1    
    46   22  145 1    
    47   23  146 1    
    48   23  147 1    
    49   23  148 1    
    50   24   25 am   BACKBONE|DICT|INTERRES
    51   24  149 1    
    52   25   26 2    
    53   25   27 1    
    54   27   28 1    
    55   27   29 1    
    56   27  150 1    
    57   28  151 1    
    58   28  152 1    
    59   28  153 1    
    60   29   30 am   BACKBONE|DICT|INTERRES
    61   29  154 1    
    62   30   31 2    
    63   30   32 1    
    64   32   33 1    
    65   32   34 1    
    66   32  155 1    
    67   33  156 1    
    68   33  157 1    
    69   33  158 1    
    70   34   35 am   BACKBONE|DICT|INTERRES
    71   34  159 1    
    72   35   36 2    
    73   35   37 1    
    74   37   38 1    
    75   37   39 1    
    76   37  160 1    
    77   38  161 1    
    78   38  162 1    
    79   38  163 1    
    80   39   40 am   BACKBONE|DICT|INTERRES
    81   39  164 1    
    82   40   41 2    
    83   40   42 1    
    84   42   43 1    
    85   42   44 1    
    86   42  165 1    
    87   43  166 1    
    88   43  167 1    
    89   43  168 1    
    90   44   45 am   BACKBONE|DICT|INTERRES
    91   44  169 1    
    92   45   46 2    
    93   45   47 1    
    94   47   48 1    
    95   47   49 1    
    96   47  170 1    
    97   48  171 1    
    98   48  172 1    
    99   48  173 1    
   100   49   50 am   BACKBONE|DICT|INTERRES
   101   49  174 1    
   102   50   51 2    
   103   50   52 1    
   104   52   53 1    
   105   52   54 1    
   106   52  175 1    
   107   53  176 1    
   108   53  177 1    
   109   53  178 1    
   110   54   55 am   BACKBONE|DICT|INTERRES
   111   54  179 1    
   112   55   56 2    
   113   55   57 1    
   114   57   58 1    
   115   57   59 1    
   116   57  180 1    
   117   58  181 1    
   118   58  182 1    
   119   58  183 1    
   120   59   60 am   BACKBONE|DICT|INTERRES
   121   59  184 1    
   122   60   61 2    
   123   60   62 1    
   124   62   63 1    
   125   62   64 1    
   126   62  185 1    
   127   63  186 1    
   128   63  187 1    
   129   63  188 1    
   130   64   65 am   BACKBONE|DICT|INTERRES
   131   64  189 1    
   132   65   66 2    
   133   67   68 2    
   134   67   69 am   BACKBONE|DICT|INTERRES
   135   69   70 1    
   136   69  190 1    
   137   70   71 1    
   138   70   72 1    
   139   70  191 1    
   140   71  192 1    
   141   71  193 1    
   142   71  194 1    
   143   72   73 2    
   144   72   74 am   BACKBONE|DICT|INTERRES
   145   74   75 1    
   146   74  195 1    
   147   75   76 1    
   148   75   77 1    
   149   75  196 1    
   150   76  197 1    
   151   76  198 1    
   152   76  199 1    
   153   77   78 2    
   154   77   79 am   BACKBONE|DICT|INTERRES
   155   79   80 1    
   156   79  200 1    
   157   80   81 1    
   158   80   82 1    
   159   80  201 1    
   160   81  202 1    
   161   81  203 1    
   162   81  204 1    
   163   82   83 2    
   164   82   84 am   BACKBONE|DICT|INTERRES
   165   84   85 1    
   166   84  205 1    
   167   85   86 1    
   168   85   87 1    
   169   85  206 1    
   170   86  207 1    
   171   86  208 1    
   172   86  209 1    
   173   87   88 2    
   174   87   89 am   BACKBONE|DICT|INTERRES
   175   89   90 1    
   176   89  210 1    
   177   90   91 1    
   178   90   92 1    
   179   90  211 1    
   180   91  212 1    
   181   91  213 1    
   182   91  214 1    
   183   92   93 2    
   184   92   94 am   BACKBONE|DICT|INTERRES
   185   94   95 1    
   186   94  215 1    
   187   95   96 1    
   188   95   97 1    
   189   95  216 1    
   190   96  217 1    
   191   96  218 1    
   192   96  219 1    
   193   97   98 2    
   194   97   99 am   BACKBONE|DICT|INTERRES
   195   99  100 1    
   196   99  220 1    
   197  100  101 1    
   198  100  102 1    
   199  100  221 1    
   200  101  222 1    
   201  101  223 1    
   202  101  224 1    
   203  102  103 2    
   204  102  104 am   BACKBONE|DICT|INTERRES
   205  104  105 1    
   206  104  225 1    
   207  105  106 1    
   208  105  107 1    
   209  105  226 1    
   210  106  227 1    
   211  106  228 1    
   212  106  229 1    
   213  107  108 2    
   214  107  109 am   BACKBONE|DICT|INTERRES
   215  109  110 1    
   216  109  230 1    
   217  110  111 1    
   218  110  112 1    
   219  110  231 1    
   220  111  232 1    
   221  111  233 1    
   222  111  234 1    
   223  112  113 2    
   224  112  114 am   BACKBONE|DICT|INTERRES
   225  114  115 1    
   226  114  235 1    
   227  115  116 1    
   228  115  117 1    
   229  115  236 1    
   230  116  237 1    
   231  116  238 1    
   232  116  239 1    
   233  117  118 2    
   234  117  119 am   BACKBONE|DICT|INTERRES
   235  119  120 1    
   236  119  240 1    
   237  120  121 1    
   238  120  124 1    
   239  120  241 1    
   240  121  122 am   BACKBONE|DICT|INTERRES
   241  121  123 2    
   242  122  242 1    
   243  122  243 1    
   244  124  125 1    
   245  124  244 1    
   246  124  245 1    
   247  125  126 1    
   248  126  246 1    
   249  126  247 1    
@<TRIPOS>SUBSTRUCTURE
     1 UNK         1 GROUP             0       ****    0 ROOT    
