@<TRIPOS>MOLECULE
3R540
247   249    1
SMALL
USER_CHARGES


@<TRIPOS>ATOM
      1 CA         -4.5960  -14.5075  -44.2965 C.3       0 UNK        -0.1800 
      2 C          -3.7837  -13.2196  -44.3098 C.2       0 UNK         0.5000 
      3 O          -4.1823  -12.2356  -43.6864 O.2       0 UNK        -0.5000 
      4 N          -2.6566  -13.2232  -45.0309 N.am      1 UNK        -0.5000 
      5 CA         -1.7179  -12.1046  -45.1635 C.3       1 UNK         0.1400 
      6 C6         -0.6242  -12.3797  -46.2261 C.3       23 UNK        -0.0398 
      7 S7         -1.2939  -12.9339  -47.8314 S.3       23 UNK        -0.2404 
      8 C8         -0.6319  -14.6275  -47.9070 C.3       23 UNK        -0.0205 
      9 C9         -1.3800  -15.4687  -48.9267 C.ar      23 UNK        -0.0193 
     10 C10        -0.9778  -15.4773  -50.2657 C.ar      23 UNK        -0.1150 
     11 C11        -1.6774  -16.2358  -51.2087 C.ar      23 UNK        -0.0193 
     12 C12        -2.7789  -16.9932  -50.8028 C.ar      23 UNK        -0.1150 
     13 C13        -3.1817  -17.0045  -49.4655 C.ar      23 UNK        -0.0193 
     14 C14        -2.4800  -16.2370  -48.5313 C.ar      23 UNK        -0.1150 
     15 C15        -4.3822  -17.8373  -49.0391 C.3       23 UNK        -0.0205 
     16 S16        -4.0341  -19.6230  -49.1045 S.3       23 UNK        -0.2404 
     17 C17        -2.7484  -19.7715  -47.8190 C.3       23 UNK        -0.0398 
     18 CA         -2.4401  -21.2387  -47.4361 C.3       11 UNK         0.1400 
     19 N          -1.1304  -21.3775  -46.7976 N.am      11 UNK        -0.5000 
     20 C          -0.5230  -22.5392  -46.5184 C.2       10 UNK         0.5000 
     21 O          -0.9911  -23.6424  -46.7997 O.2       10 UNK        -0.5000 
     22 CA          0.8112  -22.4551  -45.7537 C.3       10 UNK         0.1400 
     23 CB          1.9720  -22.1525  -46.7123 C.3       10 UNK        -0.1800 
     24 N           0.7834  -21.4625  -44.6767 N.am      10 UNK        -0.5000 
     25 C          -0.0270  -21.5325  -43.6101 C.2       9 UNK         0.5000 
     26 O          -0.8016  -22.4650  -43.4027 O.2       9 UNK        -0.5000 
     27 CA         -0.0184  -20.3373  -42.6422 C.3       9 UNK         0.1400 
     28 CB          1.1984  -20.3946  -41.7070 C.3       9 UNK        -0.1800 
     29 N          -0.0494  -19.0526  -43.3395 N.am      9 UNK        -0.5000 
     30 C          -1.0459  -18.6397  -44.1360 C.2       8 UNK         0.5000 
     31 O          -2.0776  -19.2812  -44.3362 O.2       8 UNK        -0.5000 
     32 CA         -0.8246  -17.3106  -44.8794 C.3       8 UNK         0.1400 
     33 CB         -1.0541  -16.1166  -43.9430 C.3       8 UNK        -0.1800 
     34 N           0.5095  -17.2202  -45.4749 N.am      8 UNK        -0.5000 
     35 C           0.9799  -18.0537  -46.4142 C.2       7 UNK         0.5000 
     36 O           0.3168  -18.9552  -46.9205 O.2       7 UNK        -0.5000 
     37 CA          2.4552  -17.8965  -46.8122 C.3       7 UNK         0.1400 
     38 CB          2.6244  -16.8143  -47.8874 C.3       7 UNK        -0.1800 
     39 N           3.2949  -17.5931  -45.6541 N.am      7 UNK        -0.5000 
     40 C           3.5779  -18.4735  -44.6831 C.2       6 UNK         0.5000 
     41 O           3.2036  -19.6467  -44.6941 O.2       6 UNK        -0.5000 
     42 CA          4.3735  -17.9383  -43.4780 C.3       6 UNK         0.1400 
     43 CB          5.8786  -17.9241  -43.7833 C.3       6 UNK        -0.1800 
     44 N           3.9448  -16.5967  -43.0769 N.am      6 UNK        -0.5000 
     45 C           2.7443  -16.3150  -42.5508 C.2       5 UNK         0.5000 
     46 O           1.8960  -17.1700  -42.3005 O.2       5 UNK        -0.5000 
     47 CA          2.4181  -14.8296  -42.3043 C.3       5 UNK         0.1400 
     48 CB          2.8362  -14.4087  -40.8884 C.3       5 UNK        -0.1800 
     49 N           3.0293  -13.9204  -43.2760 N.am      5 UNK        -0.5000 
     50 C           2.7923  -13.9243  -44.5935 C.2       4 UNK         0.5000 
     51 O           2.0644  -14.7484  -45.1501 O.2       4 UNK        -0.5000 
     52 CA          3.4781  -12.8099  -45.4074 C.3       4 UNK         0.1400 
     53 CB          3.1852  -12.8967  -46.9160 C.3       4 UNK        -0.1800 
     54 N           3.0832  -11.4876  -44.9207 N.am      4 UNK        -0.5000 
     55 C           3.6550  -10.8409  -43.8966 C.2       3 UNK         0.5000 
     56 O           4.5792  -11.3046  -43.2271 O.2       3 UNK        -0.5000 
     57 CA          3.0656   -9.4655  -43.5467 C.3       3 UNK         0.1400 
     58 CB          3.3641   -8.4355  -44.6484 C.3       3 UNK        -0.1800 
     59 N           1.6215   -9.5445  -43.3266 N.am      3 UNK        -0.5000 
     60 C           1.0559  -10.0054  -42.2017 C.2       2 UNK         0.5000 
     61 O           1.6920  -10.4029  -41.2252 O.2       2 UNK        -0.5000 
     62 CA         -0.4829  -10.0215  -42.1644 C.3       2 UNK         0.1400 
     63 CB         -1.0341   -8.6249  -41.8368 C.3       2 UNK        -0.1800 
     64 N          -1.0709  -10.4951  -43.4193 N.am      2 UNK        -0.5000 
     65 C          -1.0559  -11.7763  -43.8088 C.2       1 UNK         0.5000 
     66 O          -0.5337  -12.6825  -43.1564 O.2       1 UNK        -0.5000 
     67 C          -3.5733  -21.8752  -46.6064 C.2       11 UNK         0.5000 
     68 O          -4.4501  -22.5195  -47.1818 O.2       11 UNK        -0.5000 
     69 N          -3.5169  -21.7053  -45.2788 N.am      12 UNK        -0.5000 
     70 CA         -4.4510  -22.3057  -44.3294 C.3       12 UNK         0.1400 
     71 CB         -4.3412  -21.5720  -42.9838 C.3       12 UNK        -0.1800 
     72 C          -4.2318  -23.8198  -44.1441 C.2       12 UNK         0.5000 
     73 O          -5.2101  -24.5578  -44.0197 O.2       12 UNK        -0.5000 
     74 N          -2.9633  -24.2514  -44.0979 N.am      13 UNK        -0.5000 
     75 CA         -2.5667  -25.6431  -43.8802 C.3       13 UNK         0.1400 
     76 CB         -1.0754  -25.7027  -43.5137 C.3       13 UNK        -0.1800 
     77 C          -2.8650  -26.5526  -45.0843 C.2       13 UNK         0.5000 
     78 O          -3.4197  -27.6380  -44.9024 O.2       13 UNK        -0.5000 
     79 N          -2.4831  -26.1030  -46.2855 N.am      14 UNK        -0.5000 
     80 CA         -2.7327  -26.7998  -47.5461 C.3       14 UNK         0.1400 
     81 CB         -1.6341  -26.4057  -48.5471 C.3       14 UNK        -0.1800 
     82 C          -4.1297  -26.4688  -48.1031 C.2       14 UNK         0.5000 
     83 O          -4.8368  -25.6144  -47.5654 O.2       14 UNK        -0.5000 
     84 N          -4.4977  -27.1311  -49.2062 N.am      15 UNK        -0.5000 
     85 CA         -5.7161  -26.8676  -49.9723 C.3       15 UNK         0.1400 
     86 CB         -6.0106  -28.0869  -50.8642 C.3       15 UNK        -0.1800 
     87 C          -5.5686  -25.5673  -50.7879 C.2       15 UNK         0.5000 
     88 O          -5.2686  -25.6241  -51.9814 O.2       15 UNK        -0.5000 
     89 N          -5.7072  -24.4203  -50.1060 N.am      16 UNK        -0.5000 
     90 CA         -5.5427  -23.0547  -50.6206 C.3       16 UNK         0.1400 
     91 CB         -6.6861  -22.6940  -51.5912 C.3       16 UNK        -0.1800 
     92 C          -4.1437  -22.8409  -51.2308 C.2       16 UNK         0.5000 
     93 O          -4.0190  -22.4526  -52.3931 O.2       16 UNK        -0.5000 
     94 N          -3.1144  -23.1747  -50.4403 N.am      17 UNK        -0.5000 
     95 CA         -1.6840  -23.1382  -50.7812 C.3       17 UNK         0.1400 
     96 CB         -1.2371  -21.7130  -51.1793 C.3       17 UNK        -0.1800 
     97 C          -1.2717  -24.1881  -51.8361 C.2       17 UNK         0.5000 
     98 O          -0.1840  -24.0772  -52.4014 O.2       17 UNK        -0.5000 
     99 N          -2.1504  -25.1661  -52.1126 N.am      18 UNK        -0.5000 
    100 CA        -2.0660  -26.2492  -53.1064 C.3       18 UNK         0.1400 
    101 CB        -0.8389  -27.1475  -52.8627 C.3       18 UNK        -0.1800 
    102 C         -2.1336  -25.7739  -54.5736 C.2       18 UNK         0.5000 
    103 O         -2.6943  -26.4764  -55.4146 O.2       18 UNK        -0.5000 
    104 N         -1.5975  -24.5805  -54.8497 N.am      19 UNK        -0.5000 
    105 CA        -1.6227  -23.8853  -56.1358 C.3       19 UNK         0.1400 
    106 CB        -0.4957  -22.8400  -56.1313 C.3       19 UNK        -0.1800 
    107 C         -2.9786  -23.2217  -56.4602 C.2       19 UNK         0.5000 
    108 O         -3.1206  -22.6763  -57.5543 O.2       19 UNK        -0.5000 
    109 N         -3.9318  -23.2650  -55.5160 N.am      20 UNK        -0.5000 
    110 CA        -5.2622  -22.6518  -55.5525 C.3       20 UNK         0.1400 
    111 CB        -6.1085  -23.1764  -56.7319 C.3       20 UNK        -0.1800 
    112 C         -5.1561  -21.1176  -55.5040 C.2       20 UNK         0.5000 
    113 O         -5.3796  -20.4368  -56.5064 O.2       20 UNK        -0.5000 
    114 N         -4.7711  -20.6214  -54.3213 N.am      21 UNK        -0.5000 
    115 CA        -4.5447  -19.2192  -53.9645 C.3       21 UNK         0.1400 
    116 CB        -5.8515  -18.4034  -54.0404 C.3       21 UNK        -0.1800 
    117 C         -3.3816  -18.6005  -54.7636 C.2       21 UNK         0.5000 
    118 O         -3.5113  -17.5076  -55.3172 O.2       21 UNK        -0.5000 
    119 N         -2.2619  -19.3344  -54.7981 N.am      22 UNK        -0.5000 
    120 CA        -0.9907  -18.9711  -55.4531 C.3       22 UNK         0.1400 
    121 C         -1.0267  -18.9901  -57.0127 C.2       22 UNK         0.5000 
    122 N         -2.0670  -19.5102  -57.6519 N.am      22 UNK        -0.7600 
    123 O         -0.0782  -18.5555  -57.6603 O.2       22 UNK        -0.5000 
    124 C124       -0.3455  -17.6666  -54.8979 C.3       23 UNK        -0.0398 
    125 S125       -0.2030  -17.6459  -53.0750 S.3       23 UNK        -0.2404 
    126 C126       -1.2673  -16.2263  -52.6710 C.3       23 UNK        -0.0205 
    127 H127       -4.6182  -14.9260  -43.2904 H         1 UNK         0.0600 
    128 H128       -5.6217  -14.3079  -44.6069 H         1 UNK         0.0600 
    129 H129       -4.1795  -15.2578  -44.9692 H         1 UNK         0.0600 
    130 H130       -2.3975  -14.0577  -45.5327 H         1 UNK         0.3000 
    131 H131       -2.2960  -11.2377  -45.4906 H         1 UNK         0.0600 
    132 H132       -0.0405  -11.4756  -46.4055 H         1 UNK         0.0800 
    133 H133        0.0817  -13.1256  -45.8593 H         1 UNK         0.0800 
    134 H134       -0.6972  -15.0977  -46.9264 H         1 UNK         0.0800 
    135 H135        0.4281  -14.5842  -48.1582 H         1 UNK         0.0800 
    136 H136       -0.1284  -14.8844  -50.5750 H         1 UNK         0.1150 
    137 H137       -3.3218  -17.5805  -51.5281 H         1 UNK         0.1150 
    138 H138       -2.7950  -16.2309  -47.4980 H         1 UNK         0.1150 
    139 H139       -4.7070  -17.5684  -48.0328 H         1 UNK         0.0800 
    140 H140       -5.2220  -17.6180  -49.6999 H         1 UNK         0.0800 
    141 H141       -3.0264  -19.1847  -46.9420 H         1 UNK         0.0800 
    142 H142       -1.8541  -19.3021  -48.2292 H         1 UNK         0.0800 
    143 H143       -2.3691  -21.8092  -48.3577 H         1 UNK         0.0600 
    144 H144       -0.6400  -20.5109  -46.5885 H         1 UNK         0.3000 
    145 H145        0.9944  -23.4311  -45.3000 H         1 UNK         0.0600 
    146 H146        2.9270  -22.1512  -46.1866 H         1 UNK         0.0600 
    147 H147        2.0338  -22.9053  -47.4992 H         1 UNK         0.0600 
    148 H148        1.8555  -21.1825  -47.1952 H         1 UNK         0.0600 
    149 H149        1.4222  -20.6785  -44.7590 H         1 UNK         0.3000 
    150 H150       -0.9198  -20.4020  -42.0292 H         1 UNK         0.0600 
    151 H151        1.2314  -21.3414  -41.1666 H         1 UNK         0.0600 
    152 H152        1.1614  -19.5973  -40.9646 H         1 UNK         0.0600 
    153 H153        2.1352  -20.2959  -42.2555 H         1 UNK         0.0600 
    154 H154        0.7416  -18.4336  -43.1846 H         1 UNK         0.3000 
    155 H155       -1.5512  -17.2554  -45.6916 H         1 UNK         0.0600 
    156 H156       -0.4562  -16.1901  -43.0357 H         1 UNK         0.0600 
    157 H157       -2.0980  -16.0594  -43.6348 H         1 UNK         0.0600 
    158 H158       -0.7961  -15.1761  -44.4270 H         1 UNK         0.0600 
    159 H159        1.1134  -16.4724  -45.1472 H         1 UNK         0.3000 
    160 H160        2.7892  -18.8454  -47.2372 H         1 UNK         0.0600 
    161 H161        3.6622  -16.7377  -48.2117 H         1 UNK         0.0600 
    162 H162        2.3126  -15.8365  -47.5258 H         1 UNK         0.0600 
    163 H163        2.0226  -17.0432  -48.7680 H         1 UNK         0.0600 
    164 H164        3.5812  -16.6319  -45.5408 H         1 UNK         0.3000 
    165 H165        4.2020  -18.6159  -42.6387 H         1 UNK         0.0600 
    166 H166        6.4548  -17.6182  -42.9099 H         1 UNK         0.0600 
    167 H167        6.2273  -18.9172  -44.0698 H         1 UNK         0.0600 
    168 H168        6.1195  -17.2430  -44.6004 H         1 UNK         0.0600 
    169 H169        4.5869  -15.8369  -43.2471 H         1 UNK         0.3000 
    170 H170        1.3359  -14.7131  -42.3860 H         1 UNK         0.0600 
    171 H171        2.3753  -15.0517  -40.1374 H         1 UNK         0.0600 
    172 H172        3.9170  -14.4661  -40.7536 H         1 UNK         0.0600 
    173 H173        2.5244  -13.3858  -40.6749 H         1 UNK         0.0600 
    174 H174        3.6273  -13.1900  -42.9075 H         1 UNK         0.3000 
    175 H175        4.5556  -12.9335  -45.2788 H         1 UNK         0.0600 
    176 H176        2.1197  -12.8320  -47.1335 H         1 UNK         0.0600 
    177 H177        3.6853  -12.0952  -47.4598 H         1 UNK         0.0600 
    178 H178        3.5502  -13.8373  -47.3284 H         1 UNK         0.0600 
    179 H179        2.3099  -11.0475  -45.3944 H         1 UNK         0.3000 
    180 H180        3.5449   -9.1191  -42.6283 H         1 UNK         0.0600 
    181 H181        2.8834   -8.6937  -45.5926 H         1 UNK         0.0600 
    182 H182        4.4366   -8.3642  -44.8347 H         1 UNK         0.0600 
    183 H183        3.0197   -7.4423  -44.3596 H         1 UNK         0.0600 
    184 H184        1.0233   -9.2287  -44.0751 H         1 UNK         0.3000 
    185 H185       -0.7886  -10.6985  -41.3634 H         1 UNK         0.0600 
    186 H186       -0.6227   -8.2542  -40.8970 H         1 UNK         0.0600 
    187 H187       -0.7872   -7.8987  -42.6121 H         1 UNK         0.0600 
    188 H188       -2.1188   -8.6453  -41.7291 H         1 UNK         0.0600 
    189 H189       -1.5335   -9.8048  -43.9933 H         1 UNK         0.3000 
    190 H190       -2.7894  -21.1126  -44.8921 H         1 UNK         0.3000 
    191 H191       -5.4644  -22.1610  -44.7099 H         1 UNK         0.0600 
    192 H192       -3.3409  -21.6583  -42.5580 H         1 UNK         0.0600 
    193 H193       -5.0448  -21.9800  -42.2572 H         1 UNK         0.0600 
    194 H194       -4.5651  -20.5108  -43.0947 H         1 UNK         0.0600 
    195 H195       -2.2129  -23.5676  -44.1345 H         1 UNK         0.3000 
    196 H196       -3.1339  -26.0253  -43.0288 H         1 UNK         0.0600 
    197 H197       -0.4499  -25.2839  -44.3028 H         1 UNK         0.0600 
    198 H198       -0.7530  -26.7315  -43.3485 H         1 UNK         0.0600 
    199 H199       -0.8731  -25.1482  -42.5973 H         1 UNK         0.0600 
    200 H200       -2.0560  -25.1832  -46.3566 H         1 UNK         0.3000 
    201 H201       -2.6786  -27.8781  -47.3824 H         1 UNK         0.0600 
    202 H202       -1.7251  -26.9569  -49.4834 H         1 UNK         0.0600 
    203 H203       -0.6421  -26.6141  -48.1459 H         1 UNK         0.0600 
    204 H204       -1.6793  -25.3448  -48.7839 H         1 UNK         0.0600 
    205 H205       -3.8666  -27.8143  -49.5991 H         1 UNK         0.3000 
    206 H206       -6.5558  -26.7446  -49.2848 H         1 UNK         0.0600 
    207 H207       -6.1788  -28.9814  -50.2643 H         1 UNK         0.0600 
    208 H208       -6.9081  -27.9241  -51.4622 H         1 UNK         0.0600 
    209 H209       -5.1905  -28.2951  -51.5527 H         1 UNK         0.0600 
    210 H210       -5.8378  -24.4951  -49.1021 H         1 UNK         0.3000 
    211 H211       -5.6121  -22.3829  -49.7639 H         1 UNK         0.0600 
    212 H212       -6.6938  -23.3394  -52.4692 H         1 UNK         0.0600 
    213 H213       -6.5945  -21.6643  -51.9393 H         1 UNK         0.0600 
    214 H214       -7.6564  -22.7853  -51.1033 H         1 UNK         0.0600 
    215 H215       -3.3367  -23.5087  -49.5121 H         1 UNK         0.3000 
    216 H216       -1.1447  -23.3972  -49.8699 H         1 UNK         0.0600 
    217 H217       -1.6310  -21.4158  -52.1512 H         1 UNK         0.0600 
    218 H218       -0.1502  -21.6485  -51.2407 H         1 UNK         0.0600 
    219 H219       -1.5587  -20.9707  -50.4501 H         1 UNK         0.0600 
    220 H220       -3.0505  -25.1042  -51.6561 H         1 UNK         0.3000 
    221 H221       -2.9536  -26.8625  -52.9431 H         1 UNK         0.0600 
    222 H222        0.0977  -26.6214  -53.0485 H         1 UNK         0.0600 
    223 H223       -0.8184  -27.5192  -51.8384 H         1 UNK         0.0600 
    224 H224       -0.8581  -28.0154  -53.5229 H         1 UNK         0.0600 
    225 H225       -1.1033  -24.1188  -54.0925 H         1 UNK         0.3000 
    226 H226       -1.4189  -24.6087  -56.9277 H         1 UNK         0.0600 
    227 H227        0.4785  -23.3129  -56.0059 H         1 UNK         0.0600 
    228 H228       -0.4659  -22.2816  -57.0679 H         1 UNK         0.0600 
    229 H229       -0.6245  -22.1227  -55.3211 H         1 UNK         0.0600 
    230 H230       -3.6881  -23.6997  -54.6367 H         1 UNK         0.3000 
    231 H231       -5.7664  -22.9656  -54.6380 H         1 UNK         0.0600 
    232 H232       -6.1662  -24.2648  -56.7204 H         1 UNK         0.0600 
    233 H233       -5.7088  -22.8721  -57.6993 H         1 UNK         0.0600 
    234 H234       -7.1284  -22.7956  -56.6714 H         1 UNK         0.0600 
    235 H235       -4.5497  -21.2934  -53.5854 H         1 UNK         0.3000 
    236 H236       -4.2279  -19.2275  -52.9209 H         1 UNK         0.0600 
    237 H237       -5.7018  -17.3942  -53.6551 H         1 UNK         0.0600 
    238 H238       -6.2160  -18.3112  -55.0638 H         1 UNK         0.0600 
    239 H239       -6.6382  -18.8649  -53.4435 H         1 UNK         0.0600 
    240 H240       -2.2681  -20.2250  -54.3243 H         1 UNK         0.3000 
    241 H241       -0.3074  -19.7798  -55.1948 H         1 UNK         0.0600 
    242 H242       -2.8577  -19.8812  -57.1469 H         1 UNK         0.3800 
    243 H243       -2.0671  -19.5323  -58.6591 H         1 UNK         0.3800 
    244 H244        0.6626  -17.5482  -55.2982 H         1 UNK         0.0800 
    245 H245       -0.9013  -16.7925  -55.2397 H         1 UNK         0.0800 
    246 H246       -0.7424  -15.3016  -52.9157 H         1 UNK         0.0800 
    247 H247       -2.1639  -16.2419  -53.2913 H         1 UNK         0.0800 
@<TRIPOS>BOND
     1    1    2 1    
     2    1  127 1    
     3    1  128 1    
     4    1  129 1    
     5    2    3 2    
     6    2    4 am   BACKBONE|DICT|INTERRES
     7    4    5 1    
     8    4  130 1    
     9    5    6 1    
    10    5   65 1    
    11    5  131 1    
    12    6    7 1    
    13    6  132 1    
    14    6  133 1    
    15    7    8 1    
    16    8    9 1    
    17    8  134 1    
    18    8  135 1    
    19    9   10 ar   
    20    9   14 ar   
    21   10   11 ar   
    22   10  136 1    
    23   11   12 ar   
    24   11  126 1    
    25   12   13 ar   
    26   12  137 1    
    27   13   14 ar   
    28   13   15 1    
    29   14  138 1    
    30   15   16 1    
    31   15  139 1    
    32   15  140 1    
    33   16   17 1    
    34   17   18 1    
    35   17  141 1    
    36   17  142 1    
    37   18   19 1    
    38   18   67 1    
    39   18  143 1    
    40   19   20 am   BACKBONE|DICT|INTERRES
    41   19  144 1    
    42   20   21 2    
    43   20   22 1    
    44   22   23 1    
    45   22   24 1    
    46   22  145 1    
    47   23  146 1    
    48   23  147 1    
    49   23  148 1    
    50   24   25 am   BACKBONE|DICT|INTERRES
    51   24  149 1    
    52   25   26 2    
    53   25   27 1    
    54   27   28 1    
    55   27   29 1    
    56   27  150 1    
    57   28  151 1    
    58   28  152 1    
    59   28  153 1    
    60   29   30 am   BACKBONE|DICT|INTERRES
    61   29  154 1    
    62   30   31 2    
    63   30   32 1    
    64   32   33 1    
    65   32   34 1    
    66   32  155 1    
    67   33  156 1    
    68   33  157 1    
    69   33  158 1    
    70   34   35 am   BACKBONE|DICT|INTERRES
    71   34  159 1    
    72   35   36 2    
    73   35   37 1    
    74   37   38 1    
    75   37   39 1    
    76   37  160 1    
    77   38  161 1    
    78   38  162 1    
    79   38  163 1    
    80   39   40 am   BACKBONE|DICT|INTERRES
    81   39  164 1    
    82   40   41 2    
    83   40   42 1    
    84   42   43 1    
    85   42   44 1    
    86   42  165 1    
    87   43  166 1    
    88   43  167 1    
    89   43  168 1    
    90   44   45 am   BACKBONE|DICT|INTERRES
    91   44  169 1    
    92   45   46 2    
    93   45   47 1    
    94   47   48 1    
    95   47   49 1    
    96   47  170 1    
    97   48  171 1    
    98   48  172 1    
    99   48  173 1    
   100   49   50 am   BACKBONE|DICT|INTERRES
   101   49  174 1    
   102   50   51 2    
   103   50   52 1    
   104   52   53 1    
   105   52   54 1    
   106   52  175 1    
   107   53  176 1    
   108   53  177 1    
   109   53  178 1    
   110   54   55 am   BACKBONE|DICT|INTERRES
   111   54  179 1    
   112   55   56 2    
   113   55   57 1    
   114   57   58 1    
   115   57   59 1    
   116   57  180 1    
   117   58  181 1    
   118   58  182 1    
   119   58  183 1    
   120   59   60 am   BACKBONE|DICT|INTERRES
   121   59  184 1    
   122   60   61 2    
   123   60   62 1    
   124   62   63 1    
   125   62   64 1    
   126   62  185 1    
   127   63  186 1    
   128   63  187 1    
   129   63  188 1    
   130   64   65 am   BACKBONE|DICT|INTERRES
   131   64  189 1    
   132   65   66 2    
   133   67   68 2    
   134   67   69 am   BACKBONE|DICT|INTERRES
   135   69   70 1    
   136   69  190 1    
   137   70   71 1    
   138   70   72 1    
   139   70  191 1    
   140   71  192 1    
   141   71  193 1    
   142   71  194 1    
   143   72   73 2    
   144   72   74 am   BACKBONE|DICT|INTERRES
   145   74   75 1    
   146   74  195 1    
   147   75   76 1    
   148   75   77 1    
   149   75  196 1    
   150   76  197 1    
   151   76  198 1    
   152   76  199 1    
   153   77   78 2    
   154   77   79 am   BACKBONE|DICT|INTERRES
   155   79   80 1    
   156   79  200 1    
   157   80   81 1    
   158   80   82 1    
   159   80  201 1    
   160   81  202 1    
   161   81  203 1    
   162   81  204 1    
   163   82   83 2    
   164   82   84 am   BACKBONE|DICT|INTERRES
   165   84   85 1    
   166   84  205 1    
   167   85   86 1    
   168   85   87 1    
   169   85  206 1    
   170   86  207 1    
   171   86  208 1    
   172   86  209 1    
   173   87   88 2    
   174   87   89 am   BACKBONE|DICT|INTERRES
   175   89   90 1    
   176   89  210 1    
   177   90   91 1    
   178   90   92 1    
   179   90  211 1    
   180   91  212 1    
   181   91  213 1    
   182   91  214 1    
   183   92   93 2    
   184   92   94 am   BACKBONE|DICT|INTERRES
   185   94   95 1    
   186   94  215 1    
   187   95   96 1    
   188   95   97 1    
   189   95  216 1    
   190   96  217 1    
   191   96  218 1    
   192   96  219 1    
   193   97   98 2    
   194   97   99 am   BACKBONE|DICT|INTERRES
   195   99  100 1    
   196   99  220 1    
   197  100  101 1    
   198  100  102 1    
   199  100  221 1    
   200  101  222 1    
   201  101  223 1    
   202  101  224 1    
   203  102  103 2    
   204  102  104 am   BACKBONE|DICT|INTERRES
   205  104  105 1    
   206  104  225 1    
   207  105  106 1    
   208  105  107 1    
   209  105  226 1    
   210  106  227 1    
   211  106  228 1    
   212  106  229 1    
   213  107  108 2    
   214  107  109 am   BACKBONE|DICT|INTERRES
   215  109  110 1    
   216  109  230 1    
   217  110  111 1    
   218  110  112 1    
   219  110  231 1    
   220  111  232 1    
   221  111  233 1    
   222  111  234 1    
   223  112  113 2    
   224  112  114 am   BACKBONE|DICT|INTERRES
   225  114  115 1    
   226  114  235 1    
   227  115  116 1    
   228  115  117 1    
   229  115  236 1    
   230  116  237 1    
   231  116  238 1    
   232  116  239 1    
   233  117  118 2    
   234  117  119 am   BACKBONE|DICT|INTERRES
   235  119  120 1    
   236  119  240 1    
   237  120  121 1    
   238  120  124 1    
   239  120  241 1    
   240  121  122 am   BACKBONE|DICT|INTERRES
   241  121  123 2    
   242  122  242 1    
   243  122  243 1    
   244  124  125 1    
   245  124  244 1    
   246  124  245 1    
   247  125  126 1    
   248  126  246 1    
   249  126  247 1    
@<TRIPOS>SUBSTRUCTURE
     1 UNK         1 GROUP             0       ****    0 ROOT    
