@<TRIPOS>MOLECULE
3R540
247   249    1
SMALL
USER_CHARGES


@<TRIPOS>ATOM
      1 CA          5.2146  -12.2235  -49.9672 C.3       0 UNK        -0.1800 
      2 C           3.8864  -12.4105  -49.2485 C.2       0 UNK         0.5000 
      3 O           3.0632  -11.4950  -49.2385 O.2       0 UNK        -0.5000 
      4 N           3.6860  -13.5838  -48.6315 N.am      1 UNK        -0.5000 
      5 CA          2.4914  -14.0432  -47.8983 C.3       1 UNK         0.1400 
      6 C6          1.1702  -14.0219  -48.7177 C.3       23 UNK        -0.0398 
      7 S7          1.3299  -14.8368  -50.3439 S.3       23 UNK        -0.2404 
      8 C8          0.7201  -16.5138  -49.9952 C.3       23 UNK        -0.0205 
      9 C9         -0.7946  -16.6174  -50.1008 C.ar      23 UNK        -0.0193 
     10 C10        -1.4186  -16.5031  -51.3481 C.ar      23 UNK        -0.1150 
     11 C11        -2.8007  -16.6763  -51.4802 C.ar      23 UNK        -0.0193 
     12 C12        -3.5529  -16.9771  -50.3405 C.ar      23 UNK        -0.1150 
     13 C13        -2.9427  -17.1084  -49.0928 C.ar      23 UNK        -0.0193 
     14 C14        -1.5656  -16.9021  -48.9707 C.ar      23 UNK        -0.1150 
     15 C15        -3.7746  -17.5490  -47.8998 C.3       23 UNK        -0.0205 
     16 S16        -4.1164  -19.3358  -47.9752 S.3       23 UNK        -0.2404 
     17 C17        -2.4463  -19.9955  -47.6578 C.3       23 UNK        -0.0398 
     18 CA         -2.2769  -21.5239  -47.8282 C.3       11 UNK         0.1400 
     19 N          -0.8629  -21.8624  -47.6446 N.am      11 UNK        -0.5000 
     20 C          -0.3037  -23.0603  -47.4290 C.2       10 UNK         0.5000 
     21 O          -0.9004  -24.1323  -47.5179 O.2       10 UNK        -0.5000 
     22 CA          1.1638  -23.0458  -46.9577 C.3       10 UNK         0.1400 
     23 CB          2.1028  -23.2823  -48.1489 C.3       10 UNK        -0.1800 
     24 N           1.5611  -21.8077  -46.2686 N.am      10 UNK        -0.5000 
     25 C           0.9412  -21.2440  -45.2187 C.2       9 UNK         0.5000 
     26 O          -0.0497  -21.7351  -44.6656 O.2       9 UNK        -0.5000 
     27 CA          1.4733  -19.8594  -44.7975 C.3       9 UNK         0.1400 
     28 CB          1.2611  -18.8330  -45.9267 C.3       9 UNK        -0.1800 
     29 N           0.8175  -19.3665  -43.5873 N.am      9 UNK        -0.5000 
     30 C           1.0903  -19.7963  -42.3472 C.2       8 UNK         0.5000 
     31 O           1.9702  -20.6222  -42.0975 O.2       8 UNK        -0.5000 
     32 CA          0.2675  -19.2046  -41.1855 C.3       8 UNK         0.1400 
     33 CB          1.1809  -18.5890  -40.1113 C.3       8 UNK        -0.1800 
     34 N          -0.7027  -18.1990  -41.6355 N.am      8 UNK        -0.5000 
     35 C          -2.0021  -18.4616  -41.8378 C.2       7 UNK         0.5000 
     36 O          -2.5082  -19.5651  -41.6386 O.2       7 UNK        -0.5000 
     37 CA         -2.9098  -17.3199  -42.3316 C.3       7 UNK         0.1400 
     38 CB         -3.5987  -16.6359  -41.1410 C.3       7 UNK        -0.1800 
     39 N          -2.2421  -16.2973  -43.1327 N.am      7 UNK        -0.5000 
     40 C          -1.6790  -16.4629  -44.3338 C.2       6 UNK         0.5000 
     41 O          -1.5748  -17.5576  -44.8847 O.2       6 UNK        -0.5000 
     42 CA         -1.1231  -15.2023  -45.0353 C.3       6 UNK         0.1400 
     43 CB         -2.2187  -14.4528  -45.8142 C.3       6 UNK        -0.1800 
     44 N          -0.3885  -14.2920  -44.1486 N.am      6 UNK        -0.5000 
     45 C          -0.8166  -13.6054  -43.0771 C.2       5 UNK         0.5000 
     46 O          -2.0024  -13.5171  -42.7545 O.2       5 UNK        -0.5000 
     47 CA          0.2686  -12.9688  -42.1792 C.3       5 UNK         0.1400 
     48 CB         -0.1572  -12.9193  -40.6976 C.3       5 UNK        -0.1800 
     49 N           1.5875  -13.6050  -42.3012 N.am      5 UNK        -0.5000 
     50 C           1.8983  -14.9005  -42.1188 C.2       4 UNK         0.5000 
     51 O           1.0743  -15.7525  -41.7822 O.2       4 UNK        -0.5000 
     52 CA          3.3516  -15.3235  -42.4227 C.3       4 UNK         0.1400 
     53 CB          3.3971  -16.6362  -43.2229 C.3       4 UNK        -0.1800 
     54 N           4.0446  -14.2951  -43.1994 N.am      4 UNK        -0.5000 
     55 C           5.0549  -13.5295  -42.7668 C.2       3 UNK         0.5000 
     56 O           5.5945  -13.6610  -41.6680 O.2       3 UNK        -0.5000 
     57 CA          5.5246  -12.4023  -43.7126 C.3       3 UNK         0.1400 
     58 CB          6.7433  -12.8597  -44.5284 C.3       3 UNK        -0.1800 
     59 N           4.4837  -11.9396  -44.6364 N.am      3 UNK        -0.5000 
     60 C           3.3303  -11.3593  -44.2748 C.2       2 UNK         0.5000 
     61 O           3.0428  -11.0873  -43.1096 O.2       2 UNK        -0.5000 
     62 CA          2.2911  -11.1049  -45.3832 C.3       2 UNK         0.1400 
     63 CB          2.3659   -9.6491  -45.8654 C.3       2 UNK        -0.1800 
     64 N           2.4175  -11.9953  -46.5393 N.am      2 UNK        -0.5000 
     65 C           2.3133  -13.3305  -46.5408 C.2       1 UNK         0.5000 
     66 O           2.1284  -13.9975  -45.5208 O.2       1 UNK        -0.5000 
     67 C          -3.2114  -22.3037  -46.8782 C.2       11 UNK         0.5000 
     68 O          -4.1870  -22.8955  -47.3411 O.2       11 UNK        -0.5000 
     69 N          -2.8572  -22.3241  -45.5868 N.am      12 UNK        -0.5000 
     70 CA         -3.5644  -23.0661  -44.5492 C.3       12 UNK         0.1400 
     71 CB         -3.7654  -22.1538  -43.3321 C.3       12 UNK        -0.1800 
     72 C          -2.7864  -24.3255  -44.1419 C.2       12 UNK         0.5000 
     73 O          -3.4015  -25.3751  -43.9557 O.2       12 UNK        -0.5000 
     74 N          -1.4559  -24.2094  -44.0078 N.am      13 UNK        -0.5000 
     75 CA         -0.5906  -25.2558  -43.4547 C.3       13 UNK         0.1400 
     76 CB          0.7860  -24.6564  -43.1279 C.3       13 UNK        -0.1800 
     77 C          -0.4498  -26.5071  -44.3436 C.2       13 UNK         0.5000 
     78 O          -0.2203  -27.5943  -43.8123 O.2       13 UNK        -0.5000 
     79 N          -0.5966  -26.3406  -45.6634 N.am      14 UNK        -0.5000 
     80 CA         -0.5491  -27.4125  -46.6608 C.3       14 UNK         0.1400 
     81 CB          0.7221  -27.2350  -47.5100 C.3       14 UNK        -0.1800 
     82 C          -1.8116  -27.4283  -47.5460 C.2       14 UNK         0.5000 
     83 O          -1.8650  -28.2080  -48.4979 O.2       14 UNK        -0.5000 
     84 N          -2.7910  -26.5626  -47.2349 N.am      15 UNK        -0.5000 
     85 CA         -4.0247  -26.2988  -47.9867 C.3       15 UNK         0.1400 
     86 CB         -4.9658  -27.5201  -47.9364 C.3       15 UNK        -0.1800 
     87 C          -3.7648  -25.7987  -49.4274 C.2       15 UNK         0.5000 
     88 O          -4.5503  -26.0829  -50.3334 O.2       15 UNK        -0.5000 
     89 N          -2.6606  -25.0636  -49.6229 N.am      16 UNK        -0.5000 
     90 CA         -2.1493  -24.6422  -50.9295 C.3       16 UNK         0.1400 
     91 CB         -0.6364  -24.3898  -50.8227 C.3       16 UNK        -0.1800 
     92 C          -2.8675  -23.4213  -51.5373 C.2       16 UNK         0.5000 
     93 O          -2.4185  -22.9275  -52.5706 O.2       16 UNK        -0.5000 
     94 N          -3.9626  -22.9503  -50.9226 N.am      17 UNK        -0.5000 
     95 CA         -4.7610  -21.8029  -51.3713 C.3       17 UNK         0.1400 
     96 CB         -5.9326  -21.5949  -50.4016 C.3       17 UNK        -0.1800 
     97 C          -5.2928  -21.9341  -52.8126 C.2       17 UNK         0.5000 
     98 O          -5.3805  -20.9319  -53.5246 O.2       17 UNK        -0.5000 
     99 N          -5.6202  -23.1671  -53.2230 N.am      18 UNK        -0.5000 
    100 CA        -6.0565  -23.5026  -54.5784 C.3       18 UNK         0.1400 
    101 CB        -6.6673  -24.9118  -54.5807 C.3       18 UNK        -0.1800 
    102 C         -4.9146  -23.4025  -55.6065 C.2       18 UNK         0.5000 
    103 O         -5.1337  -22.8997  -56.7081 O.2       18 UNK        -0.5000 
    104 N         -3.7117  -23.8498  -55.2185 N.am      19 UNK        -0.5000 
    105 CA        -2.4934  -23.7782  -56.0301 C.3       19 UNK         0.1400 
    106 CB        -1.4283  -24.7150  -55.4390 C.3       19 UNK        -0.1800 
    107 C         -1.9579  -22.3394  -56.1426 C.2       19 UNK         0.5000 
    108 O         -1.4776  -21.9453  -57.2055 O.2       19 UNK        -0.5000 
    109 N         -2.0955  -21.5714  -55.0538 N.am      20 UNK        -0.5000 
    110 CA        -1.7899  -20.1425  -54.9726 C.3       20 UNK         0.1400 
    111 CB        -1.6624  -19.7578  -53.4905 C.3       20 UNK        -0.1800 
    112 C         -2.8243  -19.2492  -55.6953 C.2       20 UNK         0.5000 
    113 O         -2.5746  -18.0544  -55.8547 O.2       20 UNK        -0.5000 
    114 N         -3.9491  -19.8421  -56.1231 N.am      21 UNK        -0.5000 
    115 CA        -5.0493  -19.2548  -56.8937 C.3       21 UNK         0.1400 
    116 CB        -4.5554  -18.7164  -58.2534 C.3       21 UNK        -0.1800 
    117 C         -5.9012  -18.2355  -56.1086 C.2       21 UNK         0.5000 
    118 O         -6.5143  -17.3566  -56.7178 O.2       21 UNK        -0.5000 
    119 N         -5.9644  -18.3966  -54.7820 N.am      22 UNK        -0.5000 
    120 CA        -6.8996  -17.6813  -53.8964 C.3       22 UNK         0.1400 
    121 C         -8.1498  -18.5345  -53.5379 C.2       22 UNK         0.5000 
    122 N         -8.1152  -19.8555  -53.6682 N.am      22 UNK        -0.7600 
    123 O         -9.1762  -17.9849  -53.1479 O.2       22 UNK        -0.5000 
    124 C124       -6.2013  -17.1831  -52.6087 C.3       23 UNK        -0.0398 
    125 S125       -5.0631  -15.7886  -52.9265 S.3       23 UNK        -0.2404 
    126 C126       -3.4368  -16.6091  -52.8683 C.3       23 UNK        -0.0205 
    127 H127        5.8489  -13.1065  -49.8849 H         1 UNK         0.0600 
    128 H128        5.7541  -11.3761  -49.5442 H         1 UNK         0.0600 
    129 H129        5.0426  -12.0261  -51.0253 H         1 UNK         0.0600 
    130 H130        4.4270  -14.2692  -48.6774 H         1 UNK         0.3000 
    131 H131        2.6957  -15.0882  -47.6591 H         1 UNK         0.0600 
    132 H132        0.3628  -14.4977  -48.1581 H         1 UNK         0.0800 
    133 H133        0.8443  -12.9960  -48.8957 H         1 UNK         0.0800 
    134 H134        1.0722  -16.8387  -49.0148 H         1 UNK         0.0800 
    135 H135        1.1653  -17.2000  -50.7171 H         1 UNK         0.0800 
    136 H136       -0.8170  -16.3004  -52.2232 H         1 UNK         0.1150 
    137 H137       -4.6154  -17.1450  -50.4113 H         1 UNK         0.1150 
    138 H138       -1.0899  -17.0181  -48.0068 H         1 UNK         0.1150 
    139 H139       -3.2705  -17.3191  -46.9617 H         1 UNK         0.0800 
    140 H140       -4.7184  -17.0020  -47.8872 H         1 UNK         0.0800 
    141 H141       -2.1473  -19.6848  -46.6546 H         1 UNK         0.0800 
    142 H142       -1.7586  -19.5030  -48.3437 H         1 UNK         0.0800 
    143 H143       -2.5396  -21.7911  -48.8519 H         1 UNK         0.0600 
    144 H144       -0.2449  -21.0708  -47.5568 H         1 UNK         0.3000 
    145 H145        1.2870  -23.8736  -46.2593 H         1 UNK         0.0600 
    146 H146        3.1386  -23.3767  -47.8224 H         1 UNK         0.0600 
    147 H147        1.8466  -24.2024  -48.6756 H         1 UNK         0.0600 
    148 H148        2.0504  -22.4669  -48.8716 H         1 UNK         0.0600 
    149 H149        2.3646  -21.3346  -46.6568 H         1 UNK         0.3000 
    150 H150        2.5442  -19.9464  -44.6023 H         1 UNK         0.0600 
    151 H151        1.8962  -19.0517  -46.7856 H         1 UNK         0.0600 
    152 H152        1.5036  -17.8221  -45.6007 H         1 UNK         0.0600 
    153 H153        0.2299  -18.8268  -46.2794 H         1 UNK         0.0600 
    154 H154        0.0375  -18.7365  -43.7207 H         1 UNK         0.3000 
    155 H155       -0.2528  -20.0422  -40.7169 H         1 UNK         0.0600 
    156 H156        1.8559  -17.8421  -40.5259 H         1 UNK         0.0600 
    157 H157        1.7995  -19.3555  -39.6432 H         1 UNK         0.0600 
    158 H158        0.5994  -18.1155  -39.3203 H         1 UNK         0.0600 
    159 H159       -0.3391  -17.2655  -41.8031 H         1 UNK         0.3000 
    160 H160       -3.6815  -17.7712  -42.9587 H         1 UNK         0.0600 
    161 H161       -2.8769  -16.1307  -40.4977 H         1 UNK         0.0600 
    162 H162       -4.1361  -17.3609  -40.5281 H         1 UNK         0.0600 
    163 H163       -4.3241  -15.8947  -41.4772 H         1 UNK         0.0600 
    164 H164       -2.2751  -15.3465  -42.7745 H         1 UNK         0.3000 
    165 H165       -0.3886  -15.5537  -45.7617 H         1 UNK         0.0600 
    166 H166       -3.0243  -14.1139  -45.1624 H         1 UNK         0.0600 
    167 H167       -1.8101  -13.5802  -46.3239 H         1 UNK         0.0600 
    168 H168       -2.6637  -15.0902  -46.5770 H         1 UNK         0.0600 
    169 H169        0.6102  -14.2674  -44.3317 H         1 UNK         0.3000 
    170 H170        0.3865  -11.9419  -42.5268 H         1 UNK         0.0600 
    171 H171       -1.0638  -12.3272  -40.5674 H         1 UNK         0.0600 
    172 H172       -0.3571  -13.9157  -40.3017 H         1 UNK         0.0600 
    173 H173        0.6166  -12.4625  -40.0807 H         1 UNK         0.0600 
    174 H174        2.3360  -12.9747  -42.5635 H         1 UNK         0.3000 
    175 H175        3.8458  -15.4856  -41.4631 H         1 UNK         0.0600 
    176 H176        2.8640  -16.5430  -44.1690 H         1 UNK         0.0600 
    177 H177        4.4239  -16.9267  -43.4449 H         1 UNK         0.0600 
    178 H178        2.9451  -17.4565  -42.6666 H         1 UNK         0.0600 
    179 H179        3.6453  -14.1041  -44.1120 H         1 UNK         0.3000 
    180 H180        5.8230  -11.5551  -43.0917 H         1 UNK         0.0600 
    181 H181        6.4966  -13.6935  -45.1871 H         1 UNK         0.0600 
    182 H182        7.5517  -13.1870  -43.8732 H         1 UNK         0.0600 
    183 H183        7.1339  -12.0488  -45.1435 H         1 UNK         0.0600 
    184 H184        4.6331  -12.1267  -45.6168 H         1 UNK         0.3000 
    185 H185        1.3040  -11.2724  -44.9479 H         1 UNK         0.0600 
    186 H186        3.3221   -9.4336  -46.3440 H         1 UNK         0.0600 
    187 H187        1.5752   -9.4308  -46.5834 H         1 UNK         0.0600 
    188 H188        2.2493   -8.9534  -45.0332 H         1 UNK         0.0600 
    189 H189        2.5935  -11.5521  -47.4383 H         1 UNK         0.3000 
    190 H190       -1.9989  -21.8628  -45.3058 H         1 UNK         0.3000 
    191 H191       -4.5499  -23.3774  -44.9025 H         1 UNK         0.0600 
    192 H192       -4.3259  -22.6637  -42.5477 H         1 UNK         0.0600 
    193 H193       -4.3200  -21.2538  -43.5982 H         1 UNK         0.0600 
    194 H194       -2.8107  -21.8445  -42.9057 H         1 UNK         0.0600 
    195 H195       -1.0145  -23.3115  -44.1855 H         1 UNK         0.3000 
    196 H196       -1.0377  -25.5840  -42.5140 H         1 UNK         0.0600 
    197 H197        1.2981  -24.3016  -44.0207 H         1 UNK         0.0600 
    198 H198        0.6970  -23.8151  -42.4400 H         1 UNK         0.0600 
    199 H199        1.4314  -25.3966  -42.6534 H         1 UNK         0.0600 
    200 H200       -0.7666  -25.4115  -46.0339 H         1 UNK         0.3000 
    201 H201       -0.5033  -28.3885  -46.1741 H         1 UNK         0.0600 
    202 H202        0.6973  -26.3057  -48.0788 H         1 UNK         0.0600 
    203 H203        0.8367  -28.0525  -48.2227 H         1 UNK         0.0600 
    204 H204        1.6154  -27.2227  -46.8855 H         1 UNK         0.0600 
    205 H205       -2.6539  -25.9884  -46.4162 H         1 UNK         0.3000 
    206 H206       -4.5280  -25.4838  -47.4671 H         1 UNK         0.0600 
    207 H207       -5.1345  -27.8452  -46.9097 H         1 UNK         0.0600 
    208 H208       -5.9404  -27.2807  -48.3633 H         1 UNK         0.0600 
    209 H209       -4.5641  -28.3659  -48.4949 H         1 UNK         0.0600 
    210 H210       -2.0770  -24.8420  -48.8202 H         1 UNK         0.3000 
    211 H211       -2.2931  -25.4689  -51.6281 H         1 UNK         0.0600 
    212 H212       -0.1898  -24.2774  -51.8114 H         1 UNK         0.0600 
    213 H213       -0.1265  -25.2180  -50.3304 H         1 UNK         0.0600 
    214 H214       -0.4196  -23.4780  -50.2675 H         1 UNK         0.0600 
    215 H215       -4.2696  -23.4152  -50.0801 H         1 UNK         0.3000 
    216 H216       -4.1203  -20.9201  -51.3310 H         1 UNK         0.0600 
    217 H217       -6.6252  -22.4373  -50.4201 H         1 UNK         0.0600 
    218 H218       -6.4972  -20.6974  -50.6585 H         1 UNK         0.0600 
    219 H219       -5.5841  -21.4773  -49.3764 H         1 UNK         0.0600 
    220 H220       -5.5270  -23.9309  -52.5688 H         1 UNK         0.3000 
    221 H221       -6.8343  -22.7951  -54.8739 H         1 UNK         0.0600 
    222 H222       -7.5257  -24.9696  -53.9111 H         1 UNK         0.0600 
    223 H223       -5.9452  -25.6664  -54.2661 H         1 UNK         0.0600 
    224 H224       -7.0151  -25.1849  -55.5778 H         1 UNK         0.0600 
    225 H225       -3.6035  -24.1890  -54.2742 H         1 UNK         0.3000 
    226 H226       -2.7308  -24.1265  -57.0377 H         1 UNK         0.0600 
    227 H227       -1.1431  -24.4204  -54.4287 H         1 UNK         0.0600 
    228 H228       -1.7859  -25.7440  -55.4002 H         1 UNK         0.0600 
    229 H229       -0.5239  -24.7084  -56.0486 H         1 UNK         0.0600 
    230 H230       -2.4218  -22.0112  -54.1963 H         1 UNK         0.3000 
    231 H231       -0.8237  -19.9727  -55.4518 H         1 UNK         0.0600 
    232 H232       -2.6110  -19.8659  -52.9642 H         1 UNK         0.0600 
    233 H233       -1.3354  -18.7236  -53.3829 H         1 UNK         0.0600 
    234 H234       -0.9271  -20.3816  -52.9817 H         1 UNK         0.0600 
    235 H235       -4.0559  -20.8244  -55.9108 H         1 UNK         0.3000 
    236 H236       -5.7231  -20.0855  -57.1080 H         1 UNK         0.0600 
    237 H237       -3.9665  -19.4652  -58.7832 H         1 UNK         0.0600 
    238 H238       -5.3945  -18.4514  -58.8976 H         1 UNK         0.0600 
    239 H239       -3.9401  -17.8239  -58.1378 H         1 UNK         0.0600 
    240 H240       -5.4717  -19.1820  -54.3688 H         1 UNK         0.3000 
    241 H241       -7.2894  -16.8018  -54.4123 H         1 UNK         0.0600 
    242 H242       -8.9354  -20.3963  -53.4448 H         1 UNK         0.3800 
    243 H243       -7.2502  -20.3208  -53.9115 H         1 UNK         0.3800 
    244 H244       -6.9336  -16.8266  -51.8817 H         1 UNK         0.0800 
    245 H245       -5.6776  -18.0121  -52.1310 H         1 UNK         0.0800 
    246 H246       -2.7750  -16.0791  -53.5549 H         1 UNK         0.0800 
    247 H247       -3.5369  -17.6185  -53.2628 H         1 UNK         0.0800 
@<TRIPOS>BOND
     1    1    2 1    
     2    1  127 1    
     3    1  128 1    
     4    1  129 1    
     5    2    3 2    
     6    2    4 am   BACKBONE|DICT|INTERRES
     7    4    5 1    
     8    4  130 1    
     9    5    6 1    
    10    5   65 1    
    11    5  131 1    
    12    6    7 1    
    13    6  132 1    
    14    6  133 1    
    15    7    8 1    
    16    8    9 1    
    17    8  134 1    
    18    8  135 1    
    19    9   10 ar   
    20    9   14 ar   
    21   10   11 ar   
    22   10  136 1    
    23   11   12 ar   
    24   11  126 1    
    25   12   13 ar   
    26   12  137 1    
    27   13   14 ar   
    28   13   15 1    
    29   14  138 1    
    30   15   16 1    
    31   15  139 1    
    32   15  140 1    
    33   16   17 1    
    34   17   18 1    
    35   17  141 1    
    36   17  142 1    
    37   18   19 1    
    38   18   67 1    
    39   18  143 1    
    40   19   20 am   BACKBONE|DICT|INTERRES
    41   19  144 1    
    42   20   21 2    
    43   20   22 1    
    44   22   23 1    
    45   22   24 1    
    46   22  145 1    
    47   23  146 1    
    48   23  147 1    
    49   23  148 1    
    50   24   25 am   BACKBONE|DICT|INTERRES
    51   24  149 1    
    52   25   26 2    
    53   25   27 1    
    54   27   28 1    
    55   27   29 1    
    56   27  150 1    
    57   28  151 1    
    58   28  152 1    
    59   28  153 1    
    60   29   30 am   BACKBONE|DICT|INTERRES
    61   29  154 1    
    62   30   31 2    
    63   30   32 1    
    64   32   33 1    
    65   32   34 1    
    66   32  155 1    
    67   33  156 1    
    68   33  157 1    
    69   33  158 1    
    70   34   35 am   BACKBONE|DICT|INTERRES
    71   34  159 1    
    72   35   36 2    
    73   35   37 1    
    74   37   38 1    
    75   37   39 1    
    76   37  160 1    
    77   38  161 1    
    78   38  162 1    
    79   38  163 1    
    80   39   40 am   BACKBONE|DICT|INTERRES
    81   39  164 1    
    82   40   41 2    
    83   40   42 1    
    84   42   43 1    
    85   42   44 1    
    86   42  165 1    
    87   43  166 1    
    88   43  167 1    
    89   43  168 1    
    90   44   45 am   BACKBONE|DICT|INTERRES
    91   44  169 1    
    92   45   46 2    
    93   45   47 1    
    94   47   48 1    
    95   47   49 1    
    96   47  170 1    
    97   48  171 1    
    98   48  172 1    
    99   48  173 1    
   100   49   50 am   BACKBONE|DICT|INTERRES
   101   49  174 1    
   102   50   51 2    
   103   50   52 1    
   104   52   53 1    
   105   52   54 1    
   106   52  175 1    
   107   53  176 1    
   108   53  177 1    
   109   53  178 1    
   110   54   55 am   BACKBONE|DICT|INTERRES
   111   54  179 1    
   112   55   56 2    
   113   55   57 1    
   114   57   58 1    
   115   57   59 1    
   116   57  180 1    
   117   58  181 1    
   118   58  182 1    
   119   58  183 1    
   120   59   60 am   BACKBONE|DICT|INTERRES
   121   59  184 1    
   122   60   61 2    
   123   60   62 1    
   124   62   63 1    
   125   62   64 1    
   126   62  185 1    
   127   63  186 1    
   128   63  187 1    
   129   63  188 1    
   130   64   65 am   BACKBONE|DICT|INTERRES
   131   64  189 1    
   132   65   66 2    
   133   67   68 2    
   134   67   69 am   BACKBONE|DICT|INTERRES
   135   69   70 1    
   136   69  190 1    
   137   70   71 1    
   138   70   72 1    
   139   70  191 1    
   140   71  192 1    
   141   71  193 1    
   142   71  194 1    
   143   72   73 2    
   144   72   74 am   BACKBONE|DICT|INTERRES
   145   74   75 1    
   146   74  195 1    
   147   75   76 1    
   148   75   77 1    
   149   75  196 1    
   150   76  197 1    
   151   76  198 1    
   152   76  199 1    
   153   77   78 2    
   154   77   79 am   BACKBONE|DICT|INTERRES
   155   79   80 1    
   156   79  200 1    
   157   80   81 1    
   158   80   82 1    
   159   80  201 1    
   160   81  202 1    
   161   81  203 1    
   162   81  204 1    
   163   82   83 2    
   164   82   84 am   BACKBONE|DICT|INTERRES
   165   84   85 1    
   166   84  205 1    
   167   85   86 1    
   168   85   87 1    
   169   85  206 1    
   170   86  207 1    
   171   86  208 1    
   172   86  209 1    
   173   87   88 2    
   174   87   89 am   BACKBONE|DICT|INTERRES
   175   89   90 1    
   176   89  210 1    
   177   90   91 1    
   178   90   92 1    
   179   90  211 1    
   180   91  212 1    
   181   91  213 1    
   182   91  214 1    
   183   92   93 2    
   184   92   94 am   BACKBONE|DICT|INTERRES
   185   94   95 1    
   186   94  215 1    
   187   95   96 1    
   188   95   97 1    
   189   95  216 1    
   190   96  217 1    
   191   96  218 1    
   192   96  219 1    
   193   97   98 2    
   194   97   99 am   BACKBONE|DICT|INTERRES
   195   99  100 1    
   196   99  220 1    
   197  100  101 1    
   198  100  102 1    
   199  100  221 1    
   200  101  222 1    
   201  101  223 1    
   202  101  224 1    
   203  102  103 2    
   204  102  104 am   BACKBONE|DICT|INTERRES
   205  104  105 1    
   206  104  225 1    
   207  105  106 1    
   208  105  107 1    
   209  105  226 1    
   210  106  227 1    
   211  106  228 1    
   212  106  229 1    
   213  107  108 2    
   214  107  109 am   BACKBONE|DICT|INTERRES
   215  109  110 1    
   216  109  230 1    
   217  110  111 1    
   218  110  112 1    
   219  110  231 1    
   220  111  232 1    
   221  111  233 1    
   222  111  234 1    
   223  112  113 2    
   224  112  114 am   BACKBONE|DICT|INTERRES
   225  114  115 1    
   226  114  235 1    
   227  115  116 1    
   228  115  117 1    
   229  115  236 1    
   230  116  237 1    
   231  116  238 1    
   232  116  239 1    
   233  117  118 2    
   234  117  119 am   BACKBONE|DICT|INTERRES
   235  119  120 1    
   236  119  240 1    
   237  120  121 1    
   238  120  124 1    
   239  120  241 1    
   240  121  122 am   BACKBONE|DICT|INTERRES
   241  121  123 2    
   242  122  242 1    
   243  122  243 1    
   244  124  125 1    
   245  124  244 1    
   246  124  245 1    
   247  125  126 1    
   248  126  246 1    
   249  126  247 1    
@<TRIPOS>SUBSTRUCTURE
     1 UNK         1 GROUP             0       ****    0 ROOT    
