@<TRIPOS>MOLECULE
3R540
247   249    1
SMALL
USER_CHARGES


@<TRIPOS>ATOM
      1 CA          7.8620  -13.9445  -44.3359 C.3       0 UNK        -0.1800 
      2 C           6.3508  -13.8349  -44.4743 C.2       0 UNK         0.5000 
      3 O           5.6846  -13.3317  -43.5695 O.2       0 UNK        -0.5000 
      4 N           5.8037  -14.2853  -45.6094 N.am      1 UNK        -0.5000 
      5 CA          4.3749  -14.2945  -45.9512 C.3       1 UNK         0.1400 
      6 C6          4.0336  -15.4123  -46.9698 C.3       23 UNK        -0.0398 
      7 S7          5.1037  -15.4411  -48.4495 S.3       23 UNK        -0.2404 
      8 C8          3.8801  -15.2895  -49.7898 C.3       23 UNK        -0.0205 
      9 C9          2.9973  -16.5236  -49.9509 C.ar      23 UNK        -0.0193 
     10 C10         1.6120  -16.3796  -50.0443 C.ar      23 UNK        -0.1150 
     11 C11         0.7928  -17.4857  -50.2884 C.ar      23 UNK        -0.0193 
     12 C12         1.3685  -18.7560  -50.4048 C.ar      23 UNK        -0.1150 
     13 C13         2.7558  -18.9254  -50.2849 C.ar      23 UNK        -0.0193 
     14 C14         3.5580  -17.7992  -50.0710 C.ar      23 UNK        -0.1150 
     15 C15         3.4449  -20.2843  -50.4368 C.3       23 UNK        -0.0205 
     16 S16         2.4060  -21.7556  -50.1337 S.3       23 UNK        -0.2404 
     17 C17         2.2132  -21.7141  -48.3192 C.3       23 UNK        -0.0398 
     18 CA          1.3925  -22.9103  -47.7797 C.3       11 UNK         0.1400 
     19 N           1.5578  -23.0908  -46.3329 N.am      11 UNK        -0.5000 
     20 C           1.1271  -24.1691  -45.6584 C.2       10 UNK         0.5000 
     21 O           0.5974  -25.1423  -46.1939 O.2       10 UNK        -0.5000 
     22 CA          1.2579  -24.1414  -44.1238 C.3       10 UNK         0.1400 
     23 CB          2.6227  -24.6953  -43.6900 C.3       10 UNK        -0.1800 
     24 N           1.0723  -22.8107  -43.5456 N.am      10 UNK        -0.5000 
     25 C          -0.0224  -22.0490  -43.6764 C.2       9 UNK         0.5000 
     26 O          -1.0323  -22.4084  -44.2807 O.2       9 UNK        -0.5000 
     27 CA          0.0273  -20.6410  -43.0537 C.3       9 UNK         0.1400 
     28 CB          0.8353  -20.5942  -41.7401 C.3       9 UNK        -0.1800 
     29 N           0.5129  -19.6035  -43.9696 N.am      9 UNK        -0.5000 
     30 C           1.6487  -19.5844  -44.6870 C.2       8 UNK         0.5000 
     31 O           2.3901  -20.5542  -44.8509 O.2       8 UNK        -0.5000 
     32 CA          2.0424  -18.2371  -45.3206 C.3       8 UNK         0.1400 
     33 CB          1.5466  -18.1593  -46.7713 C.3       8 UNK        -0.1800 
     34 N           1.5535  -17.0782  -44.5682 N.am      8 UNK        -0.5000 
     35 C           1.9822  -16.7190  -43.3479 C.2       7 UNK         0.5000 
     36 O           2.8717  -17.3135  -42.7391 O.2       7 UNK        -0.5000 
     37 CA          1.3017  -15.5090  -42.6822 C.3       7 UNK         0.1400 
     38 CB          2.0705  -14.2101  -42.9623 C.3       7 UNK        -0.1800 
     39 N          -0.0813  -15.3481  -43.1290 N.am      7 UNK        -0.5000 
     40 C          -1.1558  -15.7066  -42.4142 C.2       6 UNK         0.5000 
     41 O          -1.0997  -16.1681  -41.2738 O.2       6 UNK        -0.5000 
     42 CA         -2.5324  -15.5303  -43.0848 C.3       6 UNK         0.1400 
     43 CB         -3.1426  -14.1721  -42.7072 C.3       6 UNK        -0.1800 
     44 N          -2.4969  -15.6459  -44.5434 N.am      6 UNK        -0.5000 
     45 C          -2.1802  -16.7605  -45.2167 C.2       5 UNK         0.5000 
     46 O          -1.8671  -17.8240  -44.6801 O.2       5 UNK        -0.5000 
     47 CA         -2.1605  -16.6543  -46.7533 C.3       5 UNK         0.1400 
     48 CB         -3.5528  -16.9556  -47.3279 C.3       5 UNK        -0.1800 
     49 N          -1.7004  -15.3655  -47.2810 N.am      5 UNK        -0.5000 
     50 C          -0.5564  -14.7409  -46.9694 C.2       4 UNK         0.5000 
     51 O           0.2303  -15.1443  -46.1105 O.2       4 UNK        -0.5000 
     52 CA         -0.2278  -13.4350  -47.7167 C.3       4 UNK         0.1400 
     53 CB         -1.3326  -12.9442  -48.6792 C.3       4 UNK        -0.1800 
     54 N           0.1602  -12.3885  -46.7708 N.am      4 UNK        -0.5000 
     55 C          -0.5835  -11.8769  -45.7770 C.2       3 UNK         0.5000 
     56 O          -1.7653  -12.1728  -45.5925 O.2       3 UNK        -0.5000 
     57 CA          0.1110  -10.9027  -44.8003 C.3       3 UNK         0.1400 
     58 CB         -0.2904  -11.1945  -43.3436 C.3       3 UNK        -0.1800 
     59 N           1.5726  -10.9508  -44.9082 N.am      3 UNK        -0.5000 
     60 C           2.3130  -10.1697  -45.7059 C.2       2 UNK         0.5000 
     61 O           1.8481   -9.2712  -46.4073 O.2       2 UNK        -0.5000 
     62 CA          3.8246  -10.4655  -45.7547 C.3       2 UNK         0.1400 
     63 CB          4.5744   -9.6104  -44.7222 C.3       2 UNK        -0.1800 
     64 N           4.1638  -11.8756  -45.5396 N.am      2 UNK        -0.5000 
     65 C           3.8332  -12.8956  -46.3433 C.2       1 UNK         0.5000 
     66 O           3.1282  -12.7547  -47.3433 O.2       1 UNK        -0.5000 
     67 C          -0.0978  -22.7856  -48.1585 C.2       11 UNK         0.5000 
     68 O          -0.5441  -23.4367  -49.1023 O.2       11 UNK        -0.5000 
     69 N          -0.8493  -21.9878  -47.3852 N.am      12 UNK        -0.5000 
     70 CA         -2.2888  -21.8061  -47.5562 C.3       12 UNK         0.1400 
     71 CB         -2.7764  -20.6380  -46.6894 C.3       12 UNK        -0.1800 
     72 C          -3.0724  -23.0921  -47.2519 C.2       12 UNK         0.5000 
     73 O          -3.9841  -23.4292  -48.0054 O.2       12 UNK        -0.5000 
     74 N          -2.6785  -23.8078  -46.1900 N.am      13 UNK        -0.5000 
     75 CA         -3.2366  -25.1048  -45.8059 C.3       13 UNK         0.1400 
     76 CB         -2.6333  -25.5532  -44.4669 C.3       13 UNK        -0.1800 
     77 C          -3.0366  -26.1787  -46.8914 C.2       13 UNK         0.5000 
     78 O          -4.0004  -26.8511  -47.2603 O.2       13 UNK        -0.5000 
     79 N          -1.8096  -26.2787  -47.4253 N.am      14 UNK        -0.5000 
     80 CA         -1.4507  -27.1687  -48.5341 C.3       14 UNK         0.1400 
     81 CB          0.0692  -27.1265  -48.7520 C.3       14 UNK        -0.1800 
     82 C          -2.1931  -26.8351  -49.8426 C.2       14 UNK         0.5000 
     83 O          -2.5427  -27.7447  -50.5948 O.2       14 UNK        -0.5000 
     84 N          -2.4576  -25.5419  -50.0644 N.am      15 UNK        -0.5000 
     85 CA         -3.2322  -25.0069  -51.1829 C.3       15 UNK         0.1400 
     86 CB         -2.7295  -23.5880  -51.4901 C.3       15 UNK        -0.1800 
     87 C          -4.7601  -25.0334  -50.9546 C.2       15 UNK         0.5000 
     88 O          -5.4812  -24.3955  -51.7226 O.2       15 UNK        -0.5000 
     89 N          -5.2289  -25.7586  -49.9263 N.am      16 UNK        -0.5000 
     90 CA         -6.6304  -25.9873  -49.5596 C.3       16 UNK         0.1400 
     91 CB         -7.3638  -26.7762  -50.6651 C.3       16 UNK        -0.1800 
     92 C          -7.3513  -24.6838  -49.1671 C.2       16 UNK         0.5000 
     93 O          -8.3160  -24.2820  -49.8183 O.2       16 UNK        -0.5000 
     94 N          -6.8328  -24.0320  -48.1173 N.am      17 UNK        -0.5000 
     95 CA         -7.2424  -22.7200  -47.5985 C.3       17 UNK         0.1400 
     96 CB         -8.6896  -22.7494  -47.0637 C.3       17 UNK        -0.1800 
     97 C          -6.9869  -21.5968  -48.6246 C.2       17 UNK         0.5000 
     98 O          -7.8203  -20.7086  -48.8077 O.2       17 UNK        -0.5000 
     99 N          -5.8255  -21.6934  -49.2863 N.am      18 UNK        -0.5000 
    100 CA        -5.2995  -20.8248  -50.3407 C.3       18 UNK         0.1400 
    101 CB        -5.0548  -19.3957  -49.8161 C.3       18 UNK        -0.1800 
    102 C         -6.1045  -20.8348  -51.6554 C.2       18 UNK         0.5000 
    103 O         -5.8211  -20.0103  -52.5236 O.2       18 UNK        -0.5000 
    104 N         -7.0487  -21.7711  -51.8256 N.am      19 UNK        -0.5000 
    105 CA        -7.8819  -21.9119  -53.0243 C.3       19 UNK         0.1400 
    106 CB        -8.9197  -23.0197  -52.7952 C.3       19 UNK        -0.1800 
    107 C         -7.0752  -22.1883  -54.3080 C.2       19 UNK         0.5000 
    108 O         -7.4422  -21.6955  -55.3752 O.2       19 UNK        -0.5000 
    109 N         -5.9763  -22.9398  -54.1711 N.am      20 UNK        -0.5000 
    110 CA        -5.0216  -23.2375  -55.2389 C.3       20 UNK         0.1400 
    111 CB        -4.5296  -24.6839  -55.0597 C.3       20 UNK        -0.1800 
    112 C         -3.8366  -22.2466  -55.2793 C.2       20 UNK         0.5000 
    113 O         -2.8871  -22.4880  -56.0265 O.2       20 UNK        -0.5000 
    114 N         -3.8831  -21.1726  -54.4790 N.am      21 UNK        -0.5000 
    115 CA        -2.8220  -20.1786  -54.3458 C.3       21 UNK         0.1400 
    116 CB        -1.9453  -20.5205  -53.1204 C.3       21 UNK        -0.1800 
    117 C         -3.4344  -18.7667  -54.3179 C.2       21 UNK         0.5000 
    118 O         -3.9903  -18.3314  -55.3275 O.2       21 UNK        -0.5000 
    119 N         -3.2886  -18.0687  -53.1860 N.am      22 UNK        -0.5000 
    120 CA        -3.6311  -16.6502  -52.9925 C.3       22 UNK         0.1400 
    121 C         -5.1491  -16.3030  -52.9651 C.2       22 UNK         0.5000 
    122 N         -6.0646  -17.2587  -52.8965 N.am      22 UNK        -0.7600 
    123 O         -5.5056  -15.1289  -53.0155 O.2       22 UNK        -0.5000 
    124 C124       -2.9122  -16.0666  -51.7482 C.3       23 UNK        -0.0398 
    125 S125       -1.0958  -16.2147  -51.8590 S.3       23 UNK        -0.2404 
    126 C126       -0.7097  -17.2937  -50.4426 C.3       23 UNK        -0.0205 
    127 H127        8.2995  -12.9543  -44.2088 H         1 UNK         0.0600 
    128 H128        8.1154  -14.5456  -43.4627 H         1 UNK         0.0600 
    129 H129        8.3166  -14.4082  -45.2120 H         1 UNK         0.0600 
    130 H130        6.4067  -14.6533  -46.3325 H         1 UNK         0.3000 
    131 H131        3.8408  -14.5640  -45.0421 H         1 UNK         0.0600 
    132 H132        2.9837  -15.3595  -47.2610 H         1 UNK         0.0800 
    133 H133        4.1497  -16.3801  -46.4832 H         1 UNK         0.0800 
    134 H134        3.2775  -14.3963  -49.6168 H         1 UNK         0.0800 
    135 H135        4.4114  -15.1229  -50.7276 H         1 UNK         0.0800 
    136 H136        1.1677  -15.3976  -49.9697 H         1 UNK         0.1150 
    137 H137        0.7330  -19.6067  -50.6031 H         1 UNK         0.1150 
    138 H138        4.6315  -17.9125  -50.0120 H         1 UNK         0.1150 
    139 H139        3.8317  -20.3497  -51.4544 H         1 UNK         0.0800 
    140 H140        4.3125  -20.3348  -49.7769 H         1 UNK         0.0800 
    141 H141        1.7488  -20.7728  -48.0328 H         1 UNK         0.0800 
    142 H142        3.2105  -21.7152  -47.8769 H         1 UNK         0.0800 
    143 H143        1.7736  -23.8180  -48.2536 H         1 UNK         0.0600 
    144 H144        1.9609  -22.3194  -45.8100 H         1 UNK         0.3000 
    145 H145        0.4814  -24.7888  -43.7131 H         1 UNK         0.0600 
    146 H146        2.6938  -24.7643  -42.6044 H         1 UNK         0.0600 
    147 H147        2.7821  -25.6979  -44.0894 H         1 UNK         0.0600 
    148 H148        3.4420  -24.0669  -44.0417 H         1 UNK         0.0600 
    149 H149        1.8736  -22.4070  -43.0825 H         1 UNK         0.3000 
    150 H150       -1.0039  -20.3773  -42.8135 H         1 UNK         0.0600 
    151 H151        0.5039  -21.3668  -41.0450 H         1 UNK         0.0600 
    152 H152        0.7044  -19.6339  -41.2407 H         1 UNK         0.0600 
    153 H153        1.9044  -20.7310  -41.9064 H         1 UNK         0.0600 
    154 H154       -0.0707  -18.7752  -44.0115 H         1 UNK         0.3000 
    155 H155        3.1325  -18.1833  -45.3289 H         1 UNK         0.0600 
    156 H156        1.5428  -17.1411  -47.1528 H         1 UNK         0.0600 
    157 H157        0.5401  -18.5615  -46.8867 H         1 UNK         0.0600 
    158 H158        2.2109  -18.7244  -47.4215 H         1 UNK         0.0600 
    159 H159        0.8788  -16.4851  -45.0431 H         1 UNK         0.3000 
    160 H160        1.3371  -15.6825  -41.6046 H         1 UNK         0.0600 
    161 H161        1.9277  -13.8747  -43.9892 H         1 UNK         0.0600 
    162 H162        3.1397  -14.3371  -42.7874 H         1 UNK         0.0600 
    163 H163        1.7367  -13.4130  -42.2991 H         1 UNK         0.0600 
    164 H164       -0.2164  -15.0249  -44.0797 H         1 UNK         0.3000 
    165 H165       -3.1857  -16.3176  -42.7030 H         1 UNK         0.0600 
    166 H166       -2.5483  -13.3436  -43.0937 H         1 UNK         0.0600 
    167 H167       -4.1542  -14.0707  -43.1004 H         1 UNK         0.0600 
    168 H168       -3.2024  -14.0565  -41.6241 H         1 UNK         0.0600 
    169 H169       -2.7016  -14.8077  -45.0697 H         1 UNK         0.3000 
    170 H170       -1.4706  -17.4154  -47.1182 H         1 UNK         0.0600 
    171 H171       -3.9526  -17.8890  -46.9305 H         1 UNK         0.0600 
    172 H172       -4.2667  -16.1683  -47.0827 H         1 UNK         0.0600 
    173 H173       -3.5203  -17.0524  -48.4126 H         1 UNK         0.0600 
    174 H174       -2.3023  -14.9259  -47.9615 H         1 UNK         0.3000 
    175 H175        0.6593  -13.6470  -48.3144 H         1 UNK         0.0600 
    176 H176       -1.0321  -12.0197  -49.1723 H         1 UNK         0.0600 
    177 H177       -1.5232  -13.6746  -49.4669 H         1 UNK         0.0600 
    178 H178       -2.2748  -12.7502  -48.1657 H         1 UNK         0.0600 
    179 H179        1.1368  -12.1246  -46.8176 H         1 UNK         0.3000 
    180 H180       -0.2393   -9.8982  -45.0460 H         1 UNK         0.0600 
    181 H181       -0.1130  -12.2354  -43.0759 H         1 UNK         0.0600 
    182 H182       -1.3515  -10.9974  -43.1860 H         1 UNK         0.0600 
    183 H183        0.2604  -10.5652  -42.6443 H         1 UNK         0.0600 
    184 H184        2.0436  -11.6630  -44.3708 H         1 UNK         0.3000 
    185 H185        4.1792  -10.1885  -46.7496 H         1 UNK         0.0600 
    186 H186        5.6530   -9.7434  -44.8088 H         1 UNK         0.0600 
    187 H187        4.3660   -8.5494  -44.8666 H         1 UNK         0.0600 
    188 H188        4.2856   -9.8669  -43.7021 H         1 UNK         0.0600 
    189 H189        4.7320  -12.0931  -44.7259 H         1 UNK         0.3000 
    190 H190       -0.4320  -21.5554  -46.5746 H         1 UNK         0.3000 
    191 H191       -2.4725  -21.5455  -48.6005 H         1 UNK         0.0600 
    192 H192       -2.2685  -19.7148  -46.9637 H         1 UNK         0.0600 
    193 H193       -3.8471  -20.4763  -46.8179 H         1 UNK         0.0600 
    194 H194       -2.6003  -20.8103  -45.6279 H         1 UNK         0.0600 
    195 H195       -1.9545  -23.4218  -45.5894 H         1 UNK         0.3000 
    196 H196       -4.3109  -24.9706  -45.6640 H         1 UNK         0.0600 
    197 H197       -3.0900  -26.4833  -44.1267 H         1 UNK         0.0600 
    198 H198       -2.7961  -24.8060  -43.6900 H         1 UNK         0.0600 
    199 H199       -1.5605  -25.7259  -44.5457 H         1 UNK         0.0600 
    200 H200       -1.0586  -25.7084  -47.0458 H         1 UNK         0.3000 
    201 H201       -1.7267  -28.1856  -48.2478 H         1 UNK         0.0600 
    202 H202        0.6042  -27.4473  -47.8581 H         1 UNK         0.0600 
    203 H203        0.4108  -26.1215  -49.0034 H         1 UNK         0.0600 
    204 H204        0.3675  -27.7893  -49.5652 H         1 UNK         0.0600 
    205 H205       -2.0837  -24.8573  -49.4165 H         1 UNK         0.3000 
    206 H206       -3.0417  -25.6224  -52.0637 H         1 UNK         0.0600 
    207 H207       -1.6787  -23.6015  -51.7796 H         1 UNK         0.0600 
    208 H208       -3.2833  -23.1307  -52.3096 H         1 UNK         0.0600 
    209 H209       -2.8216  -22.9397  -50.6206 H         1 UNK         0.0600 
    210 H210       -4.5507  -26.1969  -49.3157 H         1 UNK         0.3000 
    211 H211       -6.6160  -26.6148  -48.6672 H         1 UNK         0.0600 
    212 H212       -7.4408  -26.2081  -51.5926 H         1 UNK         0.0600 
    213 H213       -8.3781  -27.0284  -50.3539 H         1 UNK         0.0600 
    214 H214       -6.8501  -27.7114  -50.8875 H         1 UNK         0.0600 
    215 H215       -5.9738  -24.3959  -47.7244 H         1 UNK         0.3000 
    216 H216       -6.5862  -22.5103  -46.7525 H         1 UNK         0.0600 
    217 H217       -8.8283  -23.5581  -46.3463 H         1 UNK         0.0600 
    218 H218       -9.4189  -22.8807  -47.8634 H         1 UNK         0.0600 
    219 H219       -8.9334  -21.8173  -46.5528 H         1 UNK         0.0600 
    220 H220       -5.2218  -22.4687  -49.0225 H         1 UNK         0.3000 
    221 H221       -4.3261  -21.2367  -50.5994 H         1 UNK         0.0600 
    222 H222       -5.9880  -18.8828  -49.5827 H         1 UNK         0.0600 
    223 H223       -4.4432  -19.4083  -48.9157 H         1 UNK         0.0600 
    224 H224       -4.5277  -18.7892  -50.5523 H         1 UNK         0.0600 
    225 H225       -7.1944  -22.4534  -51.0933 H         1 UNK         0.3000 
    226 H226       -8.4140  -20.9692  -53.1668 H         1 UNK         0.0600 
    227 H227       -9.5508  -22.7971  -51.9347 H         1 UNK         0.0600 
    228 H228       -9.5746  -23.1293  -53.6604 H         1 UNK         0.0600 
    229 H229       -8.4415  -23.9844  -52.6191 H         1 UNK         0.0600 
    230 H230       -5.7754  -23.3389  -53.2560 H         1 UNK         0.3000 
    231 H231       -5.5230  -23.1754  -56.2067 H         1 UNK         0.0600 
    232 H232       -5.3651  -25.3827  -55.0121 H         1 UNK         0.0600 
    233 H233       -3.9453  -24.7982  -54.1477 H         1 UNK         0.0600 
    234 H234       -3.8982  -24.9915  -55.8940 H         1 UNK         0.0600 
    235 H235       -4.7242  -20.9880  -53.9429 H         1 UNK         0.3000 
    236 H236       -2.1796  -20.1986  -55.2285 H         1 UNK         0.0600 
    237 H237       -1.4634  -21.4894  -53.2502 H         1 UNK         0.0600 
    238 H238       -1.1467  -19.7893  -52.9853 H         1 UNK         0.0600 
    239 H239       -2.5262  -20.5623  -52.1990 H         1 UNK         0.0600 
    240 H240       -2.8180  -18.5128  -52.4142 H         1 UNK         0.3000 
    241 H241       -3.2402  -16.1205  -53.8635 H         1 UNK         0.0600 
    242 H242       -5.8088  -18.2433  -52.8497 H         1 UNK         0.3800 
    243 H243       -7.0382  -17.0033  -52.8892 H         1 UNK         0.3800 
    244 H244       -3.1402  -15.0050  -51.6366 H         1 UNK         0.0800 
    245 H245       -3.2723  -16.5496  -50.8391 H         1 UNK         0.0800 
    246 H246       -1.1034  -16.8473  -49.5313 H         1 UNK         0.0800 
    247 H247       -1.2140  -18.2529  -50.5674 H         1 UNK         0.0800 
@<TRIPOS>BOND
     1    1    2 1    
     2    1  127 1    
     3    1  128 1    
     4    1  129 1    
     5    2    3 2    
     6    2    4 am   BACKBONE|DICT|INTERRES
     7    4    5 1    
     8    4  130 1    
     9    5    6 1    
    10    5   65 1    
    11    5  131 1    
    12    6    7 1    
    13    6  132 1    
    14    6  133 1    
    15    7    8 1    
    16    8    9 1    
    17    8  134 1    
    18    8  135 1    
    19    9   10 ar   
    20    9   14 ar   
    21   10   11 ar   
    22   10  136 1    
    23   11   12 ar   
    24   11  126 1    
    25   12   13 ar   
    26   12  137 1    
    27   13   14 ar   
    28   13   15 1    
    29   14  138 1    
    30   15   16 1    
    31   15  139 1    
    32   15  140 1    
    33   16   17 1    
    34   17   18 1    
    35   17  141 1    
    36   17  142 1    
    37   18   19 1    
    38   18   67 1    
    39   18  143 1    
    40   19   20 am   BACKBONE|DICT|INTERRES
    41   19  144 1    
    42   20   21 2    
    43   20   22 1    
    44   22   23 1    
    45   22   24 1    
    46   22  145 1    
    47   23  146 1    
    48   23  147 1    
    49   23  148 1    
    50   24   25 am   BACKBONE|DICT|INTERRES
    51   24  149 1    
    52   25   26 2    
    53   25   27 1    
    54   27   28 1    
    55   27   29 1    
    56   27  150 1    
    57   28  151 1    
    58   28  152 1    
    59   28  153 1    
    60   29   30 am   BACKBONE|DICT|INTERRES
    61   29  154 1    
    62   30   31 2    
    63   30   32 1    
    64   32   33 1    
    65   32   34 1    
    66   32  155 1    
    67   33  156 1    
    68   33  157 1    
    69   33  158 1    
    70   34   35 am   BACKBONE|DICT|INTERRES
    71   34  159 1    
    72   35   36 2    
    73   35   37 1    
    74   37   38 1    
    75   37   39 1    
    76   37  160 1    
    77   38  161 1    
    78   38  162 1    
    79   38  163 1    
    80   39   40 am   BACKBONE|DICT|INTERRES
    81   39  164 1    
    82   40   41 2    
    83   40   42 1    
    84   42   43 1    
    85   42   44 1    
    86   42  165 1    
    87   43  166 1    
    88   43  167 1    
    89   43  168 1    
    90   44   45 am   BACKBONE|DICT|INTERRES
    91   44  169 1    
    92   45   46 2    
    93   45   47 1    
    94   47   48 1    
    95   47   49 1    
    96   47  170 1    
    97   48  171 1    
    98   48  172 1    
    99   48  173 1    
   100   49   50 am   BACKBONE|DICT|INTERRES
   101   49  174 1    
   102   50   51 2    
   103   50   52 1    
   104   52   53 1    
   105   52   54 1    
   106   52  175 1    
   107   53  176 1    
   108   53  177 1    
   109   53  178 1    
   110   54   55 am   BACKBONE|DICT|INTERRES
   111   54  179 1    
   112   55   56 2    
   113   55   57 1    
   114   57   58 1    
   115   57   59 1    
   116   57  180 1    
   117   58  181 1    
   118   58  182 1    
   119   58  183 1    
   120   59   60 am   BACKBONE|DICT|INTERRES
   121   59  184 1    
   122   60   61 2    
   123   60   62 1    
   124   62   63 1    
   125   62   64 1    
   126   62  185 1    
   127   63  186 1    
   128   63  187 1    
   129   63  188 1    
   130   64   65 am   BACKBONE|DICT|INTERRES
   131   64  189 1    
   132   65   66 2    
   133   67   68 2    
   134   67   69 am   BACKBONE|DICT|INTERRES
   135   69   70 1    
   136   69  190 1    
   137   70   71 1    
   138   70   72 1    
   139   70  191 1    
   140   71  192 1    
   141   71  193 1    
   142   71  194 1    
   143   72   73 2    
   144   72   74 am   BACKBONE|DICT|INTERRES
   145   74   75 1    
   146   74  195 1    
   147   75   76 1    
   148   75   77 1    
   149   75  196 1    
   150   76  197 1    
   151   76  198 1    
   152   76  199 1    
   153   77   78 2    
   154   77   79 am   BACKBONE|DICT|INTERRES
   155   79   80 1    
   156   79  200 1    
   157   80   81 1    
   158   80   82 1    
   159   80  201 1    
   160   81  202 1    
   161   81  203 1    
   162   81  204 1    
   163   82   83 2    
   164   82   84 am   BACKBONE|DICT|INTERRES
   165   84   85 1    
   166   84  205 1    
   167   85   86 1    
   168   85   87 1    
   169   85  206 1    
   170   86  207 1    
   171   86  208 1    
   172   86  209 1    
   173   87   88 2    
   174   87   89 am   BACKBONE|DICT|INTERRES
   175   89   90 1    
   176   89  210 1    
   177   90   91 1    
   178   90   92 1    
   179   90  211 1    
   180   91  212 1    
   181   91  213 1    
   182   91  214 1    
   183   92   93 2    
   184   92   94 am   BACKBONE|DICT|INTERRES
   185   94   95 1    
   186   94  215 1    
   187   95   96 1    
   188   95   97 1    
   189   95  216 1    
   190   96  217 1    
   191   96  218 1    
   192   96  219 1    
   193   97   98 2    
   194   97   99 am   BACKBONE|DICT|INTERRES
   195   99  100 1    
   196   99  220 1    
   197  100  101 1    
   198  100  102 1    
   199  100  221 1    
   200  101  222 1    
   201  101  223 1    
   202  101  224 1    
   203  102  103 2    
   204  102  104 am   BACKBONE|DICT|INTERRES
   205  104  105 1    
   206  104  225 1    
   207  105  106 1    
   208  105  107 1    
   209  105  226 1    
   210  106  227 1    
   211  106  228 1    
   212  106  229 1    
   213  107  108 2    
   214  107  109 am   BACKBONE|DICT|INTERRES
   215  109  110 1    
   216  109  230 1    
   217  110  111 1    
   218  110  112 1    
   219  110  231 1    
   220  111  232 1    
   221  111  233 1    
   222  111  234 1    
   223  112  113 2    
   224  112  114 am   BACKBONE|DICT|INTERRES
   225  114  115 1    
   226  114  235 1    
   227  115  116 1    
   228  115  117 1    
   229  115  236 1    
   230  116  237 1    
   231  116  238 1    
   232  116  239 1    
   233  117  118 2    
   234  117  119 am   BACKBONE|DICT|INTERRES
   235  119  120 1    
   236  119  240 1    
   237  120  121 1    
   238  120  124 1    
   239  120  241 1    
   240  121  122 am   BACKBONE|DICT|INTERRES
   241  121  123 2    
   242  122  242 1    
   243  122  243 1    
   244  124  125 1    
   245  124  244 1    
   246  124  245 1    
   247  125  126 1    
   248  126  246 1    
   249  126  247 1    
@<TRIPOS>SUBSTRUCTURE
     1 UNK         1 GROUP             0       ****    0 ROOT    
