@<TRIPOS>MOLECULE
3R540
247   249    1
SMALL
USER_CHARGES


@<TRIPOS>ATOM
      1 CA         -2.2503  -10.7160  -43.6510 C.3       0 UNK        -0.1800 
      2 C          -2.6274  -12.1919  -43.7692 C.2       0 UNK         0.5000 
      3 O          -2.8592  -12.8336  -42.7471 O.2       0 UNK        -0.5000 
      4 N          -2.7290  -12.7736  -44.9744 N.am      1 UNK        -0.5000 
      5 CA         -2.4712  -12.1608  -46.2836 C.3       1 UNK         0.1400 
      6 C6         -3.0107  -13.0504  -47.4335 C.3       23 UNK        -0.0398 
      7 S7         -3.3370  -12.1308  -48.9776 S.3       23 UNK        -0.2404 
      8 C8         -1.7914  -12.3489  -49.9208 C.3       23 UNK        -0.0205 
      9 C9         -1.5890  -13.7782  -50.4009 C.ar      23 UNK        -0.0193 
     10 C10        -2.2073  -14.2158  -51.5749 C.ar      23 UNK        -0.1150 
     11 C11        -1.9893  -15.5116  -52.0493 C.ar      23 UNK        -0.0193 
     12 C12        -1.1527  -16.3734  -51.3359 C.ar      23 UNK        -0.1150 
     13 C13        -0.5364  -15.9553  -50.1499 C.ar      23 UNK        -0.0193 
     14 C14        -0.7536  -14.6508  -49.6964 C.ar      23 UNK        -0.1150 
     15 C15         0.3962  -16.8765  -49.3649 C.3       23 UNK        -0.0205 
     16 S16        -0.1046  -18.6297  -49.3719 S.3       23 UNK        -0.2404 
     17 C17        -1.7153  -18.5317  -48.5224 C.3       23 UNK        -0.0398 
     18 CA         -2.1595  -19.9179  -48.0082 C.3       11 UNK         0.1400 
     19 N          -1.2967  -20.4069  -46.9304 N.am      11 UNK        -0.5000 
     20 C          -1.0982  -21.7028  -46.6642 C.2       10 UNK         0.5000 
     21 O          -1.5759  -22.6150  -47.3335 O.2       10 UNK        -0.5000 
     22 CA         -0.2228  -22.0497  -45.4463 C.3       10 UNK         0.1400 
     23 CB          1.2535  -22.1500  -45.8573 C.3       10 UNK        -0.1800 
     24 N          -0.3639  -21.1064  -44.3348 N.am      10 UNK        -0.5000 
     25 C          -1.4975  -20.9170  -43.6444 C.2       9 UNK         0.5000 
     26 O          -2.5434  -21.5244  -43.8693 O.2       9 UNK        -0.5000 
     27 CA         -1.4784  -19.8405  -42.5453 C.3       9 UNK         0.1400 
     28 CB         -0.8166  -20.3784  -41.2681 C.3       9 UNK        -0.1800 
     29 N          -0.8123  -18.6086  -42.9669 N.am      9 UNK        -0.5000 
     30 C          -1.2225  -17.8265  -43.9758 C.2       8 UNK         0.5000 
     31 O          -2.2294  -18.0437  -44.6476 O.2       8 UNK        -0.5000 
     32 CA         -0.3180  -16.6381  -44.3434 C.3       8 UNK         0.1400 
     33 CB         -0.4820  -15.4863  -43.3424 C.3       8 UNK        -0.1800 
     34 N           1.0889  -17.0229  -44.4327 N.am      8 UNK        -0.5000 
     35 C           1.5693  -17.9334  -45.2919 C.2       7 UNK         0.5000 
     36 O           0.8802  -18.5179  -46.1258 O.2       7 UNK        -0.5000 
     37 CA          3.0580  -18.2868  -45.1581 C.3       7 UNK         0.1400 
     38 CB          3.9343  -17.2405  -45.8621 C.3       7 UNK        -0.1800 
     39 N           3.4584  -18.4126  -43.7566 N.am      7 UNK        -0.5000 
     40 C           3.0538  -19.4010  -42.9455 C.2       6 UNK         0.5000 
     41 O           2.3317  -20.3305  -43.3050 O.2       6 UNK        -0.5000 
     42 CA          3.4962  -19.3096  -41.4743 C.3       6 UNK         0.1400 
     43 CB          4.9314  -19.8295  -41.3040 C.3       6 UNK        -0.1800 
     44 N           3.4051  -17.9478  -40.9463 N.am      6 UNK        -0.5000 
     45 C           2.2564  -17.2783  -40.7751 C.2       5 UNK         0.5000 
     46 O           1.1470  -17.7508  -41.0181 O.2       5 UNK        -0.5000 
     47 CA          2.3687  -15.8216  -40.2902 C.3       5 UNK         0.1400 
     48 CB          2.3993  -15.7652  -38.7558 C.3       5 UNK        -0.1800 
     49 N           3.5355  -15.1154  -40.8264 N.am      5 UNK        -0.5000 
     50 C           3.7449  -14.8712  -42.1260 C.2       4 UNK         0.5000 
     51 O           3.0024  -15.2659  -43.0288 O.2       4 UNK        -0.5000 
     52 CA          5.0126  -14.0824  -42.4819 C.3       4 UNK         0.1400 
     53 CB          6.0232  -14.9779  -43.2154 C.3       4 UNK        -0.1800 
     54 N           4.6523  -12.9577  -43.3383 N.am      4 UNK        -0.5000 
     55 C           4.2977  -11.7459  -42.8910 C.2       3 UNK         0.5000 
     56 O           4.3451  -11.4113  -41.7064 O.2       3 UNK        -0.5000 
     57 CA          3.7937  -10.7396  -43.9442 C.3       3 UNK         0.1400 
     58 CB          4.9614   -9.9110  -44.5015 C.3       3 UNK        -0.1800 
     59 N           3.0856  -11.3827  -45.0545 N.am      3 UNK        -0.5000 
     60 C           1.8796  -11.9546  -44.9458 C.2       2 UNK         0.5000 
     61 O           1.2199  -11.9702  -43.9040 O.2       2 UNK        -0.5000 
     62 CA          1.3464  -12.6524  -46.2094 C.3       2 UNK         0.1400 
     63 CB          1.9849  -14.0412  -46.3616 C.3       2 UNK        -0.1800 
     64 N          -0.1071  -12.8019  -46.1563 N.am      2 UNK        -0.5000 
     65 C          -0.9755  -11.8348  -46.4783 C.2       1 UNK         0.5000 
     66 O          -0.6418  -10.7251  -46.8952 O.2       1 UNK        -0.5000 
     67 C          -3.6469  -19.9112  -47.6019 C.2       11 UNK         0.5000 
     68 O          -4.4993  -20.1028  -48.4692 O.2       11 UNK        -0.5000 
     69 N          -3.9463  -19.6830  -46.3153 N.am      12 UNK        -0.5000 
     70 CA         -5.3060  -19.7008  -45.7732 C.3       12 UNK         0.1400 
     71 CB         -5.3287  -18.9926  -44.4097 C.3       12 UNK        -0.1800 
     72 C          -5.8708  -21.1272  -45.6537 C.2       12 UNK         0.5000 
     73 O          -7.0171  -21.3619  -46.0396 O.2       12 UNK        -0.5000 
     74 N          -5.0565  -22.0439  -45.1196 N.am      13 UNK        -0.5000 
     75 CA         -5.3572  -23.4643  -44.9688 C.3       13 UNK         0.1400 
     76 CB         -4.9793  -23.8942  -43.5370 C.3       13 UNK        -0.1800 
     77 C          -4.6216  -24.2693  -46.0587 C.2       13 UNK         0.5000 
     78 O          -4.4074  -23.7538  -47.1579 O.2       13 UNK        -0.5000 
     79 N          -4.2837  -25.5320  -45.7495 N.am      14 UNK        -0.5000 
     80 CA         -3.4727  -26.4700  -46.5414 C.3       14 UNK         0.1400 
     81 CB         -1.9829  -26.0860  -46.4423 C.3       14 UNK        -0.1800 
     82 C          -3.9391  -26.6395  -48.0035 C.2       14 UNK         0.5000 
     83 O          -3.1089  -26.7518  -48.9069 O.2       14 UNK        -0.5000 
     84 N          -5.2646  -26.6153  -48.2087 N.am      15 UNK        -0.5000 
     85 CA         -5.9538  -26.6486  -49.5033 C.3       15 UNK         0.1400 
     86 CB         -5.7911  -28.0323  -50.1688 C.3       15 UNK        -0.1800 
     87 C          -5.5473  -25.4852  -50.4356 C.2       15 UNK         0.5000 
     88 O          -5.3994  -25.6934  -51.6384 O.2       15 UNK        -0.5000 
     89 N          -5.3522  -24.2891  -49.8605 N.am      16 UNK        -0.5000 
     90 CA         -4.8891  -23.0589  -50.5117 C.3       16 UNK         0.1400 
     91 CB         -5.8956  -22.5674  -51.5725 C.3       16 UNK        -0.1800 
     92 C          -3.4539  -23.2084  -51.0516 C.2       16 UNK         0.5000 
     93 O          -3.1997  -22.9707  -52.2366 O.2       16 UNK        -0.5000 
     94 N          -2.5538  -23.6366  -50.1546 N.am      17 UNK        -0.5000 
     95 CA         -1.1436  -23.9536  -50.3936 C.3       17 UNK         0.1400 
     96 CB         -0.3371  -22.6729  -50.6971 C.3       17 UNK        -0.1800 
     97 C          -0.9687  -25.0560  -51.4584 C.2       17 UNK         0.5000 
     98 O          -0.2567  -24.8614  -52.4440 O.2       17 UNK        -0.5000 
     99 N          -1.6488  -26.1905  -51.2373 N.am      18 UNK        -0.5000 
    100 CA        -1.6905  -27.3835  -52.0880 C.3       18 UNK         0.1400 
    101 CB        -0.3150  -28.0825  -52.1183 C.3       18 UNK        -0.1800 
    102 C         -2.2595  -27.0918  -53.4920 C.2       18 UNK         0.5000 
    103 O         -1.6592  -27.4708  -54.4997 O.2       18 UNK        -0.5000 
    104 N         -3.4168  -26.4158  -53.5185 N.am      19 UNK        -0.5000 
    105 CA        -4.1945  -26.0138  -54.6936 C.3       19 UNK         0.1400 
    106 CB        -4.7313  -27.2493  -55.4468 C.3       19 UNK        -0.1800 
    107 C         -3.4671  -25.0117  -55.6126 C.2       19 UNK         0.5000 
    108 O         -3.7388  -24.9786  -56.8145 O.2       19 UNK        -0.5000 
    109 N         -2.5695  -24.1993  -55.0381 N.am      20 UNK        -0.5000 
    110 CA        -1.8872  -23.1140  -55.7369 C.3       20 UNK         0.1400 
    111 CB        -0.6081  -22.7232  -54.9808 C.3       20 UNK        -0.1800 
    112 C         -2.8286  -21.9130  -55.9077 C.2       20 UNK         0.5000 
    113 O         -3.0885  -21.5011  -57.0388 O.2       20 UNK        -0.5000 
    114 N         -3.3283  -21.3886  -54.7765 N.am      21 UNK        -0.5000 
    115 CA        -4.3335  -20.3226  -54.6445 C.3       21 UNK         0.1400 
    116 CB        -5.7196  -20.8884  -55.0167 C.3       21 UNK        -0.1800 
    117 C         -4.0311  -19.0084  -55.4086 C.2       21 UNK         0.5000 
    118 O         -4.9594  -18.2485  -55.6903 O.2       21 UNK        -0.5000 
    119 N         -2.7561  -18.7694  -55.7503 N.am      22 UNK        -0.5000 
    120 CA        -2.2901  -17.7251  -56.6853 C.3       22 UNK         0.1400 
    121 C         -2.8015  -17.9023  -58.1524 C.2       22 UNK         0.5000 
    122 N         -3.2073  -19.0938  -58.5751 N.am      22 UNK        -0.7600 
    123 O         -2.8034  -16.9578  -58.9379 O.2       22 UNK        -0.5000 
    124 C124       -2.4881  -16.2784  -56.1474 C.3       23 UNK        -0.0398 
    125 S125       -1.4327  -15.9204  -54.7059 S.3       23 UNK        -0.2404 
    126 C126       -2.6345  -15.9756  -53.3445 C.3       23 UNK        -0.0205 
    127 H127       -1.1873  -10.5735  -43.8434 H         1 UNK         0.0600 
    128 H128       -2.4552  -10.3528  -42.6438 H         1 UNK         0.0600 
    129 H129       -2.8207  -10.0967  -44.3422 H         1 UNK         0.0600 
    130 H130       -3.0124  -13.7419  -45.0024 H         1 UNK         0.3000 
    131 H131       -3.0231  -11.2196  -46.3132 H         1 UNK         0.0600 
    132 H132       -2.3682  -13.9108  -47.6182 H         1 UNK         0.0800 
    133 H133       -3.9719  -13.4739  -47.1387 H         1 UNK         0.0800 
    134 H134       -1.8205  -11.6832  -50.7847 H         1 UNK         0.0800 
    135 H135       -0.9371  -12.0212  -49.3289 H         1 UNK         0.0800 
    136 H136       -2.8457  -13.5403  -52.1272 H         1 UNK         0.1150 
    137 H137       -0.9749  -17.3685  -51.7181 H         1 UNK         0.1150 
    138 H138       -0.2635  -14.3083  -48.7964 H         1 UNK         0.1150 
    139 H139        1.3976  -16.7987  -49.7893 H         1 UNK         0.0800 
    140 H140        0.4734  -16.5492  -48.3269 H         1 UNK         0.0800 
    141 H141       -2.4395  -18.1283  -49.2328 H         1 UNK         0.0800 
    142 H142       -1.6529  -17.8181  -47.6986 H         1 UNK         0.0800 
    143 H143       -2.0861  -20.6112  -48.8491 H         1 UNK         0.0600 
    144 H144       -0.7876  -19.7104  -46.3965 H         1 UNK         0.3000 
    145 H145       -0.5407  -23.0311  -45.0881 H         1 UNK         0.0600 
    146 H146        1.8723  -22.4897  -45.0267 H         1 UNK         0.0600 
    147 H147        1.3843  -22.8621  -46.6730 H         1 UNK         0.0600 
    148 H148        1.6421  -21.1890  -46.1949 H         1 UNK         0.0600 
    149 H149        0.4694  -20.5925  -44.0671 H         1 UNK         0.3000 
    150 H150       -2.5146  -19.5910  -42.3090 H         1 UNK         0.0600 
    151 H151       -1.3018  -21.2956  -40.9321 H         1 UNK         0.0600 
    152 H152       -0.8875  -19.6562  -40.4545 H         1 UNK         0.0600 
    153 H153        0.2392  -20.6018  -41.4246 H         1 UNK         0.0600 
    154 H154        0.0122  -18.3366  -42.4379 H         1 UNK         0.3000 
    155 H155       -0.6246  -16.2793  -45.3281 H         1 UNK         0.0600 
    156 H156       -1.5224  -15.1659  -43.2893 H         1 UNK         0.0600 
    157 H157        0.1147  -14.6195  -43.6261 H         1 UNK         0.0600 
    158 H158       -0.1827  -15.7796  -42.3371 H         1 UNK         0.0600 
    159 H159        1.7341  -16.5588  -43.8000 H         1 UNK         0.3000 
    160 H160        3.2200  -19.2493  -45.6478 H         1 UNK         0.0600 
    161 H161        3.8140  -16.2511  -45.4224 H         1 UNK         0.0600 
    162 H162        3.6718  -17.1617  -46.9179 H         1 UNK         0.0600 
    163 H163        4.9897  -17.5073  -45.8075 H         1 UNK         0.0600 
    164 H164        4.0032  -17.6573  -43.3689 H         1 UNK         0.3000 
    165 H165        2.8306  -19.9459  -40.8870 H         1 UNK         0.0600 
    166 H166        5.2236  -19.8426  -40.2538 H         1 UNK         0.0600 
    167 H167        5.0230  -20.8500  -41.6784 H         1 UNK         0.0600 
    168 H168        5.6517  -19.2150  -41.8456 H         1 UNK         0.0600 
    169 H169        4.2719  -17.4833  -40.7200 H         1 UNK         0.3000 
    170 H170        1.4771  -15.2919  -40.6310 H         1 UNK         0.0600 
    171 H171        1.5292  -16.2667  -38.3296 H         1 UNK         0.0600 
    172 H172        3.2886  -16.2503  -38.3515 H         1 UNK         0.0600 
    173 H173        2.3857  -14.7354  -38.3984 H         1 UNK         0.0600 
    174 H174        4.1939  -14.7588  -40.1487 H         1 UNK         0.3000 
    175 H175        5.4845  -13.7180  -41.5668 H         1 UNK         0.0600 
    176 H176        5.6280  -15.3486  -44.1610 H         1 UNK         0.0600 
    177 H177        6.9429  -14.4339  -43.4311 H         1 UNK         0.0600 
    178 H178        6.2928  -15.8433  -42.6087 H         1 UNK         0.0600 
    179 H179        4.5278  -13.1629  -44.3180 H         1 UNK         0.3000 
    180 H180        3.1011  -10.0579  -43.4455 H         1 UNK         0.0600 
    181 H181        5.6834  -10.5350  -45.0298 H         1 UNK         0.0600 
    182 H182        5.4949   -9.3999  -43.6990 H         1 UNK         0.0600 
    183 H183        4.6079   -9.1460  -45.1932 H         1 UNK         0.0600 
    184 H184        3.5651  -11.4041  -45.9431 H         1 UNK         0.3000 
    185 H185        1.6122  -12.0519  -47.0822 H         1 UNK         0.0600 
    186 H186        3.0637  -13.9646  -46.5003 H         1 UNK         0.0600 
    187 H187        1.8154  -14.6530  -45.4776 H         1 UNK         0.0600 
    188 H188        1.5863  -14.5748  -47.2236 H         1 UNK         0.0600 
    189 H189       -0.4570  -13.6471  -45.7330 H         1 UNK         0.3000 
    190 H190       -3.2008  -19.4522  -45.6666 H         1 UNK         0.3000 
    191 H191       -5.9543  -19.1408  -46.4506 H         1 UNK         0.0600 
    192 H192       -5.0192  -17.9515  -44.5023 H         1 UNK         0.0600 
    193 H193       -6.3325  -18.9964  -43.9831 H         1 UNK         0.0600 
    194 H194       -4.6643  -19.4763  -43.6930 H         1 UNK         0.0600 
    195 H195       -4.1190  -21.7652  -44.8391 H         1 UNK         0.3000 
    196 H196       -6.4258  -23.6411  -45.1040 H         1 UNK         0.0600 
    197 H197       -5.3291  -24.9028  -43.3153 H         1 UNK         0.0600 
    198 H198       -5.4336  -23.2336  -42.7982 H         1 UNK         0.0600 
    199 H199       -3.9000  -23.8710  -43.3797 H         1 UNK         0.0600 
    200 H200       -4.5449  -25.8671  -44.8328 H         1 UNK         0.3000 
    201 H201       -3.5915  -27.4483  -46.0739 H         1 UNK         0.0600 
    202 H202       -1.6707  -25.9681  -45.4048 H         1 UNK         0.0600 
    203 H203       -1.7770  -25.1518  -46.9626 H         1 UNK         0.0600 
    204 H204       -1.3484  -26.8535  -46.8869 H         1 UNK         0.0600 
    205 H205       -5.8582  -26.5016  -47.3993 H         1 UNK         0.3000 
    206 H206       -7.0145  -26.5080  -49.2916 H         1 UNK         0.0600 
    207 H207       -6.0984  -28.8322  -49.4953 H         1 UNK         0.0600 
    208 H208       -6.4075  -28.1105  -51.0652 H         1 UNK         0.0600 
    209 H209       -4.7594  -28.2220  -50.4658 H         1 UNK         0.0600 
    210 H210       -5.3867  -24.2373  -48.8473 H         1 UNK         0.3000 
    211 H211       -4.8466  -22.3049  -49.7273 H         1 UNK         0.0600 
    212 H212       -5.9488  -23.2386  -52.4298 H         1 UNK         0.0600 
    213 H213       -5.6101  -21.5836  -51.9450 H         1 UNK         0.0600 
    214 H214       -6.8974  -22.4767  -51.1532 H         1 UNK         0.0600 
    215 H215       -2.8678  -23.7807  -49.2019 H         1 UNK         0.3000 
    216 H216       -0.7594  -24.3678  -49.4602 H         1 UNK         0.0600 
    217 H217        0.7184  -22.9014  -50.8471 H         1 UNK         0.0600 
    218 H218       -0.3961  -21.9668  -49.8696 H         1 UNK         0.0600 
    219 H219       -0.6934  -22.1661  -51.5932 H         1 UNK         0.0600 
    220 H220       -2.2090  -26.2565  -50.3877 H         1 UNK         0.3000 
    221 H221       -2.3932  -28.0689  -51.6120 H         1 UNK         0.0600 
    222 H222        0.4407  -27.4733  -52.6150 H         1 UNK         0.0600 
    223 H223        0.0381  -28.2992  -51.1101 H         1 UNK         0.0600 
    224 H224       -0.3721  -29.0314  -52.6526 H         1 UNK         0.0600 
    225 H225       -3.8486  -26.1498  -52.6371 H         1 UNK         0.3000 
    226 H226       -5.0586  -25.4731  -54.3055 H         1 UNK         0.0600 
    227 H227       -5.2544  -27.9254  -54.7704 H         1 UNK         0.0600 
    228 H228       -5.4402  -26.9580  -56.2225 H         1 UNK         0.0600 
    229 H229       -3.9307  -27.8095  -55.9304 H         1 UNK         0.0600 
    230 H230       -2.4260  -24.2613  -54.0379 H         1 UNK         0.3000 
    231 H231       -1.5938  -23.4592  -56.7307 H         1 UNK         0.0600 
    232 H232       -0.8185  -22.4137  -53.9572 H         1 UNK         0.0600 
    233 H233       -0.0957  -21.8985  -55.4773 H         1 UNK         0.0600 
    234 H234        0.0895  -23.5597  -54.9362 H         1 UNK         0.0600 
    235 H235       -3.0754  -21.8434  -53.9032 H         1 UNK         0.3000 
    236 H236       -4.3538  -20.0575  -53.5867 H         1 UNK         0.0600 
    237 H237       -5.9243  -21.8182  -54.4870 H         1 UNK         0.0600 
    238 H238       -6.5153  -20.1886  -54.7592 H         1 UNK         0.0600 
    239 H239       -5.7936  -21.0929  -56.0854 H         1 UNK         0.0600 
    240 H240       -2.0623  -19.4477  -55.4737 H         1 UNK         0.3000 
    241 H241       -1.2148  -17.8835  -56.7739 H         1 UNK         0.0600 
    242 H242       -3.5243  -19.1979  -59.5256 H         1 UNK         0.3800 
    243 H243       -3.1880  -19.9073  -57.9629 H         1 UNK         0.3800 
    244 H244       -2.2106  -15.5441  -56.9050 H         1 UNK         0.0800 
    245 H245       -3.5347  -16.0790  -55.9167 H         1 UNK         0.0800 
    246 H246       -3.4941  -15.3486  -53.5861 H         1 UNK         0.0800 
    247 H247       -3.0112  -16.9927  -53.2291 H         1 UNK         0.0800 
@<TRIPOS>BOND
     1    1    2 1    
     2    1  127 1    
     3    1  128 1    
     4    1  129 1    
     5    2    3 2    
     6    2    4 am   BACKBONE|DICT|INTERRES
     7    4    5 1    
     8    4  130 1    
     9    5    6 1    
    10    5   65 1    
    11    5  131 1    
    12    6    7 1    
    13    6  132 1    
    14    6  133 1    
    15    7    8 1    
    16    8    9 1    
    17    8  134 1    
    18    8  135 1    
    19    9   10 ar   
    20    9   14 ar   
    21   10   11 ar   
    22   10  136 1    
    23   11   12 ar   
    24   11  126 1    
    25   12   13 ar   
    26   12  137 1    
    27   13   14 ar   
    28   13   15 1    
    29   14  138 1    
    30   15   16 1    
    31   15  139 1    
    32   15  140 1    
    33   16   17 1    
    34   17   18 1    
    35   17  141 1    
    36   17  142 1    
    37   18   19 1    
    38   18   67 1    
    39   18  143 1    
    40   19   20 am   BACKBONE|DICT|INTERRES
    41   19  144 1    
    42   20   21 2    
    43   20   22 1    
    44   22   23 1    
    45   22   24 1    
    46   22  145 1    
    47   23  146 1    
    48   23  147 1    
    49   23  148 1    
    50   24   25 am   BACKBONE|DICT|INTERRES
    51   24  149 1    
    52   25   26 2    
    53   25   27 1    
    54   27   28 1    
    55   27   29 1    
    56   27  150 1    
    57   28  151 1    
    58   28  152 1    
    59   28  153 1    
    60   29   30 am   BACKBONE|DICT|INTERRES
    61   29  154 1    
    62   30   31 2    
    63   30   32 1    
    64   32   33 1    
    65   32   34 1    
    66   32  155 1    
    67   33  156 1    
    68   33  157 1    
    69   33  158 1    
    70   34   35 am   BACKBONE|DICT|INTERRES
    71   34  159 1    
    72   35   36 2    
    73   35   37 1    
    74   37   38 1    
    75   37   39 1    
    76   37  160 1    
    77   38  161 1    
    78   38  162 1    
    79   38  163 1    
    80   39   40 am   BACKBONE|DICT|INTERRES
    81   39  164 1    
    82   40   41 2    
    83   40   42 1    
    84   42   43 1    
    85   42   44 1    
    86   42  165 1    
    87   43  166 1    
    88   43  167 1    
    89   43  168 1    
    90   44   45 am   BACKBONE|DICT|INTERRES
    91   44  169 1    
    92   45   46 2    
    93   45   47 1    
    94   47   48 1    
    95   47   49 1    
    96   47  170 1    
    97   48  171 1    
    98   48  172 1    
    99   48  173 1    
   100   49   50 am   BACKBONE|DICT|INTERRES
   101   49  174 1    
   102   50   51 2    
   103   50   52 1    
   104   52   53 1    
   105   52   54 1    
   106   52  175 1    
   107   53  176 1    
   108   53  177 1    
   109   53  178 1    
   110   54   55 am   BACKBONE|DICT|INTERRES
   111   54  179 1    
   112   55   56 2    
   113   55   57 1    
   114   57   58 1    
   115   57   59 1    
   116   57  180 1    
   117   58  181 1    
   118   58  182 1    
   119   58  183 1    
   120   59   60 am   BACKBONE|DICT|INTERRES
   121   59  184 1    
   122   60   61 2    
   123   60   62 1    
   124   62   63 1    
   125   62   64 1    
   126   62  185 1    
   127   63  186 1    
   128   63  187 1    
   129   63  188 1    
   130   64   65 am   BACKBONE|DICT|INTERRES
   131   64  189 1    
   132   65   66 2    
   133   67   68 2    
   134   67   69 am   BACKBONE|DICT|INTERRES
   135   69   70 1    
   136   69  190 1    
   137   70   71 1    
   138   70   72 1    
   139   70  191 1    
   140   71  192 1    
   141   71  193 1    
   142   71  194 1    
   143   72   73 2    
   144   72   74 am   BACKBONE|DICT|INTERRES
   145   74   75 1    
   146   74  195 1    
   147   75   76 1    
   148   75   77 1    
   149   75  196 1    
   150   76  197 1    
   151   76  198 1    
   152   76  199 1    
   153   77   78 2    
   154   77   79 am   BACKBONE|DICT|INTERRES
   155   79   80 1    
   156   79  200 1    
   157   80   81 1    
   158   80   82 1    
   159   80  201 1    
   160   81  202 1    
   161   81  203 1    
   162   81  204 1    
   163   82   83 2    
   164   82   84 am   BACKBONE|DICT|INTERRES
   165   84   85 1    
   166   84  205 1    
   167   85   86 1    
   168   85   87 1    
   169   85  206 1    
   170   86  207 1    
   171   86  208 1    
   172   86  209 1    
   173   87   88 2    
   174   87   89 am   BACKBONE|DICT|INTERRES
   175   89   90 1    
   176   89  210 1    
   177   90   91 1    
   178   90   92 1    
   179   90  211 1    
   180   91  212 1    
   181   91  213 1    
   182   91  214 1    
   183   92   93 2    
   184   92   94 am   BACKBONE|DICT|INTERRES
   185   94   95 1    
   186   94  215 1    
   187   95   96 1    
   188   95   97 1    
   189   95  216 1    
   190   96  217 1    
   191   96  218 1    
   192   96  219 1    
   193   97   98 2    
   194   97   99 am   BACKBONE|DICT|INTERRES
   195   99  100 1    
   196   99  220 1    
   197  100  101 1    
   198  100  102 1    
   199  100  221 1    
   200  101  222 1    
   201  101  223 1    
   202  101  224 1    
   203  102  103 2    
   204  102  104 am   BACKBONE|DICT|INTERRES
   205  104  105 1    
   206  104  225 1    
   207  105  106 1    
   208  105  107 1    
   209  105  226 1    
   210  106  227 1    
   211  106  228 1    
   212  106  229 1    
   213  107  108 2    
   214  107  109 am   BACKBONE|DICT|INTERRES
   215  109  110 1    
   216  109  230 1    
   217  110  111 1    
   218  110  112 1    
   219  110  231 1    
   220  111  232 1    
   221  111  233 1    
   222  111  234 1    
   223  112  113 2    
   224  112  114 am   BACKBONE|DICT|INTERRES
   225  114  115 1    
   226  114  235 1    
   227  115  116 1    
   228  115  117 1    
   229  115  236 1    
   230  116  237 1    
   231  116  238 1    
   232  116  239 1    
   233  117  118 2    
   234  117  119 am   BACKBONE|DICT|INTERRES
   235  119  120 1    
   236  119  240 1    
   237  120  121 1    
   238  120  124 1    
   239  120  241 1    
   240  121  122 am   BACKBONE|DICT|INTERRES
   241  121  123 2    
   242  122  242 1    
   243  122  243 1    
   244  124  125 1    
   245  124  244 1    
   246  124  245 1    
   247  125  126 1    
   248  126  246 1    
   249  126  247 1    
@<TRIPOS>SUBSTRUCTURE
     1 UNK         1 GROUP             0       ****    0 ROOT    
