@<TRIPOS>MOLECULE
3R540
247   249    1
SMALL
USER_CHARGES


@<TRIPOS>ATOM
      1 CA         -2.2575  -17.1826  -48.0622 C.3       0 UNK        -0.1800 
      2 C          -1.9381  -15.7487  -48.4565 C.2       0 UNK         0.5000 
      3 O          -2.6321  -14.8299  -48.0228 O.2       0 UNK        -0.5000 
      4 N          -0.8804  -15.5474  -49.2558 N.am      1 UNK        -0.5000 
      5 CA         -0.4325  -14.2424  -49.7699 C.3       1 UNK         0.1400 
      6 C6          0.7356  -14.3890  -50.7755 C.3       23 UNK        -0.0398 
      7 S7          0.2027  -15.1211  -52.3575 S.3       23 UNK        -0.2404 
      8 C8          1.1777  -16.6619  -52.4345 C.3       23 UNK        -0.0205 
      9 C9          0.5876  -17.8148  -51.6288 C.ar      23 UNK        -0.0193 
     10 C10        -0.7859  -18.0790  -51.6566 C.ar      23 UNK        -0.1150 
     11 C11        -1.3142  -19.1793  -50.9800 C.ar      23 UNK        -0.0193 
     12 C12        -0.4577  -20.0402  -50.2948 C.ar      23 UNK        -0.1150 
     13 C13         0.9176  -19.7889  -50.2487 C.ar      23 UNK        -0.0193 
     14 C14         1.4319  -18.6688  -50.9101 C.ar      23 UNK        -0.1150 
     15 C15         1.8496  -20.7614  -49.5357 C.3       23 UNK        -0.0205 
     16 S16         2.2676  -20.2632  -47.8307 S.3       23 UNK        -0.2404 
     17 C17         0.6322  -19.9448  -47.0942 C.3       23 UNK        -0.0398 
     18 CA         -0.2321  -21.2135  -46.9194 C.3       11 UNK         0.1400 
     19 N           0.3352  -22.1509  -45.9504 N.am      11 UNK        -0.5000 
     20 C          -0.1345  -23.3851  -45.7247 C.2       10 UNK         0.5000 
     21 O          -1.0452  -23.8897  -46.3814 O.2       10 UNK        -0.5000 
     22 CA          0.4741  -24.1654  -44.5430 C.3       10 UNK         0.1400 
     23 CB          1.5491  -25.1409  -45.0403 C.3       10 UNK        -0.1800 
     24 N           1.0548  -23.2997  -43.5138 N.am      10 UNK        -0.5000 
     25 C           0.3973  -22.3771  -42.7988 C.2       9 UNK         0.5000 
     26 O          -0.8147  -22.1803  -42.8921 O.2       9 UNK        -0.5000 
     27 CA          1.2478  -21.4530  -41.9138 C.3       9 UNK         0.1400 
     28 CB          1.6111  -22.1103  -40.5695 C.3       9 UNK        -0.1800 
     29 N           2.4165  -20.9216  -42.6281 N.am      9 UNK        -0.5000 
     30 C           3.5569  -21.5378  -42.9751 C.2       8 UNK         0.5000 
     31 O           3.8087  -22.7066  -42.6801 O.2       8 UNK        -0.5000 
     32 CA          4.5565  -20.7573  -43.8572 C.3       8 UNK         0.1400 
     33 CB          4.9065  -21.5621  -45.1211 C.3       8 UNK        -0.1800 
     34 N           4.0675  -19.4422  -44.2765 N.am      8 UNK        -0.5000 
     35 C           4.0838  -18.3273  -43.5347 C.2       7 UNK         0.5000 
     36 O           4.5426  -18.2734  -42.3933 O.2       7 UNK        -0.5000 
     37 CA          3.4568  -17.0625  -44.1601 C.3       7 UNK         0.1400 
     38 CB          3.2704  -17.1549  -45.6924 C.3       7 UNK        -0.1800 
     39 N           2.1921  -16.6992  -43.5100 N.am      7 UNK        -0.5000 
     40 C           1.1043  -17.4675  -43.3518 C.2       6 UNK         0.5000 
     41 O           1.0309  -18.6269  -43.7611 O.2       6 UNK        -0.5000 
     42 CA         -0.1270  -16.8604  -42.6458 C.3       6 UNK         0.1400 
     43 CB         -0.5850  -17.7392  -41.4655 C.3       6 UNK        -0.1800 
     44 N          -0.0257  -15.4556  -42.2268 N.am      6 UNK        -0.5000 
     45 C           0.7781  -14.9138  -41.2974 C.2       5 UNK         0.5000 
     46 O           1.6911  -15.5252  -40.7438 O.2       5 UNK        -0.5000 
     47 CA          0.5212  -13.4416  -40.9107 C.3       5 UNK         0.1400 
     48 CB          1.5887  -12.5153  -41.5098 C.3       5 UNK        -0.1800 
     49 N          -0.8081  -12.9666  -41.3042 N.am      5 UNK        -0.5000 
     50 C          -1.9401  -13.2952  -40.6636 C.2       4 UNK         0.5000 
     51 O          -1.9643  -13.9646  -39.6300 O.2       4 UNK        -0.5000 
     52 CA         -3.2733  -12.8186  -41.2758 C.3       4 UNK         0.1400 
     53 CB         -3.7889  -11.5757  -40.5342 C.3       4 UNK        -0.1800 
     54 N          -3.2231  -12.5242  -42.7107 N.am      4 UNK        -0.5000 
     55 C          -2.9311  -13.3988  -43.6831 C.2       3 UNK         0.5000 
     56 O          -2.6092  -14.5695  -43.4720 O.2       3 UNK        -0.5000 
     57 CA         -2.9794  -12.8864  -45.1375 C.3       3 UNK         0.1400 
     58 CB         -3.4605  -11.4250  -45.2872 C.3       3 UNK        -0.1800 
     59 N          -1.6960  -13.0723  -45.8172 N.am      3 UNK        -0.5000 
     60 C          -0.5027  -12.5832  -45.4440 C.2       2 UNK         0.5000 
     61 O          -0.3377  -11.8933  -44.4365 O.2       2 UNK        -0.5000 
     62 CA          0.7203  -12.9252  -46.3224 C.3       2 UNK         0.1400 
     63 CB          1.7862  -13.6722  -45.5105 C.3       2 UNK        -0.1800 
     64 N           0.3857  -13.7296  -47.5003 N.am      2 UNK        -0.5000 
     65 C          -0.0530  -13.2308  -48.6638 C.2       1 UNK         0.5000 
     66 O          -0.1794  -12.0251  -48.8807 O.2       1 UNK        -0.5000 
     67 C          -1.6813  -20.8146  -46.5772 C.2       11 UNK         0.5000 
     68 O          -2.4872  -20.6546  -47.4918 O.2       11 UNK        -0.5000 
     69 N          -1.9892  -20.6797  -45.2815 N.am      12 UNK        -0.5000 
     70 CA         -3.3324  -20.3775  -44.7951 C.3       12 UNK         0.1400 
     71 CB         -3.2291  -19.5077  -43.5328 C.3       12 UNK        -0.1800 
     72 C          -4.1199  -21.6647  -44.5039 C.2       12 UNK         0.5000 
     73 O          -5.2948  -21.7518  -44.8611 O.2       12 UNK        -0.5000 
     74 N          -3.4658  -22.6320  -43.8465 N.am      13 UNK        -0.5000 
     75 CA         -4.0967  -23.8469  -43.3334 C.3       13 UNK         0.1400 
     76 CB         -3.1916  -24.4673  -42.2578 C.3       13 UNK        -0.1800 
     77 C          -4.4356  -24.8877  -44.4146 C.2       13 UNK         0.5000 
     78 O          -5.4513  -25.5718  -44.2808 O.2       13 UNK        -0.5000 
     79 N          -3.5829  -25.0121  -45.4405 N.am      14 UNK        -0.5000 
     80 CA         -3.6735  -26.0594  -46.4621 C.3       14 UNK         0.1400 
     81 CB         -2.4704  -27.0062  -46.2992 C.3       14 UNK        -0.1800 
     82 C          -3.7392  -25.5073  -47.8970 C.2       14 UNK         0.5000 
     83 O          -3.9171  -26.3026  -48.8206 O.2       14 UNK        -0.5000 
     84 N          -3.5839  -24.1833  -48.0722 N.am      15 UNK        -0.5000 
     85 CA         -3.4938  -23.4748  -49.3584 C.3       15 UNK         0.1400 
     86 CB         -4.8453  -23.5137  -50.1024 C.3       15 UNK        -0.1800 
     87 C          -2.3163  -23.9819  -50.2192 C.2       15 UNK         0.5000 
     88 O          -2.4742  -24.1944  -51.4215 O.2       15 UNK        -0.5000 
     89 N          -1.1682  -24.2064  -49.5613 N.am      16 UNK        -0.5000 
     90 CA         -0.0316  -25.0036  -50.0378 C.3       16 UNK         0.1400 
     91 CB          1.0660  -24.9862  -48.9628 C.3       16 UNK        -0.1800 
     92 C           0.5579  -24.6616  -51.4233 C.2       16 UNK         0.5000 
     93 O           1.1228  -25.5534  -52.0583 O.2       16 UNK        -0.5000 
     94 N           0.4280  -23.4078  -51.8787 N.am      17 UNK        -0.5000 
     95 CA          0.8773  -22.9851  -53.2094 C.3       17 UNK         0.1400 
     96 CB          1.0687  -21.4617  -53.2317 C.3       17 UNK        -0.1800 
     97 C          -0.0783  -23.4043  -54.3421 C.2       17 UNK         0.5000 
     98 O           0.3645  -23.4958  -55.4878 O.2       17 UNK        -0.5000 
     99 N          -1.3650  -23.6122  -54.0157 N.am      18 UNK        -0.5000 
    100 CA        -2.4832  -23.8752  -54.9323 C.3       18 UNK         0.1400 
    101 CB        -2.3552  -25.2815  -55.5528 C.3       18 UNK        -0.1800 
    102 C         -2.6806  -22.7634  -55.9905 C.2       18 UNK         0.5000 
    103 O         -3.1007  -23.0397  -57.1162 O.2       18 UNK        -0.5000 
    104 N         -2.3482  -21.5244  -55.6095 N.am      19 UNK        -0.5000 
    105 CA        -2.4232  -20.3289  -56.4419 C.3       19 UNK         0.1400 
    106 CB        -1.4831  -19.2709  -55.8373 C.3       19 UNK        -0.1800 
    107 C         -3.8578  -19.7813  -56.5193 C.2       19 UNK         0.5000 
    108 O         -4.6870  -20.0851  -55.6591 O.2       19 UNK        -0.5000 
    109 N         -4.1068  -18.9061  -57.5035 N.am      20 UNK        -0.5000 
    110 CA        -5.3532  -18.1392  -57.6318 C.3       20 UNK         0.1400 
    111 CB        -5.3314  -17.3511  -58.9499 C.3       20 UNK        -0.1800 
    112 C         -5.5979  -17.1935  -56.4368 C.2       20 UNK         0.5000 
    113 O         -6.7483  -16.9576  -56.0648 O.2       20 UNK        -0.5000 
    114 N         -4.5025  -16.7290  -55.8170 N.am      21 UNK        -0.5000 
    115 CA        -4.4761  -15.9571  -54.5735 C.3       21 UNK         0.1400 
    116 CB        -3.0272  -15.5279  -54.2937 C.3       21 UNK        -0.1800 
    117 C         -5.0563  -16.7068  -53.3558 C.2       21 UNK         0.5000 
    118 O         -5.4628  -16.0556  -52.3930 O.2       21 UNK        -0.5000 
    119 N         -5.1011  -18.0450  -53.4170 N.am      22 UNK        -0.5000 
    120 CA        -5.7328  -18.9041  -52.4054 C.3       22 UNK         0.1400 
    121 C         -7.2855  -18.9754  -52.5176 C.2       22 UNK         0.5000 
    122 N         -7.9153  -18.4115  -53.5434 N.am      22 UNK        -0.7600 
    123 O         -7.9359  -19.5478  -51.6477 O.2       22 UNK        -0.5000 
    124 C124       -5.1170  -20.3308  -52.3639 C.3       23 UNK        -0.0398 
    125 S125       -3.2906  -20.4176  -52.4335 S.3       23 UNK        -0.2404 
    126 C126       -2.8106  -19.4304  -50.9886 C.3       23 UNK        -0.0205 
    127 H127       -3.2674  -17.4445  -48.3774 H         1 UNK         0.0600 
    128 H128       -2.1952  -17.3012  -46.9804 H         1 UNK         0.0600 
    129 H129       -1.5684  -17.8879  -48.5212 H         1 UNK         0.0600 
    130 H130       -0.3661  -16.3455  -49.6016 H         1 UNK         0.3000 
    131 H131       -1.2816  -13.8037  -50.2987 H         1 UNK         0.0600 
    132 H132        1.1630  -13.4143  -51.0195 H         1 UNK         0.0800 
    133 H133        1.5483  -14.9725  -50.3398 H         1 UNK         0.0800 
    134 H134        2.2047  -16.4556  -52.1294 H         1 UNK         0.0800 
    135 H135        1.2290  -16.9786  -53.4769 H         1 UNK         0.0800 
    136 H136       -1.4495  -17.4341  -52.2141 H         1 UNK         0.1150 
    137 H137       -0.8733  -20.9067  -49.8050 H         1 UNK         0.1150 
    138 H138        2.4972  -18.4856  -50.8941 H         1 UNK         0.1150 
    139 H139        1.4111  -21.7584  -49.5222 H         1 UNK         0.0800 
    140 H140        2.7762  -20.8575  -50.1033 H         1 UNK         0.0800 
    141 H141        0.1295  -19.1967  -47.7055 H         1 UNK         0.0800 
    142 H142        0.7848  -19.4675  -46.1283 H         1 UNK         0.0800 
    143 H143       -0.2743  -21.7448  -47.8692 H         1 UNK         0.0600 
    144 H144        1.0940  -21.8104  -45.3801 H         1 UNK         0.3000 
    145 H145       -0.3281  -24.7436  -44.0824 H         1 UNK         0.0600 
    146 H146        1.9778  -25.7098  -44.2150 H         1 UNK         0.0600 
    147 H147        1.1273  -25.8618  -45.7412 H         1 UNK         0.0600 
    148 H148        2.3628  -24.6206  -45.5476 H         1 UNK         0.0600 
    149 H149        2.0555  -23.3746  -43.3600 H         1 UNK         0.3000 
    150 H150        0.6300  -20.5844  -41.6865 H         1 UNK         0.0600 
    151 H151        0.7100  -22.3496  -40.0037 H         1 UNK         0.0600 
    152 H152        2.2134  -21.4417  -39.9545 H         1 UNK         0.0600 
    153 H153        2.1650  -23.0402  -40.6986 H         1 UNK         0.0600 
    154 H154        2.2723  -19.9868  -42.9972 H         1 UNK         0.3000 
    155 H155        5.4691  -20.6244  -43.2728 H         1 UNK         0.0600 
    156 H156        5.3636  -22.5190  -44.8657 H         1 UNK         0.0600 
    157 H157        5.6178  -21.0244  -45.7482 H         1 UNK         0.0600 
    158 H158        4.0213  -21.7726  -45.7225 H         1 UNK         0.0600 
    159 H159        3.6476  -19.3951  -45.1940 H         1 UNK         0.3000 
    160 H160        4.1549  -16.2477  -43.9628 H         1 UNK         0.0600 
    161 H161        4.1999  -17.4363  -46.1891 H         1 UNK         0.0600 
    162 H162        2.9705  -16.1977  -46.1121 H         1 UNK         0.0600 
    163 H163        2.5093  -17.8802  -45.9728 H         1 UNK         0.0600 
    164 H164        2.1785  -15.7971  -43.0567 H         1 UNK         0.3000 
    165 H165       -0.9231  -16.8781  -43.3911 H         1 UNK         0.0600 
    166 H166       -1.4802  -17.3316  -40.9955 H         1 UNK         0.0600 
    167 H167       -0.8297  -18.7470  -41.7991 H         1 UNK         0.0600 
    168 H168        0.1874  -17.8264  -40.7008 H         1 UNK         0.0600 
    169 H169       -0.7517  -14.8624  -42.6147 H         1 UNK         0.3000 
    170 H170        0.6035  -13.3791  -39.8235 H         1 UNK         0.0600 
    171 H171        2.5933  -12.8465  -41.2434 H         1 UNK         0.0600 
    172 H172        1.5288  -12.4835  -42.5954 H         1 UNK         0.0600 
    173 H173        1.4749  -11.4959  -41.1410 H         1 UNK         0.0600 
    174 H174       -0.8663  -12.4213  -42.1553 H         1 UNK         0.3000 
    175 H175       -3.9961  -13.6245  -41.1335 H         1 UNK         0.0600 
    176 H176       -3.1209  -10.7236  -40.6663 H         1 UNK         0.0600 
    177 H177       -4.7786  -11.2860  -40.8881 H         1 UNK         0.0600 
    178 H178       -3.8720  -11.7646  -39.4630 H         1 UNK         0.0600 
    179 H179       -3.4442  -11.5761  -42.9783 H         1 UNK         0.3000 
    180 H180       -3.6963  -13.5235  -45.6574 H         1 UNK         0.0600 
    181 H181       -2.7934  -10.7162  -44.7953 H         1 UNK         0.0600 
    182 H182       -4.4595  -11.2924  -44.8699 H         1 UNK         0.0600 
    183 H183       -3.5171  -11.1438  -46.3390 H         1 UNK         0.0600 
    184 H184       -1.7422  -13.6529  -46.6479 H         1 UNK         0.3000 
    185 H185        1.1546  -11.9779  -46.6486 H         1 UNK         0.0600 
    186 H186        2.1467  -13.0655  -44.6814 H         1 UNK         0.0600 
    187 H187        1.3925  -14.6012  -45.0998 H         1 UNK         0.0600 
    188 H188        2.6539  -13.9056  -46.1270 H         1 UNK         0.0600 
    189 H189        0.4503  -14.7320  -47.4013 H         1 UNK         0.3000 
    190 H190       -1.2875  -20.8782  -44.5799 H         1 UNK         0.3000 
    191 H191       -3.8825  -19.8067  -45.5467 H         1 UNK         0.0600 
    192 H192       -2.7126  -18.5715  -43.7434 H         1 UNK         0.0600 
    193 H193       -4.2190  -19.2535  -43.1520 H         1 UNK         0.0600 
    194 H194       -2.6908  -20.0173  -42.7330 H         1 UNK         0.0600 
    195 H195       -2.5045  -22.4667  -43.5573 H         1 UNK         0.3000 
    196 H196       -5.0342  -23.5609  -42.8513 H         1 UNK         0.0600 
    197 H197       -3.6554  -25.3514  -41.8184 H         1 UNK         0.0600 
    198 H198       -3.0024  -23.7629  -41.4476 H         1 UNK         0.0600 
    199 H199       -2.2285  -24.7715  -42.6668 H         1 UNK         0.0600 
    200 H200       -2.7615  -24.4197  -45.4880 H         1 UNK         0.3000 
    201 H201       -4.5815  -26.6504  -46.3279 H         1 UNK         0.0600 
    202 H202       -2.4373  -27.4321  -45.2964 H         1 UNK         0.0600 
    203 H203       -1.5243  -26.4947  -46.4770 H         1 UNK         0.0600 
    204 H204       -2.5277  -27.8387  -47.0016 H         1 UNK         0.0600 
    205 H205       -3.4316  -23.6184  -47.2496 H         1 UNK         0.3000 
    206 H206       -3.2764  -22.4310  -49.1383 H         1 UNK         0.0600 
    207 H207       -5.6325  -23.0440  -49.5129 H         1 UNK         0.0600 
    208 H208       -4.7845  -22.9816  -51.0507 H         1 UNK         0.0600 
    209 H209       -5.1586  -24.5320  -50.3319 H         1 UNK         0.0600 
    210 H210       -1.1712  -24.0212  -48.5651 H         1 UNK         0.3000 
    211 H211       -0.3967  -26.0297  -50.1148 H         1 UNK         0.0600 
    212 H212        1.9442  -25.5492  -49.2820 H         1 UNK         0.0600 
    213 H213        0.7102  -25.4449  -48.0413 H         1 UNK         0.0600 
    214 H214        1.3912  -23.9728  -48.7289 H         1 UNK         0.0600 
    215 H215       -0.0740  -22.7331  -51.3227 H         1 UNK         0.3000 
    216 H216        1.8473  -23.4429  -53.4155 H         1 UNK         0.0600 
    217 H217        1.3838  -21.1197  -54.2184 H         1 UNK         0.0600 
    218 H218        1.8417  -21.1546  -52.5291 H         1 UNK         0.0600 
    219 H219        0.1471  -20.9337  -52.9856 H         1 UNK         0.0600 
    220 H220       -1.6230  -23.5863  -53.0325 H         1 UNK         0.3000 
    221 H221       -3.3838  -23.8670  -54.3167 H         1 UNK         0.0600 
    222 H222       -1.5033  -25.3494  -56.2299 H         1 UNK         0.0600 
    223 H223       -2.2321  -26.0413  -54.7809 H         1 UNK         0.0600 
    224 H224       -3.2480  -25.5413  -56.1226 H         1 UNK         0.0600 
    225 H225       -2.0832  -21.3808  -54.6459 H         1 UNK         0.3000 
    226 H226       -2.0837  -20.5741  -57.4503 H         1 UNK         0.0600 
    227 H227       -0.4618  -19.6463  -55.7669 H         1 UNK         0.0600 
    228 H228       -1.4524  -18.3698  -56.4505 H         1 UNK         0.0600 
    229 H229       -1.7975  -18.9758  -54.8349 H         1 UNK         0.0600 
    230 H230       -3.3820  -18.7029  -58.1770 H         1 UNK         0.3000 
    231 H231       -6.1833  -18.8478  -57.6674 H         1 UNK         0.0600 
    232 H232       -4.5060  -16.6388  -58.9807 H         1 UNK         0.0600 
    233 H233       -6.2562  -16.7880  -59.0828 H         1 UNK         0.0600 
    234 H234       -5.2329  -18.0179  -59.8068 H         1 UNK         0.0600 
    235 H235       -3.6050  -16.9784  -56.2036 H         1 UNK         0.3000 
    236 H236       -5.0808  -15.0605  -54.7230 H         1 UNK         0.0600 
    237 H237       -2.6387  -14.8999  -55.0954 H         1 UNK         0.0600 
    238 H238       -2.9584  -14.9514  -53.3700 H         1 UNK         0.0600 
    239 H239       -2.3655  -16.3887  -54.1920 H         1 UNK         0.0600 
    240 H240       -4.7722  -18.5247  -54.2462 H         1 UNK         0.3000 
    241 H241       -5.5492  -18.4512  -51.4302 H         1 UNK         0.0600 
    242 H242       -8.9203  -18.4652  -53.5941 H         1 UNK         0.3800 
    243 H243       -7.4042  -17.9337  -54.2752 H         1 UNK         0.3800 
    244 H244       -5.4470  -20.8391  -51.4577 H         1 UNK         0.0800 
    245 H245       -5.4936  -20.9263  -53.1973 H         1 UNK         0.0800 
    246 H246       -3.3255  -18.4700  -50.9985 H         1 UNK         0.0800 
    247 H247       -3.1209  -19.9409  -50.0759 H         1 UNK         0.0800 
@<TRIPOS>BOND
     1    1    2 1    
     2    1  127 1    
     3    1  128 1    
     4    1  129 1    
     5    2    3 2    
     6    2    4 am   BACKBONE|DICT|INTERRES
     7    4    5 1    
     8    4  130 1    
     9    5    6 1    
    10    5   65 1    
    11    5  131 1    
    12    6    7 1    
    13    6  132 1    
    14    6  133 1    
    15    7    8 1    
    16    8    9 1    
    17    8  134 1    
    18    8  135 1    
    19    9   10 ar   
    20    9   14 ar   
    21   10   11 ar   
    22   10  136 1    
    23   11   12 ar   
    24   11  126 1    
    25   12   13 ar   
    26   12  137 1    
    27   13   14 ar   
    28   13   15 1    
    29   14  138 1    
    30   15   16 1    
    31   15  139 1    
    32   15  140 1    
    33   16   17 1    
    34   17   18 1    
    35   17  141 1    
    36   17  142 1    
    37   18   19 1    
    38   18   67 1    
    39   18  143 1    
    40   19   20 am   BACKBONE|DICT|INTERRES
    41   19  144 1    
    42   20   21 2    
    43   20   22 1    
    44   22   23 1    
    45   22   24 1    
    46   22  145 1    
    47   23  146 1    
    48   23  147 1    
    49   23  148 1    
    50   24   25 am   BACKBONE|DICT|INTERRES
    51   24  149 1    
    52   25   26 2    
    53   25   27 1    
    54   27   28 1    
    55   27   29 1    
    56   27  150 1    
    57   28  151 1    
    58   28  152 1    
    59   28  153 1    
    60   29   30 am   BACKBONE|DICT|INTERRES
    61   29  154 1    
    62   30   31 2    
    63   30   32 1    
    64   32   33 1    
    65   32   34 1    
    66   32  155 1    
    67   33  156 1    
    68   33  157 1    
    69   33  158 1    
    70   34   35 am   BACKBONE|DICT|INTERRES
    71   34  159 1    
    72   35   36 2    
    73   35   37 1    
    74   37   38 1    
    75   37   39 1    
    76   37  160 1    
    77   38  161 1    
    78   38  162 1    
    79   38  163 1    
    80   39   40 am   BACKBONE|DICT|INTERRES
    81   39  164 1    
    82   40   41 2    
    83   40   42 1    
    84   42   43 1    
    85   42   44 1    
    86   42  165 1    
    87   43  166 1    
    88   43  167 1    
    89   43  168 1    
    90   44   45 am   BACKBONE|DICT|INTERRES
    91   44  169 1    
    92   45   46 2    
    93   45   47 1    
    94   47   48 1    
    95   47   49 1    
    96   47  170 1    
    97   48  171 1    
    98   48  172 1    
    99   48  173 1    
   100   49   50 am   BACKBONE|DICT|INTERRES
   101   49  174 1    
   102   50   51 2    
   103   50   52 1    
   104   52   53 1    
   105   52   54 1    
   106   52  175 1    
   107   53  176 1    
   108   53  177 1    
   109   53  178 1    
   110   54   55 am   BACKBONE|DICT|INTERRES
   111   54  179 1    
   112   55   56 2    
   113   55   57 1    
   114   57   58 1    
   115   57   59 1    
   116   57  180 1    
   117   58  181 1    
   118   58  182 1    
   119   58  183 1    
   120   59   60 am   BACKBONE|DICT|INTERRES
   121   59  184 1    
   122   60   61 2    
   123   60   62 1    
   124   62   63 1    
   125   62   64 1    
   126   62  185 1    
   127   63  186 1    
   128   63  187 1    
   129   63  188 1    
   130   64   65 am   BACKBONE|DICT|INTERRES
   131   64  189 1    
   132   65   66 2    
   133   67   68 2    
   134   67   69 am   BACKBONE|DICT|INTERRES
   135   69   70 1    
   136   69  190 1    
   137   70   71 1    
   138   70   72 1    
   139   70  191 1    
   140   71  192 1    
   141   71  193 1    
   142   71  194 1    
   143   72   73 2    
   144   72   74 am   BACKBONE|DICT|INTERRES
   145   74   75 1    
   146   74  195 1    
   147   75   76 1    
   148   75   77 1    
   149   75  196 1    
   150   76  197 1    
   151   76  198 1    
   152   76  199 1    
   153   77   78 2    
   154   77   79 am   BACKBONE|DICT|INTERRES
   155   79   80 1    
   156   79  200 1    
   157   80   81 1    
   158   80   82 1    
   159   80  201 1    
   160   81  202 1    
   161   81  203 1    
   162   81  204 1    
   163   82   83 2    
   164   82   84 am   BACKBONE|DICT|INTERRES
   165   84   85 1    
   166   84  205 1    
   167   85   86 1    
   168   85   87 1    
   169   85  206 1    
   170   86  207 1    
   171   86  208 1    
   172   86  209 1    
   173   87   88 2    
   174   87   89 am   BACKBONE|DICT|INTERRES
   175   89   90 1    
   176   89  210 1    
   177   90   91 1    
   178   90   92 1    
   179   90  211 1    
   180   91  212 1    
   181   91  213 1    
   182   91  214 1    
   183   92   93 2    
   184   92   94 am   BACKBONE|DICT|INTERRES
   185   94   95 1    
   186   94  215 1    
   187   95   96 1    
   188   95   97 1    
   189   95  216 1    
   190   96  217 1    
   191   96  218 1    
   192   96  219 1    
   193   97   98 2    
   194   97   99 am   BACKBONE|DICT|INTERRES
   195   99  100 1    
   196   99  220 1    
   197  100  101 1    
   198  100  102 1    
   199  100  221 1    
   200  101  222 1    
   201  101  223 1    
   202  101  224 1    
   203  102  103 2    
   204  102  104 am   BACKBONE|DICT|INTERRES
   205  104  105 1    
   206  104  225 1    
   207  105  106 1    
   208  105  107 1    
   209  105  226 1    
   210  106  227 1    
   211  106  228 1    
   212  106  229 1    
   213  107  108 2    
   214  107  109 am   BACKBONE|DICT|INTERRES
   215  109  110 1    
   216  109  230 1    
   217  110  111 1    
   218  110  112 1    
   219  110  231 1    
   220  111  232 1    
   221  111  233 1    
   222  111  234 1    
   223  112  113 2    
   224  112  114 am   BACKBONE|DICT|INTERRES
   225  114  115 1    
   226  114  235 1    
   227  115  116 1    
   228  115  117 1    
   229  115  236 1    
   230  116  237 1    
   231  116  238 1    
   232  116  239 1    
   233  117  118 2    
   234  117  119 am   BACKBONE|DICT|INTERRES
   235  119  120 1    
   236  119  240 1    
   237  120  121 1    
   238  120  124 1    
   239  120  241 1    
   240  121  122 am   BACKBONE|DICT|INTERRES
   241  121  123 2    
   242  122  242 1    
   243  122  243 1    
   244  124  125 1    
   245  124  244 1    
   246  124  245 1    
   247  125  126 1    
   248  126  246 1    
   249  126  247 1    
@<TRIPOS>SUBSTRUCTURE
     1 UNK         1 GROUP             0       ****    0 ROOT    
