@<TRIPOS>MOLECULE
3R540
247   249    1
SMALL
USER_CHARGES


@<TRIPOS>ATOM
      1 CA          1.0176  -15.3899  -51.1550 C.3       0 UNK        -0.1800 
      2 C           0.6031  -14.5351  -49.9669 C.2       0 UNK         0.5000 
      3 O           1.0280  -14.7975  -48.8430 O.2       0 UNK        -0.5000 
      4 N          -0.2108  -13.4993  -50.2081 N.am      1 UNK        -0.5000 
      5 CA         -0.7776  -12.6093  -49.1819 C.3       1 UNK         0.1400 
      6 C6         -1.9265  -11.7258  -49.7335 C.3       23 UNK        -0.0398 
      7 S7         -3.2045  -12.6559  -50.6457 S.3       23 UNK        -0.2404 
      8 C8         -4.0639  -13.5231  -49.2969 C.3       23 UNK        -0.0205 
      9 C9         -4.1845  -15.0035  -49.6142 C.ar      23 UNK        -0.0193 
     10 C10        -5.3522  -15.5029  -50.1970 C.ar      23 UNK        -0.1150 
     11 C11        -5.4554  -16.8574  -50.5241 C.ar      23 UNK        -0.0193 
     12 C12        -4.3890  -17.7160  -50.2453 C.ar      23 UNK        -0.1150 
     13 C13        -3.2154  -17.2284  -49.6693 C.ar      23 UNK        -0.0193 
     14 C14        -3.1187  -15.8705  -49.3524 C.ar      23 UNK        -0.1150 
     15 C15        -2.0412  -18.1621  -49.4256 C.3       23 UNK        -0.0205 
     16 S16        -1.8008  -18.5122  -47.6611 S.3       23 UNK        -0.2404 
     17 C17        -3.1853  -19.6504  -47.2936 C.3       23 UNK        -0.0398 
     18 CA         -2.7508  -21.1344  -47.3300 C.3       11 UNK         0.1400 
     19 N          -1.6045  -21.4081  -46.4581 N.am      11 UNK        -0.5000 
     20 C          -0.9531  -22.5770  -46.3875 C.2       10 UNK         0.5000 
     21 O          -1.2248  -23.5465  -47.0971 O.2       10 UNK        -0.5000 
     22 CA          0.1424  -22.7161  -45.3137 C.3       10 UNK         0.1400 
     23 CB          1.5289  -22.5657  -45.9539 C.3       10 UNK        -0.1800 
     24 N           0.0132  -21.7745  -44.1962 N.am      10 UNK        -0.5000 
     25 C          -1.0253  -21.7092  -43.3448 C.2       9 UNK         0.5000 
     26 O          -2.0157  -22.4367  -43.4251 O.2       9 UNK        -0.5000 
     27 CA         -0.9873  -20.6103  -42.2624 C.3       9 UNK         0.1400 
     28 CB         -0.3301  -21.1416  -40.9809 C.3       9 UNK        -0.1800 
     29 N          -0.2833  -19.4041  -42.6962 N.am      9 UNK        -0.5000 
     30 C          -0.6206  -18.6614  -43.7594 C.2       8 UNK         0.5000 
     31 O          -1.6596  -18.8359  -44.3937 O.2       8 UNK        -0.5000 
     32 CA          0.3831  -17.5875  -44.2264 C.3       8 UNK         0.1400 
     33 CB         -0.1438  -16.1813  -43.9062 C.3       8 UNK        -0.1800 
     34 N           1.7266  -17.7360  -43.6582 N.am      8 UNK        -0.5000 
     35 C           2.5581  -18.7706  -43.8474 C.2       7 UNK         0.5000 
     36 O           2.2779  -19.7520  -44.5340 O.2       7 UNK        -0.5000 
     37 CA          3.8961  -18.7302  -43.0912 C.3       7 UNK         0.1400 
     38 CB          4.9387  -17.8935  -43.8481 C.3       7 UNK        -0.1800 
     39 N           3.7276  -18.1861  -41.7442 N.am      7 UNK        -0.5000 
     40 C           3.4220  -18.9110  -40.6605 C.2       6 UNK         0.5000 
     41 O           3.2834  -20.1341  -40.6741 O.2       6 UNK        -0.5000 
     42 CA          3.2372  -18.1440  -39.3357 C.3       6 UNK         0.1400 
     43 CB          4.5682  -18.0647  -38.5726 C.3       6 UNK        -0.1800 
     44 N           2.7108  -16.7895  -39.5171 N.am      6 UNK        -0.5000 
     45 C           1.4549  -16.5091  -39.8905 C.2       5 UNK         0.5000 
     46 O           0.5972  -17.3672  -40.1006 O.2       5 UNK        -0.5000 
     47 CA          1.1051  -15.0197  -40.0940 C.3       5 UNK         0.1400 
     48 CB          0.6334  -14.3985  -38.7706 C.3       5 UNK        -0.1800 
     49 N           2.1757  -14.1859  -40.6609 N.am      5 UNK        -0.5000 
     50 C           2.8568  -14.4471  -41.7845 C.2       4 UNK         0.5000 
     51 O           2.7716  -15.5101  -42.4000 O.2       4 UNK        -0.5000 
     52 CA          3.8242  -13.3622  -42.2916 C.3       4 UNK         0.1400 
     53 CB          5.1611  -13.4490  -41.5395 C.3       4 UNK        -0.1800 
     54 N           4.0804  -13.5204  -43.7253 N.am      4 UNK        -0.5000 
     55 C           3.1792  -13.2940  -44.6902 C.2       3 UNK         0.5000 
     56 O           2.0715  -12.7882  -44.4916 O.2       3 UNK        -0.5000 
     57 CA          3.5745  -13.7617  -46.1050 C.3       3 UNK         0.1400 
     58 CB          3.1051  -15.2074  -46.3337 C.3       3 UNK        -0.1800 
     59 N           3.0184  -12.9163  -47.1618 N.am      3 UNK        -0.5000 
     60 C           3.3280  -11.6258  -47.3578 C.2       2 UNK         0.5000 
     61 O           4.1635  -11.0201  -46.6843 O.2       2 UNK        -0.5000 
     62 CA          2.6177  -10.8814  -48.5092 C.3       2 UNK         0.1400 
     63 CB          3.6041  -10.5897  -49.6516 C.3       2 UNK        -0.1800 
     64 N           1.4707  -11.6037  -49.0610 N.am      2 UNK        -0.5000 
     65 C           0.2749  -11.7290  -48.4692 C.2       1 UNK         0.5000 
     66 O          -0.0142  -11.1858  -47.4028 O.2       1 UNK        -0.5000 
     67 C          -3.9336  -22.0833  -47.0452 C.2       11 UNK         0.5000 
     68 O          -4.6143  -22.4887  -47.9885 O.2       11 UNK        -0.5000 
     69 N          -4.1008  -22.4665  -45.7710 N.am      12 UNK        -0.5000 
     70 CA         -5.0695  -23.4580  -45.3157 C.3       12 UNK         0.1400 
     71 CB         -5.7852  -22.9229  -44.0655 C.3       12 UNK        -0.1800 
     72 C          -4.3923  -24.8060  -45.0125 C.2       12 UNK         0.5000 
     73 O          -4.8842  -25.8385  -45.4656 O.2       12 UNK        -0.5000 
     74 N          -3.2846  -24.7848  -44.2551 N.am      13 UNK        -0.5000 
     75 CA         -2.6365  -25.9756  -43.6941 C.3       13 UNK         0.1400 
     76 CB         -1.6328  -25.5523  -42.6104 C.3       13 UNK        -0.1800 
     77 C          -1.9536  -26.8757  -44.7382 C.2       13 UNK         0.5000 
     78 O          -2.0075  -28.0987  -44.6051 O.2       13 UNK        -0.5000 
     79 N          -1.3454  -26.2622  -45.7611 N.am      14 UNK        -0.5000 
     80 CA         -0.7646  -26.9514  -46.9182 C.3       14 UNK         0.1400 
     81 CB          0.6299  -26.3682  -47.2049 C.3       14 UNK        -0.1800 
     82 C          -1.6808  -26.8355  -48.1527 C.2       14 UNK         0.5000 
     83 O          -1.3288  -27.3448  -49.2171 O.2       14 UNK        -0.5000 
     84 N          -2.8315  -26.1653  -47.9840 N.am      15 UNK        -0.5000 
     85 CA         -3.8650  -25.8733  -48.9753 C.3       15 UNK         0.1400 
     86 CB         -4.5906  -27.1663  -49.4009 C.3       15 UNK        -0.1800 
     87 C          -3.3466  -25.0531  -50.1723 C.2       15 UNK         0.5000 
     88 O          -3.8075  -25.2599  -51.2956 O.2       15 UNK        -0.5000 
     89 N          -2.4184  -24.1116  -49.9302 N.am      16 UNK        -0.5000 
     90 CA         -1.8367  -23.2675  -50.9824 C.3       16 UNK         0.1400 
     91 CB         -0.6225  -22.4909  -50.4495 C.3       16 UNK        -0.1800 
     92 C          -2.8574  -22.3358  -51.6730 C.2       16 UNK         0.5000 
     93 O          -2.6216  -21.9209  -52.8076 O.2       16 UNK        -0.5000 
     94 N          -4.0068  -22.0795  -51.0294 N.am      17 UNK        -0.5000 
     95 CA         -5.1642  -21.4285  -51.6465 C.3       17 UNK         0.1400 
     96 CB         -6.2409  -21.1859  -50.5788 C.3       17 UNK        -0.1800 
     97 C          -5.7481  -22.2272  -52.8308 C.2       17 UNK         0.5000 
     98 O          -6.1298  -21.6271  -53.8350 O.2       17 UNK        -0.5000 
     99 N          -5.7555  -23.5653  -52.7259 N.am      18 UNK        -0.5000 
    100 CA        -6.1841  -24.4749  -53.7938 C.3       18 UNK         0.1400 
    101 CB        -6.5136  -25.8527  -53.1986 C.3       18 UNK        -0.1800 
    102 C         -5.1357  -24.5972  -54.9172 C.2       18 UNK         0.5000 
    103 O         -5.4962  -24.9112  -56.0516 O.2       18 UNK        -0.5000 
    104 N         -3.8683  -24.3003  -54.5959 N.am      19 UNK        -0.5000 
    105 CA        -2.7601  -24.1667  -55.5456 C.3       19 UNK         0.1400 
    106 CB        -1.4382  -24.4725  -54.8215 C.3       19 UNK        -0.1800 
    107 C         -2.7172  -22.7785  -56.2253 C.2       19 UNK         0.5000 
    108 O         -1.8064  -22.5268  -57.0152 O.2       19 UNK        -0.5000 
    109 N         -3.6963  -21.9136  -55.9176 N.am      20 UNK        -0.5000 
    110 CA        -3.9148  -20.5702  -56.4559 C.3       20 UNK         0.1400 
    111 CB        -4.1443  -20.6051  -57.9820 C.3       20 UNK        -0.1800 
    112 C         -2.8476  -19.5466  -56.0207 C.2       20 UNK         0.5000 
    113 O         -2.5307  -18.6286  -56.7798 O.2       20 UNK        -0.5000 
    114 N         -2.3534  -19.6717  -54.7790 N.am      21 UNK        -0.5000 
    115 CA        -1.4588  -18.6952  -54.1421 C.3       21 UNK         0.1400 
    116 CB        -0.8218  -19.3269  -52.8955 C.3       21 UNK        -0.1800 
    117 C         -2.1446  -17.3563  -53.7832 C.2       21 UNK         0.5000 
    118 O         -1.4559  -16.4205  -53.3774 O.2       21 UNK        -0.5000 
    119 N         -3.4736  -17.2841  -53.9409 N.am      22 UNK        -0.5000 
    120 CA        -4.3153  -16.1002  -53.7018 C.3       22 UNK         0.1400 
    121 C         -4.0260  -14.8795  -54.6266 C.2       22 UNK         0.5000 
    122 N         -3.3248  -15.0403  -55.7431 N.am      22 UNK        -0.7600 
    123 O         -4.4572  -13.7686  -54.3319 O.2       22 UNK        -0.5000 
    124 C124       -5.8339  -16.4390  -53.7501 C.3       23 UNK        -0.0398 
    125 S125       -6.3195  -17.9824  -52.8978 S.3       23 UNK        -0.2404 
    126 C126       -6.6983  -17.3885  -51.2187 C.3       23 UNK        -0.0205 
    127 H127        0.6373  -16.4044  -51.0381 H         1 UNK         0.0600 
    128 H128        2.1042  -15.4369  -51.2243 H         1 UNK         0.0600 
    129 H129        0.6332  -14.9905  -52.0938 H         1 UNK         0.0600 
    130 H130       -0.5424  -13.3397  -51.1492 H         1 UNK         0.3000 
    131 H131       -1.1963  -13.2537  -48.4069 H         1 UNK         0.0600 
    132 H132       -2.4124  -11.1767  -48.9246 H         1 UNK         0.0800 
    133 H133       -1.5279  -10.9705  -50.4133 H         1 UNK         0.0800 
    134 H134       -3.5423  -13.3937  -48.3482 H         1 UNK         0.0800 
    135 H135       -5.0511  -13.0788  -49.1612 H         1 UNK         0.0800 
    136 H136       -6.1693  -14.8311  -50.4195 H         1 UNK         0.1150 
    137 H137       -4.4618  -18.7599  -50.5078 H         1 UNK         0.1150 
    138 H138       -2.2078  -15.4886  -48.9139 H         1 UNK         0.1150 
    139 H139       -1.1338  -17.7056  -49.8228 H         1 UNK         0.0800 
    140 H140       -2.1718  -19.1041  -49.9587 H         1 UNK         0.0800 
    141 H141       -4.0014  -19.4713  -47.9948 H         1 UNK         0.0800 
    142 H142       -3.5739  -19.3929  -46.3069 H         1 UNK         0.0800 
    143 H143       -2.4401  -21.3490  -48.3493 H         1 UNK         0.0600 
    144 H144       -1.3325  -20.6555  -45.8386 H         1 UNK         0.3000 
    145 H145        0.0688  -23.7239  -44.9029 H         1 UNK         0.0600 
    146 H146        1.6840  -23.3099  -46.7357 H         1 UNK         0.0600 
    147 H147        2.3219  -22.6982  -45.2177 H         1 UNK         0.0600 
    148 H148        1.6548  -21.5833  -46.4106 H         1 UNK         0.0600 
    149 H149        0.7665  -21.1014  -44.0982 H         1 UNK         0.3000 
    150 H150       -2.0183  -20.3328  -42.0343 H         1 UNK         0.0600 
    151 H151        0.7115  -21.4194  -41.1486 H         1 UNK         0.0600 
    152 H152       -0.8516  -22.0259  -40.6119 H         1 UNK         0.0600 
    153 H153       -0.3529  -20.3945  -40.1870 H         1 UNK         0.0600 
    154 H154        0.5654  -19.1678  -42.2028 H         1 UNK         0.3000 
    155 H155        0.4731  -17.6801  -45.3106 H         1 UNK         0.0600 
    156 H156       -0.2759  -16.0418  -42.8337 H         1 UNK         0.0600 
    157 H157       -1.1096  -16.0083  -44.3827 H         1 UNK         0.0600 
    158 H158        0.5378  -15.4093  -44.2639 H         1 UNK         0.0600 
    159 H159        2.0616  -16.9511  -43.1012 H         1 UNK         0.3000 
    160 H160        4.2717  -19.7539  -43.0301 H         1 UNK         0.0600 
    161 H161        4.6879  -16.8332  -43.8436 H         1 UNK         0.0600 
    162 H162        5.0215  -18.2124  -44.8880 H         1 UNK         0.0600 
    163 H163        5.9247  -17.9998  -43.3959 H         1 UNK         0.0600 
    164 H164        3.7336  -17.1763  -41.6668 H         1 UNK         0.3000 
    165 H165        2.5282  -18.7073  -38.7252 H         1 UNK         0.0600 
    166 H166        4.4370  -17.5935  -37.5984 H         1 UNK         0.0600 
    167 H167        4.9781  -19.0604  -38.3981 H         1 UNK         0.0600 
    168 H168        5.3159  -17.4939  -39.1249 H         1 UNK         0.0600 
    169 H169        3.3522  -16.0239  -39.3716 H         1 UNK         0.3000 
    170 H170        0.2700  -14.9813  -40.7950 H         1 UNK         0.0600 
    171 H171        0.2592  -13.3856  -38.9202 H         1 UNK         0.0600 
    172 H172        1.4395  -14.3549  -38.0372 H         1 UNK         0.0600 
    173 H173       -0.1785  -14.9805  -38.3319 H         1 UNK         0.0600 
    174 H174        2.3315  -13.3004  -40.2010 H         1 UNK         0.3000 
    175 H175        3.3774  -12.3809  -42.1195 H         1 UNK         0.0600 
    176 H176        5.0201  -13.3022  -40.4679 H         1 UNK         0.0600 
    177 H177        5.6391  -14.4200  -41.6775 H         1 UNK         0.0600 
    178 H178        5.8560  -12.6815  -41.8812 H         1 UNK         0.0600 
    179 H179        4.9512  -13.9674  -43.9706 H         1 UNK         0.3000 
    180 H180        4.6625  -13.7315  -46.1916 H         1 UNK         0.0600 
    181 H181        3.4316  -15.5816  -47.3041 H         1 UNK         0.0600 
    182 H182        2.0180  -15.2864  -46.2938 H         1 UNK         0.0600 
    183 H183        3.5049  -15.8784  -45.5751 H         1 UNK         0.0600 
    184 H184        2.3078  -13.3414  -47.7447 H         1 UNK         0.3000 
    185 H185        2.2662   -9.9274  -48.1105 H         1 UNK         0.0600 
    186 H186        4.4593  -10.0145  -49.2943 H         1 UNK         0.0600 
    187 H187        3.9891  -11.5090  -50.0948 H         1 UNK         0.0600 
    188 H188        3.1315  -10.0067  -50.4424 H         1 UNK         0.0600 
    189 H189        1.6185  -12.0890  -49.9340 H         1 UNK         0.3000 
    190 H190       -3.4516  -22.1216  -45.0747 H         1 UNK         0.3000 
    191 H191       -5.8253  -23.6303  -46.0851 H         1 UNK         0.0600 
    192 H192       -6.3276  -22.0039  -44.2883 H         1 UNK         0.0600 
    193 H193       -6.5110  -23.6457  -43.6906 H         1 UNK         0.0600 
    194 H194       -5.0850  -22.7088  -43.2568 H         1 UNK         0.0600 
    195 H195       -2.9220  -23.8912  -43.9274 H         1 UNK         0.3000 
    196 H196       -3.4130  -26.5725  -43.2107 H         1 UNK         0.0600 
    197 H197       -1.1863  -26.4239  -42.1302 H         1 UNK         0.0600 
    198 H198       -2.1180  -24.9652  -41.8305 H         1 UNK         0.0600 
    199 H199       -0.8200  -24.9542  -43.0219 H         1 UNK         0.0600 
    200 H200       -1.3718  -25.2523  -45.8222 H         1 UNK         0.3000 
    201 H201       -0.6432  -28.0156  -46.7072 H         1 UNK         0.0600 
    202 H202        1.1418  -26.9489  -47.9730 H         1 UNK         0.0600 
    203 H203        1.2577  -26.3848  -46.3140 H         1 UNK         0.0600 
    204 H204        0.5771  -25.3403  -47.5613 H         1 UNK         0.0600 
    205 H205       -3.0210  -25.8174  -47.0556 H         1 UNK         0.3000 
    206 H206       -4.5962  -25.2396  -48.4719 H         1 UNK         0.0600 
    207 H207       -4.9608  -27.7130  -48.5336 H         1 UNK         0.0600 
    208 H208       -5.4509  -26.9433  -50.0332 H         1 UNK         0.0600 
    209 H209       -3.9352  -27.8317  -49.9636 H         1 UNK         0.0600 
    210 H210       -2.0648  -23.9940  -48.9865 H         1 UNK         0.3000 
    211 H211       -1.4650  -23.9479  -51.7506 H         1 UNK         0.0600 
    212 H212       -0.9003  -21.6687  -49.7953 H         1 UNK         0.0600 
    213 H213       -0.0572  -22.0579  -51.2754 H         1 UNK         0.0600 
    214 H214        0.0572  -23.1433  -49.9006 H         1 UNK         0.0600 
    215 H215       -4.1398  -22.4465  -50.0941 H         1 UNK         0.3000 
    216 H216       -4.8349  -20.4640  -52.0359 H         1 UNK         0.0600 
    217 H217       -6.5850  -22.1214  -50.1360 H         1 UNK         0.0600 
    218 H218       -7.1101  -20.6864  -51.0082 H         1 UNK         0.0600 
    219 H219       -5.8673  -20.5554  -49.7724 H         1 UNK         0.0600 
    220 H220       -5.3408  -24.0022  -51.9110 H         1 UNK         0.3000 
    221 H221       -7.0983  -24.0753  -54.2381 H         1 UNK         0.0600 
    222 H222       -5.6281  -26.3467  -52.7990 H         1 UNK         0.0600 
    223 H223       -7.2461  -25.7727  -52.3954 H         1 UNK         0.0600 
    224 H224       -6.9356  -26.5111  -53.9589 H         1 UNK         0.0600 
    225 H225       -3.6671  -24.0570  -53.6362 H         1 UNK         0.3000 
    226 H226       -2.8867  -24.9092  -56.3360 H         1 UNK         0.0600 
    227 H227       -1.4901  -25.4158  -54.2773 H         1 UNK         0.0600 
    228 H228       -0.6168  -24.5545  -55.5342 H         1 UNK         0.0600 
    229 H229       -1.1720  -23.6875  -54.1148 H         1 UNK         0.0600 
    230 H230       -4.3773  -22.2096  -55.2311 H         1 UNK         0.3000 
    231 H231       -4.8461  -20.2259  -56.0039 H         1 UNK         0.0600 
    232 H232       -3.2346  -20.8609  -58.5255 H         1 UNK         0.0600 
    233 H233       -4.4787  -19.6339  -58.3485 H         1 UNK         0.0600 
    234 H234       -4.9116  -21.3319  -58.2490 H         1 UNK         0.0600 
    235 H235       -2.6195  -20.4729  -54.2138 H         1 UNK         0.3000 
    236 H236       -0.6568  -18.4637  -54.8459 H         1 UNK         0.0600 
    237 H237       -1.5739  -19.5611  -52.1441 H         1 UNK         0.0600 
    238 H238       -0.2951  -20.2482  -53.1446 H         1 UNK         0.0600 
    239 H239       -0.0983  -18.6521  -52.4364 H         1 UNK         0.0600 
    240 H240       -3.9612  -18.1103  -54.2497 H         1 UNK         0.3000 
    241 H241       -4.0769  -15.7615  -52.6934 H         1 UNK         0.0600 
    242 H242       -3.1442  -14.2451  -56.3353 H         1 UNK         0.3800 
    243 H243       -2.9715  -15.9493  -56.0005 H         1 UNK         0.3800 
    244 H244       -6.1572  -16.5451  -54.7872 H         1 UNK         0.0800 
    245 H245       -6.4169  -15.6119  -53.3411 H         1 UNK         0.0800 
    246 H246       -7.4779  -16.6270  -51.2706 H         1 UNK         0.0800 
    247 H247       -7.1101  -18.2104  -50.6325 H         1 UNK         0.0800 
@<TRIPOS>BOND
     1    1    2 1    
     2    1  127 1    
     3    1  128 1    
     4    1  129 1    
     5    2    3 2    
     6    2    4 am   BACKBONE|DICT|INTERRES
     7    4    5 1    
     8    4  130 1    
     9    5    6 1    
    10    5   65 1    
    11    5  131 1    
    12    6    7 1    
    13    6  132 1    
    14    6  133 1    
    15    7    8 1    
    16    8    9 1    
    17    8  134 1    
    18    8  135 1    
    19    9   10 ar   
    20    9   14 ar   
    21   10   11 ar   
    22   10  136 1    
    23   11   12 ar   
    24   11  126 1    
    25   12   13 ar   
    26   12  137 1    
    27   13   14 ar   
    28   13   15 1    
    29   14  138 1    
    30   15   16 1    
    31   15  139 1    
    32   15  140 1    
    33   16   17 1    
    34   17   18 1    
    35   17  141 1    
    36   17  142 1    
    37   18   19 1    
    38   18   67 1    
    39   18  143 1    
    40   19   20 am   BACKBONE|DICT|INTERRES
    41   19  144 1    
    42   20   21 2    
    43   20   22 1    
    44   22   23 1    
    45   22   24 1    
    46   22  145 1    
    47   23  146 1    
    48   23  147 1    
    49   23  148 1    
    50   24   25 am   BACKBONE|DICT|INTERRES
    51   24  149 1    
    52   25   26 2    
    53   25   27 1    
    54   27   28 1    
    55   27   29 1    
    56   27  150 1    
    57   28  151 1    
    58   28  152 1    
    59   28  153 1    
    60   29   30 am   BACKBONE|DICT|INTERRES
    61   29  154 1    
    62   30   31 2    
    63   30   32 1    
    64   32   33 1    
    65   32   34 1    
    66   32  155 1    
    67   33  156 1    
    68   33  157 1    
    69   33  158 1    
    70   34   35 am   BACKBONE|DICT|INTERRES
    71   34  159 1    
    72   35   36 2    
    73   35   37 1    
    74   37   38 1    
    75   37   39 1    
    76   37  160 1    
    77   38  161 1    
    78   38  162 1    
    79   38  163 1    
    80   39   40 am   BACKBONE|DICT|INTERRES
    81   39  164 1    
    82   40   41 2    
    83   40   42 1    
    84   42   43 1    
    85   42   44 1    
    86   42  165 1    
    87   43  166 1    
    88   43  167 1    
    89   43  168 1    
    90   44   45 am   BACKBONE|DICT|INTERRES
    91   44  169 1    
    92   45   46 2    
    93   45   47 1    
    94   47   48 1    
    95   47   49 1    
    96   47  170 1    
    97   48  171 1    
    98   48  172 1    
    99   48  173 1    
   100   49   50 am   BACKBONE|DICT|INTERRES
   101   49  174 1    
   102   50   51 2    
   103   50   52 1    
   104   52   53 1    
   105   52   54 1    
   106   52  175 1    
   107   53  176 1    
   108   53  177 1    
   109   53  178 1    
   110   54   55 am   BACKBONE|DICT|INTERRES
   111   54  179 1    
   112   55   56 2    
   113   55   57 1    
   114   57   58 1    
   115   57   59 1    
   116   57  180 1    
   117   58  181 1    
   118   58  182 1    
   119   58  183 1    
   120   59   60 am   BACKBONE|DICT|INTERRES
   121   59  184 1    
   122   60   61 2    
   123   60   62 1    
   124   62   63 1    
   125   62   64 1    
   126   62  185 1    
   127   63  186 1    
   128   63  187 1    
   129   63  188 1    
   130   64   65 am   BACKBONE|DICT|INTERRES
   131   64  189 1    
   132   65   66 2    
   133   67   68 2    
   134   67   69 am   BACKBONE|DICT|INTERRES
   135   69   70 1    
   136   69  190 1    
   137   70   71 1    
   138   70   72 1    
   139   70  191 1    
   140   71  192 1    
   141   71  193 1    
   142   71  194 1    
   143   72   73 2    
   144   72   74 am   BACKBONE|DICT|INTERRES
   145   74   75 1    
   146   74  195 1    
   147   75   76 1    
   148   75   77 1    
   149   75  196 1    
   150   76  197 1    
   151   76  198 1    
   152   76  199 1    
   153   77   78 2    
   154   77   79 am   BACKBONE|DICT|INTERRES
   155   79   80 1    
   156   79  200 1    
   157   80   81 1    
   158   80   82 1    
   159   80  201 1    
   160   81  202 1    
   161   81  203 1    
   162   81  204 1    
   163   82   83 2    
   164   82   84 am   BACKBONE|DICT|INTERRES
   165   84   85 1    
   166   84  205 1    
   167   85   86 1    
   168   85   87 1    
   169   85  206 1    
   170   86  207 1    
   171   86  208 1    
   172   86  209 1    
   173   87   88 2    
   174   87   89 am   BACKBONE|DICT|INTERRES
   175   89   90 1    
   176   89  210 1    
   177   90   91 1    
   178   90   92 1    
   179   90  211 1    
   180   91  212 1    
   181   91  213 1    
   182   91  214 1    
   183   92   93 2    
   184   92   94 am   BACKBONE|DICT|INTERRES
   185   94   95 1    
   186   94  215 1    
   187   95   96 1    
   188   95   97 1    
   189   95  216 1    
   190   96  217 1    
   191   96  218 1    
   192   96  219 1    
   193   97   98 2    
   194   97   99 am   BACKBONE|DICT|INTERRES
   195   99  100 1    
   196   99  220 1    
   197  100  101 1    
   198  100  102 1    
   199  100  221 1    
   200  101  222 1    
   201  101  223 1    
   202  101  224 1    
   203  102  103 2    
   204  102  104 am   BACKBONE|DICT|INTERRES
   205  104  105 1    
   206  104  225 1    
   207  105  106 1    
   208  105  107 1    
   209  105  226 1    
   210  106  227 1    
   211  106  228 1    
   212  106  229 1    
   213  107  108 2    
   214  107  109 am   BACKBONE|DICT|INTERRES
   215  109  110 1    
   216  109  230 1    
   217  110  111 1    
   218  110  112 1    
   219  110  231 1    
   220  111  232 1    
   221  111  233 1    
   222  111  234 1    
   223  112  113 2    
   224  112  114 am   BACKBONE|DICT|INTERRES
   225  114  115 1    
   226  114  235 1    
   227  115  116 1    
   228  115  117 1    
   229  115  236 1    
   230  116  237 1    
   231  116  238 1    
   232  116  239 1    
   233  117  118 2    
   234  117  119 am   BACKBONE|DICT|INTERRES
   235  119  120 1    
   236  119  240 1    
   237  120  121 1    
   238  120  124 1    
   239  120  241 1    
   240  121  122 am   BACKBONE|DICT|INTERRES
   241  121  123 2    
   242  122  242 1    
   243  122  243 1    
   244  124  125 1    
   245  124  244 1    
   246  124  245 1    
   247  125  126 1    
   248  126  246 1    
   249  126  247 1    
@<TRIPOS>SUBSTRUCTURE
     1 UNK         1 GROUP             0       ****    0 ROOT    
