@<TRIPOS>MOLECULE
3R540
247   249    1
SMALL
USER_CHARGES


@<TRIPOS>ATOM
      1 CA          1.2920  -19.4999  -50.9176 C.3       0 UNK        -0.1800 
      2 C           0.8730  -19.1672  -49.4873 C.2       0 UNK         0.5000 
      3 O           1.4205  -19.7569  -48.5617 O.2       0 UNK        -0.5000 
      4 N          -0.0784  -18.2566  -49.2346 N.am      1 UNK        -0.5000 
      5 CA         -0.7480  -17.3219  -50.1486 C.3       1 UNK         0.1400 
      6 C6         -1.5833  -17.9649  -51.2957 C.3       23 UNK        -0.0398 
      7 S7         -2.7793  -19.2285  -50.7406 S.3       23 UNK        -0.2404 
      8 C8         -4.3184  -18.2669  -50.5150 C.3       23 UNK        -0.0205 
      9 C9         -4.1171  -17.1564  -49.5010 C.ar      23 UNK        -0.0193 
     10 C10        -4.1943  -15.8217  -49.8967 C.ar      23 UNK        -0.1150 
     11 C11        -3.7735  -14.8036  -49.0379 C.ar      23 UNK        -0.0193 
     12 C12        -3.3473  -15.1304  -47.7460 C.ar      23 UNK        -0.1150 
     13 C13        -3.3256  -16.4626  -47.3157 C.ar      23 UNK        -0.0193 
     14 C14        -3.7358  -17.4674  -48.1954 C.ar      23 UNK        -0.1150 
     15 C15        -2.8178  -16.8169  -45.9234 C.3       23 UNK        -0.0205 
     16 S16        -1.3409  -17.8926  -45.9732 S.3       23 UNK        -0.2404 
     17 C17        -2.0957  -19.5242  -45.6678 C.3       23 UNK        -0.0398 
     18 CA         -1.2567  -20.7158  -46.1904 C.3       11 UNK         0.1400 
     19 N           0.0839  -20.7835  -45.5919 N.am      11 UNK        -0.5000 
     20 C           1.0232  -21.6887  -45.9143 C.2       10 UNK         0.5000 
     21 O           0.8816  -22.5395  -46.7886 O.2       10 UNK        -0.5000 
     22 CA          2.3023  -21.7154  -45.0620 C.3       10 UNK         0.1400 
     23 CB          3.3792  -20.7883  -45.6352 C.3       10 UNK        -0.1800 
     24 N           2.0213  -21.3797  -43.6671 N.am      10 UNK        -0.5000 
     25 C           1.4113  -22.2255  -42.8221 C.2       9 UNK         0.5000 
     26 O           1.0813  -23.3716  -43.1296 O.2       9 UNK        -0.5000 
     27 CA          1.0640  -21.6914  -41.4214 C.3       9 UNK         0.1400 
     28 CB          2.2335  -21.9167  -40.4534 C.3       9 UNK        -0.1800 
     29 N           0.6911  -20.2749  -41.4479 N.am      9 UNK        -0.5000 
     30 C          -0.4426  -19.8234  -42.0065 C.2       8 UNK         0.5000 
     31 O          -1.2893  -20.5785  -42.4876 O.2       8 UNK        -0.5000 
     32 CA         -0.6499  -18.2982  -42.1202 C.3       8 UNK         0.1400 
     33 CB         -2.0891  -17.8585  -41.7855 C.3       8 UNK        -0.1800 
     34 N           0.3481  -17.4964  -41.4101 N.am      8 UNK        -0.5000 
     35 C           0.5018  -17.3116  -40.0920 C.2       7 UNK         0.5000 
     36 O          -0.2507  -17.7735  -39.2337 O.2       7 UNK        -0.5000 
     37 CA          1.7393  -16.4786  -39.6883 C.3       7 UNK         0.1400 
     38 CB          2.1349  -16.6535  -38.2070 C.3       7 UNK        -0.1800 
     39 N           2.8854  -16.7171  -40.5785 N.am      7 UNK        -0.5000 
     40 C           3.5226  -17.8833  -40.7693 C.2       6 UNK         0.5000 
     41 O           3.2558  -18.9103  -40.1468 O.2       6 UNK        -0.5000 
     42 CA          4.5848  -17.9111  -41.8905 C.3       6 UNK         0.1400 
     43 CB          5.0470  -19.3392  -42.2485 C.3       6 UNK        -0.1800 
     44 N           4.1497  -17.1928  -43.0949 N.am      6 UNK        -0.5000 
     45 C           3.0549  -17.4378  -43.8294 C.2       5 UNK         0.5000 
     46 O           2.2664  -18.3629  -43.6159 O.2       5 UNK        -0.5000 
     47 CA          2.7629  -16.4313  -44.9562 C.3       5 UNK         0.1400 
     48 CB          2.6735  -17.1124  -46.3297 C.3       5 UNK        -0.1800 
     49 N           1.5226  -15.6993  -44.7244 N.am      5 UNK        -0.5000 
     50 C           1.2218  -14.9327  -43.6710 C.2       4 UNK         0.5000 
     51 O           1.9580  -14.7913  -42.6925 O.2       4 UNK        -0.5000 
     52 CA         -0.1189  -14.1730  -43.7599 C.3       4 UNK         0.1400 
     53 CB         -0.4783  -13.4520  -42.4489 C.3       4 UNK        -0.1800 
     54 N          -0.1073  -13.1995  -44.8574 N.am      4 UNK        -0.5000 
     55 C          -0.1890  -13.5099  -46.1582 C.2       3 UNK         0.5000 
     56 O          -0.3716  -14.6621  -46.5605 O.2       3 UNK        -0.5000 
     57 CA         -0.0307  -12.3730  -47.1912 C.3       3 UNK         0.1400 
     58 CB          0.8148  -11.1802  -46.6928 C.3       3 UNK        -0.1800 
     59 N           0.4801  -12.9124  -48.4566 N.am      3 UNK        -0.5000 
     60 C           1.6678  -13.5034  -48.6569 C.2       2 UNK         0.5000 
     61 O           2.6147  -13.4529  -47.8702 O.2       2 UNK        -0.5000 
     62 CA          1.7410  -14.4024  -49.8978 C.3       2 UNK         0.1400 
     63 CB          3.1497  -14.9699  -50.1647 C.3       2 UNK        -0.1800 
     64 N           0.7888  -15.4883  -49.6843 N.am      2 UNK        -0.5000 
     65 C           0.2392  -16.2454  -50.6379 C.2       1 UNK         0.5000 
     66 O           0.5065  -16.1400  -51.8353 O.2       1 UNK        -0.5000 
     67 C          -2.0375  -22.0273  -45.9647 C.2       11 UNK         0.5000 
     68 O          -2.6559  -22.5410  -46.8986 O.2       11 UNK        -0.5000 
     69 N          -1.9647  -22.5532  -44.7324 N.am      12 UNK        -0.5000 
     70 CA         -2.5452  -23.8345  -44.3381 C.3       12 UNK         0.1400 
     71 CB         -2.4784  -23.9813  -42.8106 C.3       12 UNK        -0.1800 
     72 C          -1.8730  -25.0278  -45.0410 C.2       12 UNK         0.5000 
     73 O          -2.5785  -25.9112  -45.5272 O.2       12 UNK        -0.5000 
     74 N          -0.5338  -25.0172  -45.1234 N.am      13 UNK        -0.5000 
     75 CA          0.2634  -26.0339  -45.8191 C.3       13 UNK         0.1400 
     76 CB          1.7532  -25.8193  -45.5144 C.3       13 UNK        -0.1800 
     77 C           0.0155  -26.0610  -47.3410 C.2       13 UNK         0.5000 
     78 O          -0.0473  -27.1409  -47.9292 O.2       13 UNK        -0.5000 
     79 N          -0.1616  -24.8761  -47.9403 N.am      14 UNK        -0.5000 
     80 CA         -0.5431  -24.6728  -49.3399 C.3       14 UNK         0.1400 
     81 CB         -0.2565  -23.2099  -49.7199 C.3       14 UNK        -0.1800 
     82 C          -2.0176  -25.0213  -49.6320 C.2       14 UNK         0.5000 
     83 O          -2.3926  -25.0975  -50.8017 O.2       14 UNK        -0.5000 
     84 N          -2.8197  -25.2123  -48.5734 N.am      15 UNK        -0.5000 
     85 CA         -4.2557  -25.4969  -48.5707 C.3       15 UNK         0.1400 
     86 CB         -4.5460  -26.8959  -49.1521 C.3       15 UNK        -0.1800 
     87 C          -5.0944  -24.3655  -49.1999 C.2       15 UNK         0.5000 
     88 O          -6.0906  -24.6358  -49.8739 O.2       15 UNK        -0.5000 
     89 N          -4.6720  -23.1184  -48.9369 N.am      16 UNK        -0.5000 
     90 CA         -5.3044  -21.8430  -49.2798 C.3       16 UNK         0.1400 
     91 CB         -6.3980  -21.5161  -48.2425 C.3       16 UNK        -0.1800 
     92 C          -5.7994  -21.7617  -50.7395 C.2       16 UNK         0.5000 
     93 O          -4.9983  -21.5225  -51.6436 O.2       16 UNK        -0.5000 
     94 N          -7.1048  -21.9806  -50.9484 N.am      17 UNK        -0.5000 
     95 CA         -7.7933  -21.9552  -52.2414 C.3       17 UNK         0.1400 
     96 CB         -9.2968  -22.1609  -52.0026 C.3       17 UNK        -0.1800 
     97 C          -7.2677  -22.9686  -53.2801 C.2       17 UNK         0.5000 
     98 O          -7.5228  -22.7890  -54.4711 O.2       17 UNK        -0.5000 
     99 N          -6.5343  -23.9979  -52.8330 N.am      18 UNK        -0.5000 
    100 CA        -5.8145  -24.9283  -53.7032 C.3       18 UNK         0.1400 
    101 CB        -5.3533  -26.1350  -52.8765 C.3       18 UNK        -0.1800 
    102 C         -4.6116  -24.2765  -54.4181 C.2       18 UNK         0.5000 
    103 O         -4.2628  -24.7114  -55.5166 O.2       18 UNK        -0.5000 
    104 N         -4.0076  -23.2537  -53.7965 N.am      19 UNK        -0.5000 
    105 CA        -2.9141  -22.4646  -54.3586 C.3       19 UNK         0.1400 
    106 CB        -1.8801  -22.1615  -53.2627 C.3       19 UNK        -0.1800 
    107 C         -3.4609  -21.1768  -54.9923 C.2       19 UNK         0.5000 
    108 O         -3.2302  -20.9461  -56.1796 O.2       19 UNK        -0.5000 
    109 N         -4.1986  -20.3870  -54.1948 N.am      20 UNK        -0.5000 
    110 CA        -4.9251  -19.1682  -54.5766 C.3       20 UNK         0.1400 
    111 CB        -6.1806  -19.5388  -55.3924 C.3       20 UNK        -0.1800 
    112 C         -4.0605  -18.0917  -55.2756 C.2       20 UNK         0.5000 
    113 O         -4.5062  -17.4858  -56.2526 O.2       20 UNK        -0.5000 
    114 N         -2.8357  -17.8822  -54.7723 N.am      21 UNK        -0.5000 
    115 CA        -1.8928  -16.8728  -55.2635 C.3       21 UNK         0.1400 
    116 CB        -0.4525  -17.3813  -55.0545 C.3       21 UNK        -0.1800 
    117 C         -2.1849  -15.4951  -54.6259 C.2       21 UNK         0.5000 
    118 O         -3.2591  -14.9399  -54.8592 O.2       21 UNK        -0.5000 
    119 N         -1.2483  -14.9650  -53.8258 N.am      22 UNK        -0.5000 
    120 CA        -1.3700  -13.7035  -53.0672 C.3       22 UNK         0.1400 
    121 C         -1.3411  -12.4042  -53.9300 C.2       22 UNK         0.5000 
    122 N         -0.8998  -12.4562  -55.1809 N.am      22 UNK        -0.7600 
    123 O         -1.6933  -11.3266  -53.4589 O.2       22 UNK        -0.5000 
    124 C124       -2.5523  -13.7532  -52.0579 C.3       23 UNK        -0.0398 
    125 S125       -2.2059  -12.9822  -50.4403 S.3       23 UNK        -0.2404 
    126 C126       -3.7397  -13.3604  -49.5228 C.3       23 UNK        -0.0205 
    127 H127        0.5361  -20.1226  -51.3959 H         1 UNK         0.0600 
    128 H128        2.2249  -20.0640  -50.9127 H         1 UNK         0.0600 
    129 H129        1.4583  -18.6109  -51.5220 H         1 UNK         0.0600 
    130 H130       -0.3310  -18.1231  -48.2647 H         1 UNK         0.3000 
    131 H131       -1.4446  -16.7733  -49.5193 H         1 UNK         0.0600 
    132 H132       -0.9362  -18.4374  -52.0312 H         1 UNK         0.0800 
    133 H133       -2.1275  -17.1907  -51.8375 H         1 UNK         0.0800 
    134 H134       -5.1183  -18.9219  -50.1724 H         1 UNK         0.0800 
    135 H135       -4.6358  -17.8662  -51.4780 H         1 UNK         0.0800 
    136 H136       -4.5260  -15.5823  -50.8961 H         1 UNK         0.1150 
    137 H137       -3.0122  -14.3472  -47.0816 H         1 UNK         0.1150 
    138 H138       -3.6831  -18.5038  -47.9037 H         1 UNK         0.1150 
    139 H139       -3.6172  -17.2892  -45.3513 H         1 UNK         0.0800 
    140 H140       -2.5570  -15.9091  -45.3791 H         1 UNK         0.0800 
    141 H141       -3.0868  -19.5473  -46.1197 H         1 UNK         0.0800 
    142 H142       -2.2723  -19.6107  -44.5972 H         1 UNK         0.0800 
    143 H143       -1.1257  -20.5952  -47.2680 H         1 UNK         0.0600 
    144 H144        0.2919  -20.1103  -44.8704 H         1 UNK         0.3000 
    145 H145        2.7033  -22.7302  -45.0923 H         1 UNK         0.0600 
    146 H146        3.6608  -21.1000  -46.6418 H         1 UNK         0.0600 
    147 H147        4.2812  -20.7943  -45.0236 H         1 UNK         0.0600 
    148 H148        3.0219  -19.7657  -45.7054 H         1 UNK         0.0600 
    149 H149        2.2083  -20.4252  -43.3783 H         1 UNK         0.3000 
    150 H150        0.2082  -22.2591  -41.0498 H         1 UNK         0.0600 
    151 H151        3.1518  -21.4528  -40.8137 H         1 UNK         0.0600 
    152 H152        2.4349  -22.9817  -40.3320 H         1 UNK         0.0600 
    153 H153        2.0154  -21.5108  -39.4654 H         1 UNK         0.0600 
    154 H154        1.3653  -19.6157  -41.0788 H         1 UNK         0.3000 
    155 H155       -0.4869  -18.0689  -43.1728 H         1 UNK         0.0600 
    156 H156       -2.3699  -18.1252  -40.7667 H         1 UNK         0.0600 
    157 H157       -2.8079  -18.3341  -42.4535 H         1 UNK         0.0600 
    158 H158       -2.2085  -16.7810  -41.8989 H         1 UNK         0.0600 
    159 H159        1.0784  -17.1251  -42.0031 H         1 UNK         0.3000 
    160 H160        1.4576  -15.4343  -39.8309 H         1 UNK         0.0600 
    161 H161        2.3571  -17.6928  -37.9636 H         1 UNK         0.0600 
    162 H162        1.3280  -16.3312  -37.5480 H         1 UNK         0.0600 
    163 H163        3.0122  -16.0557  -37.9602 H         1 UNK         0.0600 
    164 H164        3.1156  -15.9432  -41.1914 H         1 UNK         0.3000 
    165 H165        5.4501  -17.3724  -41.5022 H         1 UNK         0.0600 
    166 H166        5.4852  -19.8368  -41.3827 H         1 UNK         0.0600 
    167 H167        4.2211  -19.9586  -42.5955 H         1 UNK         0.0600 
    168 H168        5.8049  -19.3239  -43.0315 H         1 UNK         0.0600 
    169 H169        4.7115  -16.3888  -43.3383 H         1 UNK         0.3000 
    170 H170        3.5711  -15.6985  -44.9972 H         1 UNK         0.0600 
    171 H171        2.5107  -16.3803  -47.1207 H         1 UNK         0.0600 
    172 H172        1.8529  -17.8301  -46.3718 H         1 UNK         0.0600 
    173 H173        3.5965  -17.6422  -46.5670 H         1 UNK         0.0600 
    174 H174        0.8484  -15.7103  -45.4843 H         1 UNK         0.3000 
    175 H175       -0.8976  -14.9140  -43.9507 H         1 UNK         0.0600 
    176 H176       -0.5176  -14.1550  -41.6156 H         1 UNK         0.0600 
    177 H177        0.2525  -12.6825  -42.1971 H         1 UNK         0.0600 
    178 H178       -1.4569  -12.9765  -42.5168 H         1 UNK         0.0600 
    179 H179        0.0735  -12.2402  -44.6005 H         1 UNK         0.3000 
    180 H180       -1.0364  -12.0070  -47.4019 H         1 UNK         0.0600 
    181 H181        1.7881  -11.4950  -46.3152 H         1 UNK         0.0600 
    182 H182        0.3071  -10.6457  -45.8895 H         1 UNK         0.0600 
    183 H183        0.9861  -10.4611  -47.4939 H         1 UNK         0.0600 
    184 H184       -0.2336  -13.0585  -49.1594 H         1 UNK         0.3000 
    185 H185        1.4313  -13.8068  -50.7589 H         1 UNK         0.0600 
    186 H186        3.8784  -14.1666  -50.2780 H         1 UNK         0.0600 
    187 H187        3.4870  -15.6103  -49.3490 H         1 UNK         0.0600 
    188 H188        3.1726  -15.5590  -51.0815 H         1 UNK         0.0600 
    189 H189        0.4999  -15.6191  -48.7219 H         1 UNK         0.3000 
    190 H190       -1.4741  -22.0368  -44.0108 H         1 UNK         0.3000 
    191 H191       -3.5974  -23.8269  -44.6305 H         1 UNK         0.0600 
    192 H192       -3.0047  -23.1660  -42.3136 H         1 UNK         0.0600 
    193 H193       -2.9426  -24.9139  -42.4880 H         1 UNK         0.0600 
    194 H194       -1.4506  -23.9836  -42.4476 H         1 UNK         0.0600 
    195 H195       -0.0212  -24.2751  -44.6598 H         1 UNK         0.3000 
    196 H196       -0.0251  -27.0084  -45.4198 H         1 UNK         0.0600 
    197 H197        2.3580  -26.6130  -45.9546 H         1 UNK         0.0600 
    198 H198        1.9429  -25.8220  -44.4408 H         1 UNK         0.0600 
    199 H199        2.1135  -24.8734  -45.9175 H         1 UNK         0.0600 
    200 H200       -0.0001  -24.0295  -47.3977 H         1 UNK         0.3000 
    201 H201        0.0776  -25.3189  -49.9636 H         1 UNK         0.0600 
    202 H202       -0.4777  -23.0240  -50.7700 H         1 UNK         0.0600 
    203 H203        0.7922  -22.9570  -49.5624 H         1 UNK         0.0600 
    204 H204       -0.8581  -22.5160  -49.1314 H         1 UNK         0.0600 
    205 H205       -2.4037  -25.1165  -47.6562 H         1 UNK         0.3000 
    206 H206       -4.5512  -25.5216  -47.5210 H         1 UNK         0.0600 
    207 H207       -4.0191  -27.6661  -48.5889 H         1 UNK         0.0600 
    208 H208       -5.6095  -27.1318  -49.1027 H         1 UNK         0.0600 
    209 H209       -4.2382  -26.9811  -50.1927 H         1 UNK         0.0600 
    210 H210       -3.8356  -23.0295  -48.3651 H         1 UNK         0.3000 
    211 H211       -4.5244  -21.0884  -49.1780 H         1 UNK         0.0600 
    212 H212       -7.1637  -22.2910  -48.1929 H         1 UNK         0.0600 
    213 H213       -5.9666  -21.4188  -47.2460 H         1 UNK         0.0600 
    214 H214       -6.8902  -20.5698  -48.4715 H         1 UNK         0.0600 
    215 H215       -7.6732  -22.2205  -50.1495 H         1 UNK         0.3000 
    216 H216       -7.6481  -20.9595  -52.6643 H         1 UNK         0.0600 
    217 H217       -9.5010  -23.1318  -51.5493 H         1 UNK         0.0600 
    218 H218       -9.8532  -22.1123  -52.9397 H         1 UNK         0.0600 
    219 H219       -9.7022  -21.3904  -51.3465 H         1 UNK         0.0600 
    220 H220       -6.3914  -24.1007  -51.8328 H         1 UNK         0.3000 
    221 H221       -6.5064  -25.2850  -54.4690 H         1 UNK         0.0600 
    222 H222       -4.6240  -25.8347  -52.1254 H         1 UNK         0.0600 
    223 H223       -6.1890  -26.6125  -52.3646 H         1 UNK         0.0600 
    224 H224       -4.8816  -26.8871  -53.5099 H         1 UNK         0.0600 
    225 H225       -4.3899  -22.9214  -52.9174 H         1 UNK         0.3000 
    226 H226       -2.4041  -23.0301  -55.1414 H         1 UNK         0.0600 
    227 H227       -1.3988  -23.0807  -52.9299 H         1 UNK         0.0600 
    228 H228       -1.0968  -21.4972  -53.6299 H         1 UNK         0.0600 
    229 H229       -2.3326  -21.6909  -52.3902 H         1 UNK         0.0600 
    230 H230       -4.3376  -20.6906  -53.2336 H         1 UNK         0.3000 
    231 H231       -5.2680  -18.7170  -53.6454 H         1 UNK         0.0600 
    232 H232       -5.9205  -19.9973  -56.3469 H         1 UNK         0.0600 
    233 H233       -6.7893  -18.6590  -55.6038 H         1 UNK         0.0600 
    234 H234       -6.8117  -20.2379  -54.8474 H         1 UNK         0.0600 
    235 H235       -2.5458  -18.4346  -53.9800 H         1 UNK         0.3000 
    236 H236       -2.0315  -16.7502  -56.3398 H         1 UNK         0.0600 
    237 H237       -0.2186  -17.5544  -54.0059 H         1 UNK         0.0600 
    238 H238       -0.2940  -18.3211  -55.5839 H         1 UNK         0.0600 
    239 H239        0.2768  -16.6705  -55.4451 H         1 UNK         0.0600 
    240 H240       -0.4039  -15.4927  -53.6347 H         1 UNK         0.3000 
    241 H241       -0.4475  -13.6555  -52.4888 H         1 UNK         0.0600 
    242 H242       -0.8734  -11.6136  -55.7337 H         1 UNK         0.3800 
    243 H243       -0.5963  -13.3290  -55.5818 H         1 UNK         0.3800 
    244 H244       -2.7747  -14.7960  -51.8552 H         1 UNK         0.0800 
    245 H245       -3.4625  -13.3291  -52.4854 H         1 UNK         0.0800 
    246 H246       -3.8125  -12.6829  -48.6708 H         1 UNK         0.0800 
    247 H247       -4.6078  -13.1520  -50.1500 H         1 UNK         0.0800 
@<TRIPOS>BOND
     1    1    2 1    
     2    1  127 1    
     3    1  128 1    
     4    1  129 1    
     5    2    3 2    
     6    2    4 am   BACKBONE|DICT|INTERRES
     7    4    5 1    
     8    4  130 1    
     9    5    6 1    
    10    5   65 1    
    11    5  131 1    
    12    6    7 1    
    13    6  132 1    
    14    6  133 1    
    15    7    8 1    
    16    8    9 1    
    17    8  134 1    
    18    8  135 1    
    19    9   10 ar   
    20    9   14 ar   
    21   10   11 ar   
    22   10  136 1    
    23   11   12 ar   
    24   11  126 1    
    25   12   13 ar   
    26   12  137 1    
    27   13   14 ar   
    28   13   15 1    
    29   14  138 1    
    30   15   16 1    
    31   15  139 1    
    32   15  140 1    
    33   16   17 1    
    34   17   18 1    
    35   17  141 1    
    36   17  142 1    
    37   18   19 1    
    38   18   67 1    
    39   18  143 1    
    40   19   20 am   BACKBONE|DICT|INTERRES
    41   19  144 1    
    42   20   21 2    
    43   20   22 1    
    44   22   23 1    
    45   22   24 1    
    46   22  145 1    
    47   23  146 1    
    48   23  147 1    
    49   23  148 1    
    50   24   25 am   BACKBONE|DICT|INTERRES
    51   24  149 1    
    52   25   26 2    
    53   25   27 1    
    54   27   28 1    
    55   27   29 1    
    56   27  150 1    
    57   28  151 1    
    58   28  152 1    
    59   28  153 1    
    60   29   30 am   BACKBONE|DICT|INTERRES
    61   29  154 1    
    62   30   31 2    
    63   30   32 1    
    64   32   33 1    
    65   32   34 1    
    66   32  155 1    
    67   33  156 1    
    68   33  157 1    
    69   33  158 1    
    70   34   35 am   BACKBONE|DICT|INTERRES
    71   34  159 1    
    72   35   36 2    
    73   35   37 1    
    74   37   38 1    
    75   37   39 1    
    76   37  160 1    
    77   38  161 1    
    78   38  162 1    
    79   38  163 1    
    80   39   40 am   BACKBONE|DICT|INTERRES
    81   39  164 1    
    82   40   41 2    
    83   40   42 1    
    84   42   43 1    
    85   42   44 1    
    86   42  165 1    
    87   43  166 1    
    88   43  167 1    
    89   43  168 1    
    90   44   45 am   BACKBONE|DICT|INTERRES
    91   44  169 1    
    92   45   46 2    
    93   45   47 1    
    94   47   48 1    
    95   47   49 1    
    96   47  170 1    
    97   48  171 1    
    98   48  172 1    
    99   48  173 1    
   100   49   50 am   BACKBONE|DICT|INTERRES
   101   49  174 1    
   102   50   51 2    
   103   50   52 1    
   104   52   53 1    
   105   52   54 1    
   106   52  175 1    
   107   53  176 1    
   108   53  177 1    
   109   53  178 1    
   110   54   55 am   BACKBONE|DICT|INTERRES
   111   54  179 1    
   112   55   56 2    
   113   55   57 1    
   114   57   58 1    
   115   57   59 1    
   116   57  180 1    
   117   58  181 1    
   118   58  182 1    
   119   58  183 1    
   120   59   60 am   BACKBONE|DICT|INTERRES
   121   59  184 1    
   122   60   61 2    
   123   60   62 1    
   124   62   63 1    
   125   62   64 1    
   126   62  185 1    
   127   63  186 1    
   128   63  187 1    
   129   63  188 1    
   130   64   65 am   BACKBONE|DICT|INTERRES
   131   64  189 1    
   132   65   66 2    
   133   67   68 2    
   134   67   69 am   BACKBONE|DICT|INTERRES
   135   69   70 1    
   136   69  190 1    
   137   70   71 1    
   138   70   72 1    
   139   70  191 1    
   140   71  192 1    
   141   71  193 1    
   142   71  194 1    
   143   72   73 2    
   144   72   74 am   BACKBONE|DICT|INTERRES
   145   74   75 1    
   146   74  195 1    
   147   75   76 1    
   148   75   77 1    
   149   75  196 1    
   150   76  197 1    
   151   76  198 1    
   152   76  199 1    
   153   77   78 2    
   154   77   79 am   BACKBONE|DICT|INTERRES
   155   79   80 1    
   156   79  200 1    
   157   80   81 1    
   158   80   82 1    
   159   80  201 1    
   160   81  202 1    
   161   81  203 1    
   162   81  204 1    
   163   82   83 2    
   164   82   84 am   BACKBONE|DICT|INTERRES
   165   84   85 1    
   166   84  205 1    
   167   85   86 1    
   168   85   87 1    
   169   85  206 1    
   170   86  207 1    
   171   86  208 1    
   172   86  209 1    
   173   87   88 2    
   174   87   89 am   BACKBONE|DICT|INTERRES
   175   89   90 1    
   176   89  210 1    
   177   90   91 1    
   178   90   92 1    
   179   90  211 1    
   180   91  212 1    
   181   91  213 1    
   182   91  214 1    
   183   92   93 2    
   184   92   94 am   BACKBONE|DICT|INTERRES
   185   94   95 1    
   186   94  215 1    
   187   95   96 1    
   188   95   97 1    
   189   95  216 1    
   190   96  217 1    
   191   96  218 1    
   192   96  219 1    
   193   97   98 2    
   194   97   99 am   BACKBONE|DICT|INTERRES
   195   99  100 1    
   196   99  220 1    
   197  100  101 1    
   198  100  102 1    
   199  100  221 1    
   200  101  222 1    
   201  101  223 1    
   202  101  224 1    
   203  102  103 2    
   204  102  104 am   BACKBONE|DICT|INTERRES
   205  104  105 1    
   206  104  225 1    
   207  105  106 1    
   208  105  107 1    
   209  105  226 1    
   210  106  227 1    
   211  106  228 1    
   212  106  229 1    
   213  107  108 2    
   214  107  109 am   BACKBONE|DICT|INTERRES
   215  109  110 1    
   216  109  230 1    
   217  110  111 1    
   218  110  112 1    
   219  110  231 1    
   220  111  232 1    
   221  111  233 1    
   222  111  234 1    
   223  112  113 2    
   224  112  114 am   BACKBONE|DICT|INTERRES
   225  114  115 1    
   226  114  235 1    
   227  115  116 1    
   228  115  117 1    
   229  115  236 1    
   230  116  237 1    
   231  116  238 1    
   232  116  239 1    
   233  117  118 2    
   234  117  119 am   BACKBONE|DICT|INTERRES
   235  119  120 1    
   236  119  240 1    
   237  120  121 1    
   238  120  124 1    
   239  120  241 1    
   240  121  122 am   BACKBONE|DICT|INTERRES
   241  121  123 2    
   242  122  242 1    
   243  122  243 1    
   244  124  125 1    
   245  124  244 1    
   246  124  245 1    
   247  125  126 1    
   248  126  246 1    
   249  126  247 1    
@<TRIPOS>SUBSTRUCTURE
     1 UNK         1 GROUP             0       ****    0 ROOT    
