@<TRIPOS>MOLECULE
3R540
247   249    1
SMALL
USER_CHARGES


@<TRIPOS>ATOM
      1 CA         -5.1794  -18.9715  -45.8877 C.3       0 UNK        -0.1800 
      2 C          -5.1231  -17.9329  -46.9982 C.2       0 UNK         0.5000 
      3 O          -6.1051  -17.2274  -47.2298 O.2       0 UNK        -0.5000 
      4 N          -3.9795  -17.8401  -47.6871 N.am      1 UNK        -0.5000 
      5 CA         -3.7018  -16.8142  -48.6972 C.3       1 UNK         0.1400 
      6 C6         -2.5256  -17.2156  -49.6248 C.3       23 UNK        -0.0398 
      7 S7         -2.9659  -18.5057  -50.8360 S.3       23 UNK        -0.2404 
      8 C8         -2.2865  -19.9986  -50.0695 C.3       23 UNK        -0.0205 
      9 C9         -0.8201  -20.2010  -50.4058 C.ar      23 UNK        -0.0193 
     10 C10        -0.4583  -20.8520  -51.5875 C.ar      23 UNK        -0.1150 
     11 C11         0.8874  -21.0754  -51.8894 C.ar      23 UNK        -0.0193 
     12 C12         1.8739  -20.6386  -51.0001 C.ar      23 UNK        -0.1150 
     13 C13         1.5244  -19.9825  -49.8166 C.ar      23 UNK        -0.0193 
     14 C14         0.1748  -19.7697  -49.5264 C.ar      23 UNK        -0.1150 
     15 C15         2.6032  -19.4852  -48.8637 C.3       23 UNK        -0.0205 
     16 S16         2.5074  -20.2578  -47.2156 S.3       23 UNK        -0.2404 
     17 C17         3.0143  -21.9765  -47.5739 C.3       23 UNK        -0.0398 
     18 CA          2.0971  -23.0709  -46.9735 C.3       11 UNK         0.1400 
     19 N           2.0472  -23.0500  -45.5066 N.am      11 UNK        -0.5000 
     20 C           1.6562  -24.1019  -44.7699 C.2       10 UNK         0.5000 
     21 O           1.3210  -25.1834  -45.2542 O.2       10 UNK        -0.5000 
     22 CA          1.5839  -23.9087  -43.2433 C.3       10 UNK         0.1400 
     23 CB          2.9755  -24.0607  -42.6114 C.3       10 UNK        -0.1800 
     24 N           1.0075  -22.6252  -42.8410 N.am      10 UNK        -0.5000 
     25 C          -0.2190  -22.1930  -43.1647 C.2       9 UNK         0.5000 
     26 O          -1.0102  -22.8550  -43.8347 O.2       9 UNK        -0.5000 
     27 CA         -0.6434  -20.7928  -42.6772 C.3       9 UNK         0.1400 
     28 CB         -1.7528  -20.8987  -41.6202 C.3       9 UNK        -0.1800 
     29 N           0.4407  -19.9672  -42.1382 N.am      9 UNK        -0.5000 
     30 C           1.4724  -19.4823  -42.8392 C.2       8 UNK         0.5000 
     31 O           1.6839  -19.7690  -44.0169 O.2       8 UNK        -0.5000 
     32 CA          2.4060  -18.5116  -42.0899 C.3       8 UNK         0.1400 
     33 CB          3.6021  -18.0590  -42.9470 C.3       8 UNK        -0.1800 
     34 N           1.6765  -17.3275  -41.6380 N.am      8 UNK        -0.5000 
     35 C           0.9125  -17.2484  -40.5402 C.2       7 UNK         0.5000 
     36 O           0.7433  -18.1867  -39.7602 O.2       7 UNK        -0.5000 
     37 CA          0.1862  -15.9154  -40.3031 C.3       7 UNK         0.1400 
     38 CB          1.1750  -14.8122  -39.8930 C.3       7 UNK        -0.1800 
     39 N          -0.5233  -15.5086  -41.5136 N.am      7 UNK        -0.5000 
     40 C          -1.8114  -15.7764  -41.7728 C.2       6 UNK         0.5000 
     41 O          -2.5761  -16.3105  -40.9687 O.2       6 UNK        -0.5000 
     42 CA         -2.3331  -15.3973  -43.1738 C.3       6 UNK         0.1400 
     43 CB         -2.9559  -13.9939  -43.1612 C.3       6 UNK        -0.1800 
     44 N          -1.2804  -15.4511  -44.1876 N.am      6 UNK        -0.5000 
     45 C          -0.7315  -16.5916  -44.6314 C.2       5 UNK         0.5000 
     46 O          -1.1466  -17.7061  -44.3153 O.2       5 UNK        -0.5000 
     47 CA          0.4990  -16.4886  -45.5563 C.3       5 UNK         0.1400 
     48 CB          0.1197  -16.8569  -46.9929 C.3       5 UNK        -0.1800 
     49 N           1.1489  -15.1770  -45.5619 N.am      5 UNK        -0.5000 
     50 C           1.7513  -14.6050  -44.5110 C.2       4 UNK         0.5000 
     51 O           1.8426  -15.1384  -43.4053 O.2       4 UNK        -0.5000 
     52 CA          2.2936  -13.1767  -44.7061 C.3       4 UNK         0.1400 
     53 CB          3.7914  -13.2178  -45.0428 C.3       4 UNK        -0.1800 
     54 N           1.5923  -12.3917  -45.7288 N.am      4 UNK        -0.5000 
     55 C           0.2840  -12.0970  -45.7267 C.2       3 UNK         0.5000 
     56 O          -0.5022  -12.5150  -44.8740 O.2       3 UNK        -0.5000 
     57 CA         -0.2406  -11.1682  -46.8423 C.3       3 UNK         0.1400 
     58 CB          0.7735  -10.8883  -47.9761 C.3       3 UNK        -0.1800 
     59 N          -1.5202  -11.6366  -47.3827 N.am      3 UNK        -0.5000 
     60 C          -1.7469  -12.7742  -48.0541 C.2       2 UNK         0.5000 
     61 O          -0.8678  -13.5839  -48.3609 O.2       2 UNK        -0.5000 
     62 CA         -3.2109  -13.0015  -48.4890 C.3       2 UNK         0.1400 
     63 CB         -3.5541  -12.1100  -49.6938 C.3       2 UNK        -0.1800 
     64 N          -3.5068  -14.3864  -48.8522 N.am      2 UNK        -0.5000 
     65 C          -3.4372  -15.4428  -48.0353 C.2       1 UNK         0.5000 
     66 O          -3.1698  -15.3637  -46.8343 O.2       1 UNK        -0.5000 
     67 C           0.6849  -23.0773  -47.5930 C.2       11 UNK         0.5000 
     68 O           0.4679  -23.7588  -48.5939 O.2       11 UNK        -0.5000 
     69 N          -0.2609  -22.3748  -46.9524 N.am      12 UNK        -0.5000 
     70 CA         -1.6670  -22.3358  -47.3455 C.3       12 UNK         0.1400 
     71 CB         -2.3907  -21.2197  -46.5780 C.3       12 UNK        -0.1800 
     72 C          -2.3668  -23.6878  -47.1467 C.2       12 UNK         0.5000 
     73 O          -3.1101  -24.1186  -48.0275 O.2       12 UNK        -0.5000 
     74 N          -2.0798  -24.3493  -46.0180 N.am      13 UNK        -0.5000 
     75 CA         -2.5467  -25.6962  -45.6962 C.3       13 UNK         0.1400 
     76 CB         -2.1868  -26.0246  -44.2394 C.3       13 UNK        -0.1800 
     77 C          -1.9836  -26.7623  -46.6535 C.2       13 UNK         0.5000 
     78 O          -2.7190  -27.6685  -47.0459 O.2       13 UNK        -0.5000 
     79 N          -0.7036  -26.6230  -47.0288 N.am      14 UNK        -0.5000 
     80 CA         -0.0285  -27.4858  -47.9984 C.3       14 UNK         0.1400 
     81 CB          1.4854  -27.2287  -47.9526 C.3       14 UNK        -0.1800 
     82 C          -0.5721  -27.3083  -49.4284 C.2       14 UNK         0.5000 
     83 O          -0.7983  -28.3038  -50.1177 O.2       14 UNK        -0.5000 
     84 N          -0.7786  -26.0511  -49.8447 N.am      15 UNK        -0.5000 
     85 CA         -1.3241  -25.6925  -51.1546 C.3       15 UNK         0.1400 
     86 CB         -1.0800  -24.1983  -51.4099 C.3       15 UNK        -0.1800 
     87 C          -2.8227  -26.0119  -51.2994 C.2       15 UNK         0.5000 
     88 O          -3.2623  -26.3346  -52.4036 O.2       15 UNK        -0.5000 
     89 N          -3.5688  -25.8964  -50.1902 N.am      16 UNK        -0.5000 
     90 CA         -5.0269  -25.9935  -50.0794 C.3       16 UNK         0.1400 
     91 CB         -5.5153  -27.4231  -50.3928 C.3       16 UNK        -0.1800 
     92 C          -5.7250  -24.9013  -50.9163 C.2       16 UNK         0.5000 
     93 O          -6.6177  -25.1977  -51.7134 O.2       16 UNK        -0.5000 
     94 N          -5.2709  -23.6556  -50.7359 N.am      17 UNK        -0.5000 
     95 CA         -5.7136  -22.4770  -51.4755 C.3       17 UNK         0.1400 
     96 CB         -4.7046  -22.1888  -52.6024 C.3       17 UNK        -0.1800 
     97 C          -5.8537  -21.2762  -50.5277 C.2       17 UNK         0.5000 
     98 O          -5.3329  -21.3054  -49.4096 O.2       17 UNK        -0.5000 
     99 N          -6.5481  -20.2383  -51.0049 N.am      18 UNK        -0.5000 
    100 CA        -6.8025  -18.9923  -50.2898 C.3       18 UNK         0.1400 
    101 CB        -8.0504  -19.1423  -49.3989 C.3       18 UNK        -0.1800 
    102 C         -6.9190  -17.8574  -51.3188 C.2       18 UNK         0.5000 
    103 O         -8.0186  -17.3747  -51.5945 O.2       18 UNK        -0.5000 
    104 N         -5.7764  -17.5022  -51.9130 N.am      19 UNK        -0.5000 
    105 CA        -5.6254  -16.4874  -52.9508 C.3       19 UNK         0.1400 
    106 CB        -5.5030  -17.1840  -54.3205 C.3       19 UNK        -0.1800 
    107 C         -4.4475  -15.5550  -52.6008 C.2       19 UNK         0.5000 
    108 O         -4.3557  -15.1016  -51.4592 O.2       19 UNK        -0.5000 
    109 N         -3.5795  -15.2586  -53.5755 N.am      20 UNK        -0.5000 
    110 CA        -2.5475  -14.2195  -53.4959 C.3       20 UNK         0.1400 
    111 CB        -2.4525  -13.5338  -54.8704 C.3       20 UNK        -0.1800 
    112 C         -1.1628  -14.7163  -53.0267 C.2       20 UNK         0.5000 
    113 O         -0.2212  -13.9236  -53.0470 O.2       20 UNK        -0.5000 
    114 N         -1.0555  -15.9935  -52.6266 N.am      21 UNK        -0.5000 
    115 CA         0.1653  -16.6954  -52.1992 C.3       21 UNK         0.1400 
    116 CB         0.7787  -16.0444  -50.9369 C.3       21 UNK        -0.1800 
    117 C          1.1911  -16.8177  -53.3548 C.2       21 UNK         0.5000 
    118 O          2.1865  -16.0936  -53.3570 O.2       21 UNK        -0.5000 
    119 N          0.9882  -17.6875  -54.3556 N.am      22 UNK        -0.5000 
    120 CA        -0.0997  -18.6708  -54.5190 C.3       22 UNK         0.1400 
    121 C         -1.3267  -18.1328  -55.3086 C.2       22 UNK         0.5000 
    122 N         -1.2664  -16.9497  -55.9065 N.am      22 UNK        -0.7600 
    123 O         -2.3538  -18.7994  -55.3741 O.2       22 UNK        -0.5000 
    124 C124        0.4060  -19.9886  -55.1670 C.3       23 UNK        -0.0398 
    125 S125        1.9315  -20.6683  -54.4230 S.3       23 UNK        -0.2404 
    126 C126        1.2818  -21.8075  -53.1623 C.3       23 UNK        -0.0205 
    127 H127       -5.8130  -18.6217  -45.0726 H         1 UNK         0.0600 
    128 H128       -4.1887  -19.1691  -45.4778 H         1 UNK         0.0600 
    129 H129       -5.5938  -19.9053  -46.2680 H         1 UNK         0.0600 
    130 H130       -3.1981  -18.4156  -47.4167 H         1 UNK         0.3000 
    131 H131       -4.5965  -16.6953  -49.3110 H         1 UNK         0.0600 
    132 H132       -1.6556  -17.5254  -49.0502 H         1 UNK         0.0800 
    133 H133       -2.2029  -16.3557  -50.2100 H         1 UNK         0.0800 
    134 H134       -2.8539  -20.8640  -50.4079 H         1 UNK         0.0800 
    135 H135       -2.4386  -19.9427  -48.9946 H         1 UNK         0.0800 
    136 H136       -1.2263  -21.1915  -52.2679 H         1 UNK         0.1150 
    137 H137        2.9150  -20.8089  -51.2357 H         1 UNK         0.1150 
    138 H138       -0.0977  -19.2837  -48.6044 H         1 UNK         0.1150 
    139 H139        3.5985  -19.6533  -49.2779 H         1 UNK         0.0800 
    140 H140        2.5018  -18.4058  -48.7526 H         1 UNK         0.0800 
    141 H141        4.0274  -22.1069  -47.1918 H         1 UNK         0.0800 
    142 H142        3.0930  -22.1179  -48.6530 H         1 UNK         0.0800 
    143 H143        2.5501  -24.0236  -47.2573 H         1 UNK         0.0600 
    144 H144        2.2673  -22.1728  -45.0533 H         1 UNK         0.3000 
    145 H145        0.9408  -24.6958  -42.8441 H         1 UNK         0.0600 
    146 H146        2.9207  -24.0256  -41.5232 H         1 UNK         0.0600 
    147 H147        3.4247  -25.0173  -42.8820 H         1 UNK         0.0600 
    148 H148        3.6557  -23.2737  -42.9394 H         1 UNK         0.0600 
    149 H149        1.5926  -22.0143  -42.2915 H         1 UNK         0.3000 
    150 H150       -1.0533  -20.2736  -43.5453 H         1 UNK         0.0600 
    151 H151       -2.6003  -21.4737  -41.9960 H         1 UNK         0.0600 
    152 H152       -2.1284  -19.9126  -41.3452 H         1 UNK         0.0600 
    153 H153       -1.3975  -21.3894  -40.7133 H         1 UNK         0.0600 
    154 H154        0.3424  -19.6566  -41.1780 H         1 UNK         0.3000 
    155 H155        2.8018  -19.0413  -41.2210 H         1 UNK         0.0600 
    156 H156        3.2803  -17.5256  -43.8419 H         1 UNK         0.0600 
    157 H157        4.1969  -18.9139  -43.2709 H         1 UNK         0.0600 
    158 H158        4.2620  -17.3982  -42.3847 H         1 UNK         0.0600 
    159 H159        1.7429  -16.5129  -42.2450 H         1 UNK         0.3000 
    160 H160       -0.5198  -16.0547  -39.4816 H         1 UNK         0.0600 
    161 H161        1.9092  -14.6094  -40.6735 H         1 UNK         0.0600 
    162 H162        1.7221  -15.0948  -38.9928 H         1 UNK         0.0600 
    163 H163        0.6533  -13.8798  -39.6768 H         1 UNK         0.0600 
    164 H164        0.0438  -15.1121  -42.2526 H         1 UNK         0.3000 
    165 H165       -3.1114  -16.1122  -43.4495 H         1 UNK         0.0600 
    166 H166       -3.3386  -13.7250  -44.1463 H         1 UNK         0.0600 
    167 H167       -3.7907  -13.9442  -42.4611 H         1 UNK         0.0600 
    168 H168       -2.2317  -13.2347  -42.8637 H         1 UNK         0.0600 
    169 H169       -0.9210  -14.5630  -44.5197 H         1 UNK         0.3000 
    170 H170        1.2256  -17.2215  -45.2008 H         1 UNK         0.0600 
    171 H171       -0.4082  -17.8094  -47.0108 H         1 UNK         0.0600 
    172 H172       -0.5329  -16.1057  -47.4358 H         1 UNK         0.0600 
    173 H173        1.0014  -16.9519  -47.6253 H         1 UNK         0.0600 
    174 H174        1.0803  -14.6461  -46.4186 H         1 UNK         0.3000 
    175 H175        2.1719  -12.6556  -43.7544 H         1 UNK         0.0600 
    176 H176        3.9740  -13.6977  -46.0051 H         1 UNK         0.0600 
    177 H177        4.2161  -12.2145  -45.0804 H         1 UNK         0.0600 
    178 H178        4.3468  -13.7756  -44.2873 H         1 UNK         0.0600 
    179 H179        2.1631  -12.0156  -46.4718 H         1 UNK         0.3000 
    180 H180       -0.4525  -10.2151  -46.3559 H         1 UNK         0.0600 
    181 H181        1.1051  -11.8025  -48.4696 H         1 UNK         0.0600 
    182 H182        1.6577  -10.3735  -47.5985 H         1 UNK         0.0600 
    183 H183        0.3353  -10.2442  -48.7386 H         1 UNK         0.0600 
    184 H184       -2.3129  -11.0503  -47.1629 H         1 UNK         0.3000 
    185 H185       -3.8605  -12.7333  -47.6534 H         1 UNK         0.0600 
    186 H186       -4.5920  -12.2418  -50.0009 H         1 UNK         0.0600 
    187 H187       -3.4186  -11.0538  -49.4580 H         1 UNK         0.0600 
    188 H188       -2.9203  -12.3384  -50.5514 H         1 UNK         0.0600 
    189 H189       -3.7530  -14.5488  -49.8270 H         1 UNK         0.3000 
    190 H190       -0.0025  -21.8700  -46.1177 H         1 UNK         0.3000 
    191 H191       -1.7028  -22.1109  -48.4111 H         1 UNK         0.0600 
    192 H192       -3.4038  -21.0932  -46.9613 H         1 UNK         0.0600 
    193 H193       -1.8746  -20.2650  -46.6797 H         1 UNK         0.0600 
    194 H194       -2.4716  -21.4399  -45.5139 H         1 UNK         0.0600 
    195 H195       -1.5097  -23.8850  -45.3149 H         1 UNK         0.3000 
    196 H196       -3.6346  -25.7045  -45.7902 H         1 UNK         0.0600 
    197 H197       -2.5429  -27.0177  -43.9626 H         1 UNK         0.0600 
    198 H198       -2.6414  -25.3115  -43.5514 H         1 UNK         0.0600 
    199 H199       -1.1087  -26.0034  -44.0765 H         1 UNK         0.0600 
    200 H200       -0.1502  -25.8821  -46.6136 H         1 UNK         0.3000 
    201 H201       -0.2018  -28.5228  -47.7031 H         1 UNK         0.0600 
    202 H202        1.8875  -27.4194  -46.9574 H         1 UNK         0.0600 
    203 H203        1.7289  -26.2005  -48.2200 H         1 UNK         0.0600 
    204 H204        2.0134  -27.8825  -48.6478 H         1 UNK         0.0600 
    205 H205       -0.5011  -25.2791  -49.2440 H         1 UNK         0.3000 
    206 H206       -0.7862  -26.2602  -51.9166 H         1 UNK         0.0600 
    207 H207       -0.0157  -23.9649  -51.3829 H         1 UNK         0.0600 
    208 H208       -1.4559  -23.8997  -52.3892 H         1 UNK         0.0600 
    209 H209       -1.5760  -23.5766  -50.6631 H         1 UNK         0.0600 
    210 H210       -3.1102  -25.5461  -49.3547 H         1 UNK         0.3000 
    211 H211       -5.2690  -25.7855  -49.0362 H         1 UNK         0.0600 
    212 H212       -5.3518  -27.6925  -51.4365 H         1 UNK         0.0600 
    213 H213       -6.5832  -27.5205  -50.1946 H         1 UNK         0.0600 
    214 H214       -5.0011  -28.1574  -49.7724 H         1 UNK         0.0600 
    215 H215       -4.5967  -23.4767  -50.0014 H         1 UNK         0.3000 
    216 H216       -6.6968  -22.6580  -51.9150 H         1 UNK         0.0600 
    217 H217       -4.9675  -21.2858  -53.1547 H         1 UNK         0.0600 
    218 H218       -4.6771  -23.0097  -53.3192 H         1 UNK         0.0600 
    219 H219       -3.6941  -22.0564  -52.2170 H         1 UNK         0.0600 
    220 H220       -6.9180  -20.2796  -51.9449 H         1 UNK         0.3000 
    221 H221       -5.9486  -18.7624  -49.6522 H         1 UNK         0.0600 
    222 H222       -8.2785  -18.2058  -48.8885 H         1 UNK         0.0600 
    223 H223       -8.9290  -19.4270  -49.9786 H         1 UNK         0.0600 
    224 H224       -7.8952  -19.8993  -48.6301 H         1 UNK         0.0600 
    225 H225       -4.9150  -17.9399  -51.6077 H         1 UNK         0.3000 
    226 H226       -6.5097  -15.8477  -52.9748 H         1 UNK         0.0600 
    227 H227       -4.6222  -17.8244  -54.3680 H         1 UNK         0.0600 
    228 H228       -6.3734  -17.8109  -54.5151 H         1 UNK         0.0600 
    229 H229       -5.4455  -16.4630  -55.1366 H         1 UNK         0.0600 
    230 H230       -3.6983  -15.7007  -54.4755 H         1 UNK         0.3000 
    231 H231       -2.8621  -13.4606  -52.7768 H         1 UNK         0.0600 
    232 H232       -2.1111  -14.2223  -55.6432 H         1 UNK         0.0600 
    233 H233       -1.7552  -12.6953  -54.8476 H         1 UNK         0.0600 
    234 H234       -3.4192  -13.1357  -55.1793 H         1 UNK         0.0600 
    235 H235       -1.8917  -16.5574  -52.6706 H         1 UNK         0.3000 
    236 H236       -0.1270  -17.6959  -51.8871 H         1 UNK         0.0600 
    237 H237        0.0598  -15.9772  -50.1228 H         1 UNK         0.0600 
    238 H238        1.6193  -16.6358  -50.5725 H         1 UNK         0.0600 
    239 H239        1.1518  -15.0378  -51.1258 H         1 UNK         0.0600 
    240 H240        1.6839  -17.7221  -55.0852 H         1 UNK         0.3000 
    241 H241       -0.4884  -18.9471  -53.5431 H         1 UNK         0.0600 
    242 H242       -2.0491  -16.6343  -56.4558 H         1 UNK         0.3800 
    243 H243       -0.4180  -16.4064  -55.8804 H         1 UNK         0.3800 
    244 H244       -0.3736  -20.7519  -55.1363 H         1 UNK         0.0800 
    245 H245        0.6180  -19.8252  -56.2252 H         1 UNK         0.0800 
    246 H246        2.0534  -22.5408  -52.9235 H         1 UNK         0.0800 
    247 H247        0.4426  -22.3755  -53.5662 H         1 UNK         0.0800 
@<TRIPOS>BOND
     1    1    2 1    
     2    1  127 1    
     3    1  128 1    
     4    1  129 1    
     5    2    3 2    
     6    2    4 am   BACKBONE|DICT|INTERRES
     7    4    5 1    
     8    4  130 1    
     9    5    6 1    
    10    5   65 1    
    11    5  131 1    
    12    6    7 1    
    13    6  132 1    
    14    6  133 1    
    15    7    8 1    
    16    8    9 1    
    17    8  134 1    
    18    8  135 1    
    19    9   10 ar   
    20    9   14 ar   
    21   10   11 ar   
    22   10  136 1    
    23   11   12 ar   
    24   11  126 1    
    25   12   13 ar   
    26   12  137 1    
    27   13   14 ar   
    28   13   15 1    
    29   14  138 1    
    30   15   16 1    
    31   15  139 1    
    32   15  140 1    
    33   16   17 1    
    34   17   18 1    
    35   17  141 1    
    36   17  142 1    
    37   18   19 1    
    38   18   67 1    
    39   18  143 1    
    40   19   20 am   BACKBONE|DICT|INTERRES
    41   19  144 1    
    42   20   21 2    
    43   20   22 1    
    44   22   23 1    
    45   22   24 1    
    46   22  145 1    
    47   23  146 1    
    48   23  147 1    
    49   23  148 1    
    50   24   25 am   BACKBONE|DICT|INTERRES
    51   24  149 1    
    52   25   26 2    
    53   25   27 1    
    54   27   28 1    
    55   27   29 1    
    56   27  150 1    
    57   28  151 1    
    58   28  152 1    
    59   28  153 1    
    60   29   30 am   BACKBONE|DICT|INTERRES
    61   29  154 1    
    62   30   31 2    
    63   30   32 1    
    64   32   33 1    
    65   32   34 1    
    66   32  155 1    
    67   33  156 1    
    68   33  157 1    
    69   33  158 1    
    70   34   35 am   BACKBONE|DICT|INTERRES
    71   34  159 1    
    72   35   36 2    
    73   35   37 1    
    74   37   38 1    
    75   37   39 1    
    76   37  160 1    
    77   38  161 1    
    78   38  162 1    
    79   38  163 1    
    80   39   40 am   BACKBONE|DICT|INTERRES
    81   39  164 1    
    82   40   41 2    
    83   40   42 1    
    84   42   43 1    
    85   42   44 1    
    86   42  165 1    
    87   43  166 1    
    88   43  167 1    
    89   43  168 1    
    90   44   45 am   BACKBONE|DICT|INTERRES
    91   44  169 1    
    92   45   46 2    
    93   45   47 1    
    94   47   48 1    
    95   47   49 1    
    96   47  170 1    
    97   48  171 1    
    98   48  172 1    
    99   48  173 1    
   100   49   50 am   BACKBONE|DICT|INTERRES
   101   49  174 1    
   102   50   51 2    
   103   50   52 1    
   104   52   53 1    
   105   52   54 1    
   106   52  175 1    
   107   53  176 1    
   108   53  177 1    
   109   53  178 1    
   110   54   55 am   BACKBONE|DICT|INTERRES
   111   54  179 1    
   112   55   56 2    
   113   55   57 1    
   114   57   58 1    
   115   57   59 1    
   116   57  180 1    
   117   58  181 1    
   118   58  182 1    
   119   58  183 1    
   120   59   60 am   BACKBONE|DICT|INTERRES
   121   59  184 1    
   122   60   61 2    
   123   60   62 1    
   124   62   63 1    
   125   62   64 1    
   126   62  185 1    
   127   63  186 1    
   128   63  187 1    
   129   63  188 1    
   130   64   65 am   BACKBONE|DICT|INTERRES
   131   64  189 1    
   132   65   66 2    
   133   67   68 2    
   134   67   69 am   BACKBONE|DICT|INTERRES
   135   69   70 1    
   136   69  190 1    
   137   70   71 1    
   138   70   72 1    
   139   70  191 1    
   140   71  192 1    
   141   71  193 1    
   142   71  194 1    
   143   72   73 2    
   144   72   74 am   BACKBONE|DICT|INTERRES
   145   74   75 1    
   146   74  195 1    
   147   75   76 1    
   148   75   77 1    
   149   75  196 1    
   150   76  197 1    
   151   76  198 1    
   152   76  199 1    
   153   77   78 2    
   154   77   79 am   BACKBONE|DICT|INTERRES
   155   79   80 1    
   156   79  200 1    
   157   80   81 1    
   158   80   82 1    
   159   80  201 1    
   160   81  202 1    
   161   81  203 1    
   162   81  204 1    
   163   82   83 2    
   164   82   84 am   BACKBONE|DICT|INTERRES
   165   84   85 1    
   166   84  205 1    
   167   85   86 1    
   168   85   87 1    
   169   85  206 1    
   170   86  207 1    
   171   86  208 1    
   172   86  209 1    
   173   87   88 2    
   174   87   89 am   BACKBONE|DICT|INTERRES
   175   89   90 1    
   176   89  210 1    
   177   90   91 1    
   178   90   92 1    
   179   90  211 1    
   180   91  212 1    
   181   91  213 1    
   182   91  214 1    
   183   92   93 2    
   184   92   94 am   BACKBONE|DICT|INTERRES
   185   94   95 1    
   186   94  215 1    
   187   95   96 1    
   188   95   97 1    
   189   95  216 1    
   190   96  217 1    
   191   96  218 1    
   192   96  219 1    
   193   97   98 2    
   194   97   99 am   BACKBONE|DICT|INTERRES
   195   99  100 1    
   196   99  220 1    
   197  100  101 1    
   198  100  102 1    
   199  100  221 1    
   200  101  222 1    
   201  101  223 1    
   202  101  224 1    
   203  102  103 2    
   204  102  104 am   BACKBONE|DICT|INTERRES
   205  104  105 1    
   206  104  225 1    
   207  105  106 1    
   208  105  107 1    
   209  105  226 1    
   210  106  227 1    
   211  106  228 1    
   212  106  229 1    
   213  107  108 2    
   214  107  109 am   BACKBONE|DICT|INTERRES
   215  109  110 1    
   216  109  230 1    
   217  110  111 1    
   218  110  112 1    
   219  110  231 1    
   220  111  232 1    
   221  111  233 1    
   222  111  234 1    
   223  112  113 2    
   224  112  114 am   BACKBONE|DICT|INTERRES
   225  114  115 1    
   226  114  235 1    
   227  115  116 1    
   228  115  117 1    
   229  115  236 1    
   230  116  237 1    
   231  116  238 1    
   232  116  239 1    
   233  117  118 2    
   234  117  119 am   BACKBONE|DICT|INTERRES
   235  119  120 1    
   236  119  240 1    
   237  120  121 1    
   238  120  124 1    
   239  120  241 1    
   240  121  122 am   BACKBONE|DICT|INTERRES
   241  121  123 2    
   242  122  242 1    
   243  122  243 1    
   244  124  125 1    
   245  124  244 1    
   246  124  245 1    
   247  125  126 1    
   248  126  246 1    
   249  126  247 1    
@<TRIPOS>SUBSTRUCTURE
     1 UNK         1 GROUP             0       ****    0 ROOT    
