@<TRIPOS>MOLECULE
3R540
247   249    1
SMALL
USER_CHARGES


@<TRIPOS>ATOM
      1 CA         -2.0573  -13.7609  -51.6298 C.3       0 UNK        -0.1800 
      2 C          -0.7611  -13.3360  -50.9548 C.2       0 UNK         0.5000 
      3 O          -0.2129  -12.2813  -51.2736 O.2       0 UNK        -0.5000 
      4 N          -0.2779  -14.1409  -50.0023 N.am      1 UNK        -0.5000 
      5 CA          0.9676  -13.9562  -49.2476 C.3       1 UNK         0.1400 
      6 C6          1.5841  -15.3213  -48.8367 C.3       23 UNK        -0.0398 
      7 S7          0.5658  -16.3342  -47.6998 S.3       23 UNK        -0.2404 
      8 C8         -0.5042  -17.2786  -48.8325 C.3       23 UNK        -0.0205 
      9 C9          0.2638  -18.1875  -49.7770 C.ar      23 UNK        -0.0193 
     10 C10         0.1768  -17.9836  -51.1546 C.ar      23 UNK        -0.1150 
     11 C11         0.7850  -18.8706  -52.0462 C.ar      23 UNK        -0.0193 
     12 C12         1.5238  -19.9459  -51.5457 C.ar      23 UNK        -0.1150 
     13 C13         1.6499  -20.1404  -50.1662 C.ar      23 UNK        -0.0193 
     14 C14         1.0141  -19.2590  -49.2855 C.ar      23 UNK        -0.1150 
     15 C15         2.4731  -21.3033  -49.6338 C.3       23 UNK        -0.0205 
     16 S16         1.4285  -22.7333  -49.2136 S.3       23 UNK        -0.2404 
     17 C17         0.7794  -22.2357  -47.5825 C.3       23 UNK        -0.0398 
     18 CA          0.4710  -23.4431  -46.6714 C.3       11 UNK         0.1400 
     19 N           0.4661  -23.0640  -45.2588 N.am      11 UNK        -0.5000 
     20 C           0.4743  -23.9314  -44.2389 C.2       10 UNK         0.5000 
     21 O           0.4617  -25.1534  -44.3827 O.2       10 UNK        -0.5000 
     22 CA          0.4526  -23.3296  -42.8243 C.3       10 UNK         0.1400 
     23 CB          1.8331  -22.7767  -42.4383 C.3       10 UNK        -0.1800 
     24 N          -0.5497  -22.2735  -42.6988 N.am      10 UNK        -0.5000 
     25 C          -1.8733  -22.4796  -42.7366 C.2       9 UNK         0.5000 
     26 O          -2.3939  -23.5906  -42.8404 O.2       9 UNK        -0.5000 
     27 CA         -2.7598  -21.2229  -42.6907 C.3       9 UNK         0.1400 
     28 CB         -2.9436  -20.7349  -41.2461 C.3       9 UNK        -0.1800 
     29 N          -2.2233  -20.1339  -43.5079 N.am      9 UNK        -0.5000 
     30 C          -2.1329  -20.1736  -44.8446 C.2       8 UNK         0.5000 
     31 O          -2.4856  -21.1321  -45.5269 O.2       8 UNK        -0.5000 
     32 CA         -1.4964  -18.9614  -45.5378 C.3       8 UNK         0.1400 
     33 CB         -2.5413  -17.8542  -45.7439 C.3       8 UNK        -0.1800 
     34 N          -0.3445  -18.4290  -44.8121 N.am      8 UNK        -0.5000 
     35 C           0.7863  -19.1141  -44.5817 C.2       7 UNK         0.5000 
     36 O           0.9675  -20.2715  -44.9583 O.2       7 UNK        -0.5000 
     37 CA          1.8932  -18.4150  -43.7712 C.3       7 UNK         0.1400 
     38 CB          2.9440  -17.8157  -44.7172 C.3       7 UNK        -0.1800 
     39 N           1.3973  -17.3658  -42.8812 N.am      7 UNK        -0.5000 
     40 C           0.5432  -17.5461  -41.8634 C.2       6 UNK         0.5000 
     41 O           0.1072  -18.6466  -41.5222 O.2       6 UNK        -0.5000 
     42 CA          0.0634  -16.2754  -41.1358 C.3       6 UNK         0.1400 
     43 CB          0.8767  -16.0514  -39.8527 C.3       6 UNK        -0.1800 
     44 N           0.1340  -15.0655  -41.9615 N.am      6 UNK        -0.5000 
     45 C          -0.5740  -14.8351  -43.0743 C.2       5 UNK         0.5000 
     46 O          -1.3643  -15.6476  -43.5538 O.2       5 UNK        -0.5000 
     47 CA         -0.3362  -13.4931  -43.7918 C.3       5 UNK         0.1400 
     48 CB         -0.8934  -12.3078  -42.9818 C.3       5 UNK        -0.1800 
     49 N           1.0571  -13.2646  -44.1909 N.am      5 UNK        -0.5000 
     50 C           2.1504  -13.0988  -43.4306 C.2       4 UNK         0.5000 
     51 O           2.1487  -13.1191  -42.1991 O.2       4 UNK        -0.5000 
     52 CA          3.4710  -12.8665  -44.1815 C.3       4 UNK         0.1400 
     53 CB          3.9977  -14.1867  -44.7661 C.3       4 UNK        -0.1800 
     54 N           3.2827  -11.9013  -45.2630 N.am      4 UNK        -0.5000 
     55 C           3.6179  -10.6053  -45.2025 C.2       3 UNK         0.5000 
     56 O           4.2096  -10.0929  -44.2515 O.2       3 UNK        -0.5000 
     57 CA          3.2175   -9.7234  -46.4041 C.3       3 UNK         0.1400 
     58 CB          4.3610   -9.6583  -47.4280 C.3       3 UNK        -0.1800 
     59 N           2.0017  -10.1862  -47.0761 N.am      3 UNK        -0.5000 
     60 C           0.7766  -10.1706  -46.5328 C.2       2 UNK         0.5000 
     61 O           0.5223   -9.6563  -45.4435 O.2       2 UNK        -0.5000 
     62 CA         -0.3548  -10.8643  -47.3189 C.3       2 UNK         0.1400 
     63 CB         -1.2347   -9.8224  -48.0259 C.3       2 UNK        -0.1800 
     64 N           0.0778  -11.8606  -48.3065 N.am      2 UNK        -0.5000 
     65 C           0.7983  -12.9657  -48.0695 C.2       1 UNK         0.5000 
     66 O           1.3134  -13.2061  -46.9765 O.2       1 UNK        -0.5000 
     67 C          -0.8219  -24.1780  -47.0836 C.2       11 UNK         0.5000 
     68 O          -0.7409  -25.1714  -47.8037 O.2       11 UNK        -0.5000 
     69 N          -1.9813  -23.7325  -46.5767 N.am      12 UNK        -0.5000 
     70 CA         -3.2747  -24.3842  -46.7933 C.3       12 UNK         0.1400 
     71 CB         -4.4096  -23.4774  -46.2962 C.3       12 UNK        -0.1800 
     72 C          -3.3735  -25.7806  -46.1525 C.2       12 UNK         0.5000 
     73 O          -4.0717  -26.6386  -46.6915 O.2       12 UNK        -0.5000 
     74 N          -2.6715  -25.9918  -45.0309 N.am      13 UNK        -0.5000 
     75 CA         -2.5491  -27.2952  -44.3806 C.3       13 UNK         0.1400 
     76 CB         -2.1201  -27.1035  -42.9176 C.3       13 UNK        -0.1800 
     77 C          -1.5699  -28.2193  -45.1284 C.2       13 UNK         0.5000 
     78 O          -1.8576  -29.4065  -45.2855 O.2       13 UNK        -0.5000 
     79 N          -0.4335  -27.6627  -45.5702 N.am      14 UNK        -0.5000 
     80 CA          0.6261  -28.3812  -46.2789 C.3       14 UNK         0.1400 
     81 CB          1.8995  -27.5212  -46.2894 C.3       14 UNK        -0.1800 
     82 C           0.2412  -28.7873  -47.7137 C.2       14 UNK         0.5000 
     83 O           0.5699  -29.8969  -48.1364 O.2       14 UNK        -0.5000 
     84 N          -0.4298  -27.8849  -48.4364 N.am      15 UNK        -0.5000 
     85 CA         -0.8257  -28.0436  -49.8298 C.3       15 UNK         0.1400 
     86 CB          0.3019  -27.5282  -50.7485 C.3       15 UNK        -0.1800 
     87 C          -2.1756  -27.3408  -50.0388 C.2       15 UNK         0.5000 
     88 O          -3.2123  -27.9296  -49.7303 O.2       15 UNK        -0.5000 
     89 N          -2.1484  -26.1068  -50.5521 N.am      16 UNK        -0.5000 
     90 CA         -3.3057  -25.2498  -50.7738 C.3       16 UNK         0.1400 
     91 CB         -4.0038  -25.6273  -52.0924 C.3       16 UNK        -0.1800 
     92 C          -2.8290  -23.7916  -50.8014 C.2       16 UNK         0.5000 
     93 O          -1.7396  -23.5192  -51.3101 O.2       16 UNK        -0.5000 
     94 N          -3.6646  -22.8894  -50.2815 N.am      17 UNK        -0.5000 
     95 CA         -3.4826  -21.4415  -50.2401 C.3       17 UNK         0.1400 
     96 CB         -2.3354  -21.0518  -49.2898 C.3       17 UNK        -0.1800 
     97 C          -4.8128  -20.8097  -49.8026 C.2       17 UNK         0.5000 
     98 O          -5.7490  -21.5412  -49.4660 O.2       17 UNK        -0.5000 
     99 N          -4.8757  -19.4705  -49.8277 N.am      18 UNK        -0.5000 
    100 CA        -6.0483  -18.6408  -49.5213 C.3       18 UNK         0.1400 
    101 CB        -6.4896  -18.8113  -48.0518 C.3       18 UNK        -0.1800 
    102 C         -7.2005  -18.8316  -50.5327 C.2       18 UNK         0.5000 
    103 O         -8.3709  -18.6732  -50.1808 O.2       18 UNK        -0.5000 
    104 N         -6.8409  -19.1540  -51.7795 N.am      19 UNK        -0.5000 
    105 CA        -7.7293  -19.3419  -52.9168 C.3       19 UNK         0.1400 
    106 CB        -8.2995  -20.7706  -52.9091 C.3       19 UNK        -0.1800 
    107 C         -6.9205  -19.0759  -54.1921 C.2       19 UNK         0.5000 
    108 O         -5.7186  -19.3612  -54.2195 O.2       19 UNK        -0.5000 
    109 N         -7.5941  -18.5369  -55.2176 N.am      20 UNK        -0.5000 
    110 CA        -7.0357  -18.1161  -56.5077 C.3       20 UNK         0.1400 
    111 CB        -6.6235  -19.3499  -57.3432 C.3       20 UNK        -0.1800 
    112 C         -5.9139  -17.0675  -56.3284 C.2       20 UNK         0.5000 
    113 O         -6.0598  -16.1622  -55.5026 O.2       20 UNK        -0.5000 
    114 N         -4.8070  -17.2117  -57.0699 N.am      21 UNK        -0.5000 
    115 CA        -3.6185  -16.3553  -56.9896 C.3       21 UNK         0.1400 
    116 CB        -2.6508  -16.7417  -58.1187 C.3       21 UNK        -0.1800 
    117 C         -2.9001  -16.4073  -55.6246 C.2       21 UNK         0.5000 
    118 O         -2.1917  -15.4610  -55.2796 O.2       21 UNK        -0.5000 
    119 N         -3.1087  -17.4957  -54.8742 N.am      22 UNK        -0.5000 
    120 CA        -2.6205  -17.6875  -53.5032 C.3       22 UNK         0.1400 
    121 C         -3.6124  -17.1975  -52.4083 C.2       22 UNK         0.5000 
    122 N         -4.7238  -16.5514  -52.7416 N.am      22 UNK        -0.7600 
    123 O         -3.3630  -17.4008  -51.2229 O.2       22 UNK        -0.5000 
    124 C124       -2.1756  -19.1531  -53.2593 C.3       23 UNK        -0.0398 
    125 S125       -0.7317  -19.6528  -54.2620 S.3       23 UNK        -0.2404 
    126 C126        0.6316  -18.6676  -53.5473 C.3       23 UNK        -0.0205 
    127 H127       -2.7712  -12.9374  -51.6288 H         1 UNK         0.0600 
    128 H128       -2.5184  -14.6072  -51.1204 H         1 UNK         0.0600 
    129 H129       -1.8669  -14.0479  -52.6641 H         1 UNK         0.0600 
    130 H130       -0.8068  -14.9590  -49.7420 H         1 UNK         0.3000 
    131 H131        1.6914  -13.4851  -49.9158 H         1 UNK         0.0600 
    132 H132        2.5506  -15.1604  -48.3561 H         1 UNK         0.0800 
    133 H133        1.8096  -15.9035  -49.7304 H         1 UNK         0.0800 
    134 H134       -1.1531  -16.6011  -49.3857 H         1 UNK         0.0800 
    135 H135       -1.1822  -17.8959  -48.2492 H         1 UNK         0.0800 
    136 H136       -0.3968  -17.1507  -51.5327 H         1 UNK         0.1150 
    137 H137        1.9964  -20.6345  -52.2319 H         1 UNK         0.1150 
    138 H138        1.0919  -19.4092  -48.2181 H         1 UNK         0.1150 
    139 H139        3.1998  -21.6164  -50.3848 H         1 UNK         0.0800 
    140 H140        3.0566  -20.9888  -48.7674 H         1 UNK         0.0800 
    141 H141       -0.0896  -21.5887  -47.6965 H         1 UNK         0.0800 
    142 H142        1.5453  -21.6221  -47.1082 H         1 UNK         0.0800 
    143 H143        1.2901  -24.1564  -46.7857 H         1 UNK         0.0600 
    144 H144        0.5055  -22.0671  -45.0589 H         1 UNK         0.3000 
    145 H145        0.1978  -24.1285  -42.1245 H         1 UNK         0.0600 
    146 H146        1.8362  -22.4070  -41.4128 H         1 UNK         0.0600 
    147 H147        2.5960  -23.5533  -42.5063 H         1 UNK         0.0600 
    148 H148        2.1400  -21.9577  -43.0897 H         1 UNK         0.0600 
    149 H149       -0.2116  -21.3241  -42.6345 H         1 UNK         0.3000 
    150 H150       -3.7407  -21.4931  -43.0878 H         1 UNK         0.0600 
    151 H151       -3.3607  -21.5234  -40.6183 H         1 UNK         0.0600 
    152 H152       -3.6277  -19.8874  -41.2005 H         1 UNK         0.0600 
    153 H153       -1.9971  -20.4260  -40.8004 H         1 UNK         0.0600 
    154 H154       -1.8615  -19.3274  -43.0183 H         1 UNK         0.3000 
    155 H155       -1.1415  -19.2988  -46.5125 H         1 UNK         0.0600 
    156 H156       -2.9846  -17.5385  -44.7987 H         1 UNK         0.0600 
    157 H157       -3.3508  -18.1997  -46.3878 H         1 UNK         0.0600 
    158 H158       -2.1048  -16.9721  -46.2117 H         1 UNK         0.0600 
    159 H159       -0.4334  -17.4871  -44.4517 H         1 UNK         0.3000 
    160 H160        2.3764  -19.1760  -43.1551 H         1 UNK         0.0600 
    161 H161        3.7888  -17.4086  -44.1619 H         1 UNK         0.0600 
    162 H162        2.5242  -17.0169  -45.3296 H         1 UNK         0.0600 
    163 H163        3.3383  -18.5741  -45.3950 H         1 UNK         0.0600 
    164 H164        1.6899  -16.4225  -43.0861 H         1 UNK         0.3000 
    165 H165       -0.9812  -16.4323  -40.8595 H         1 UNK         0.0600 
    166 H166        0.4918  -15.2039  -39.2851 H         1 UNK         0.0600 
    167 H167        0.8305  -16.9256  -39.2018 H         1 UNK         0.0600 
    168 H168        1.9277  -15.8588  -40.0721 H         1 UNK         0.0600 
    169 H169        0.8104  -14.3569  -41.6887 H         1 UNK         0.3000 
    170 H170       -0.8991  -13.5376  -44.7257 H         1 UNK         0.0600 
    171 H171       -1.9524  -12.4503  -42.7633 H         1 UNK         0.0600 
    172 H172       -0.3787  -12.1815  -42.0291 H         1 UNK         0.0600 
    173 H173       -0.7990  -11.3750  -43.5378 H         1 UNK         0.0600 
    174 H174        1.1966  -13.2685  -45.2000 H         1 UNK         0.3000 
    175 H175        4.2073  -12.4981  -43.4641 H         1 UNK         0.0600 
    176 H176        3.3093  -14.6120  -45.4977 H         1 UNK         0.0600 
    177 H177        4.9584  -14.0404  -45.2600 H         1 UNK         0.0600 
    178 H178        4.1464  -14.9281  -43.9804 H         1 UNK         0.0600 
    179 H179        2.7508  -12.2274  -46.0629 H         1 UNK         0.3000 
    180 H180        3.0356   -8.7141  -46.0287 H         1 UNK         0.0600 
    181 H181        4.5769  -10.6392  -47.8534 H         1 UNK         0.0600 
    182 H182        5.2784   -9.2920  -46.9655 H         1 UNK         0.0600 
    183 H183        4.1191   -8.9815  -48.2476 H         1 UNK         0.0600 
    184 H184        2.1159  -10.6174  -47.9812 H         1 UNK         0.3000 
    185 H185       -0.9710  -11.3878  -46.5851 H         1 UNK         0.0600 
    186 H186       -0.6816   -9.2915  -48.8018 H         1 UNK         0.0600 
    187 H187       -2.1028  -10.2893  -48.4918 H         1 UNK         0.0600 
    188 H188       -1.6077   -9.0787  -47.3203 H         1 UNK         0.0600 
    189 H189       -0.2574  -11.7297  -49.2541 H         1 UNK         0.3000 
    190 H190       -1.9963  -22.8791  -46.0233 H         1 UNK         0.3000 
    191 H191       -3.3996  -24.5151  -47.8674 H         1 UNK         0.0600 
    192 H192       -4.3094  -23.2565  -45.2327 H         1 UNK         0.0600 
    193 H193       -5.3822  -23.9479  -46.4454 H         1 UNK         0.0600 
    194 H194       -4.4239  -22.5313  -46.8378 H         1 UNK         0.0600 
    195 H195       -2.1460  -25.2268  -44.6285 H         1 UNK         0.3000 
    196 H196       -3.5290  -27.7775  -44.3784 H         1 UNK         0.0600 
    197 H197       -2.0516  -28.0626  -42.4030 H         1 UNK         0.0600 
    198 H198       -2.8409  -26.4926  -42.3737 H         1 UNK         0.0600 
    199 H199       -1.1471  -26.6187  -42.8381 H         1 UNK         0.0600 
    200 H200       -0.2470  -26.6906  -45.3422 H         1 UNK         0.3000 
    201 H201        0.8430  -29.2955  -45.7225 H         1 UNK         0.0600 
    202 H202        2.2263  -27.2875  -45.2759 H         1 UNK         0.0600 
    203 H203        1.7430  -26.5793  -46.8159 H         1 UNK         0.0600 
    204 H204        2.7197  -28.0424  -46.7844 H         1 UNK         0.0600 
    205 H205       -0.6482  -26.9786  -48.0244 H         1 UNK         0.3000 
    206 H206       -0.9902  -29.1006  -50.0497 H         1 UNK         0.0600 
    207 H207        0.0004  -27.5562  -51.7964 H         1 UNK         0.0600 
    208 H208        0.5890  -26.5036  -50.5076 H         1 UNK         0.0600 
    209 H209        1.1934  -28.1483  -50.6539 H         1 UNK         0.0600 
    210 H210       -1.2592  -25.6587  -50.7365 H         1 UNK         0.3000 
    211 H211       -4.0092  -25.3777  -49.9488 H         1 UNK         0.0600 
    212 H212       -3.3277  -25.5366  -52.9434 H         1 UNK         0.0600 
    213 H213       -4.8596  -24.9780  -52.2808 H         1 UNK         0.0600 
    214 H214       -4.3743  -26.6521  -52.0667 H         1 UNK         0.0600 
    215 H215       -4.5684  -23.1751  -49.9218 H         1 UNK         0.3000 
    216 H216       -3.2592  -21.0935  -51.2492 H         1 UNK         0.0600 
    217 H217       -2.2239  -19.9699  -49.2204 H         1 UNK         0.0600 
    218 H218       -1.3827  -21.4417  -49.6460 H         1 UNK         0.0600 
    219 H219       -2.5055  -21.4315  -48.2826 H         1 UNK         0.0600 
    220 H220       -4.0715  -18.9408  -50.1513 H         1 UNK         0.3000 
    221 H221       -5.7191  -17.6076  -49.6396 H         1 UNK         0.0600 
    222 H222       -6.9225  -19.7946  -47.8670 H         1 UNK         0.0600 
    223 H223       -5.6497  -18.6810  -47.3698 H         1 UNK         0.0600 
    224 H224       -7.2428  -18.0700  -47.7829 H         1 UNK         0.0600 
    225 H225       -5.8586  -19.2206  -52.0119 H         1 UNK         0.3000 
    226 H226       -8.5461  -18.6192  -52.8596 H         1 UNK         0.0600 
    227 H227       -8.9533  -20.9357  -53.7662 H         1 UNK         0.0600 
    228 H228       -7.5061  -21.5181  -52.9499 H         1 UNK         0.0600 
    229 H229       -8.8879  -20.9571  -52.0106 H         1 UNK         0.0600 
    230 H230       -8.5715  -18.3190  -55.0835 H         1 UNK         0.3000 
    231 H231       -7.8404  -17.6087  -57.0412 H         1 UNK         0.0600 
    232 H232       -7.4481  -20.0585  -57.4212 H         1 UNK         0.0600 
    233 H233       -5.7769  -19.8793  -56.9044 H         1 UNK         0.0600 
    234 H234       -6.3525  -19.0685  -58.3614 H         1 UNK         0.0600 
    235 H235       -4.7591  -17.9865  -57.7155 H         1 UNK         0.3000 
    236 H236       -3.9385  -15.3237  -57.1496 H         1 UNK         0.0600 
    237 H237       -3.1199  -16.6321  -59.0967 H         1 UNK         0.0600 
    238 H238       -1.7663  -16.1033  -58.1111 H         1 UNK         0.0600 
    239 H239       -2.3111  -17.7736  -58.0209 H         1 UNK         0.0600 
    240 H240       -3.7396  -18.2071  -55.2170 H         1 UNK         0.3000 
    241 H241       -1.7463  -17.0528  -53.3654 H         1 UNK         0.0600 
    242 H242       -4.9664  -16.3898  -53.7114 H         1 UNK         0.3800 
    243 H243       -5.3317  -16.2093  -52.0168 H         1 UNK         0.3800 
    244 H244       -1.9339  -19.3323  -52.2119 H         1 UNK         0.0800 
    245 H245       -2.9978  -19.8328  -53.4885 H         1 UNK         0.0800 
    246 H246        1.5602  -18.9462  -54.0475 H         1 UNK         0.0800 
    247 H247        0.4789  -17.6120  -53.7754 H         1 UNK         0.0800 
@<TRIPOS>BOND
     1    1    2 1    
     2    1  127 1    
     3    1  128 1    
     4    1  129 1    
     5    2    3 2    
     6    2    4 am   BACKBONE|DICT|INTERRES
     7    4    5 1    
     8    4  130 1    
     9    5    6 1    
    10    5   65 1    
    11    5  131 1    
    12    6    7 1    
    13    6  132 1    
    14    6  133 1    
    15    7    8 1    
    16    8    9 1    
    17    8  134 1    
    18    8  135 1    
    19    9   10 ar   
    20    9   14 ar   
    21   10   11 ar   
    22   10  136 1    
    23   11   12 ar   
    24   11  126 1    
    25   12   13 ar   
    26   12  137 1    
    27   13   14 ar   
    28   13   15 1    
    29   14  138 1    
    30   15   16 1    
    31   15  139 1    
    32   15  140 1    
    33   16   17 1    
    34   17   18 1    
    35   17  141 1    
    36   17  142 1    
    37   18   19 1    
    38   18   67 1    
    39   18  143 1    
    40   19   20 am   BACKBONE|DICT|INTERRES
    41   19  144 1    
    42   20   21 2    
    43   20   22 1    
    44   22   23 1    
    45   22   24 1    
    46   22  145 1    
    47   23  146 1    
    48   23  147 1    
    49   23  148 1    
    50   24   25 am   BACKBONE|DICT|INTERRES
    51   24  149 1    
    52   25   26 2    
    53   25   27 1    
    54   27   28 1    
    55   27   29 1    
    56   27  150 1    
    57   28  151 1    
    58   28  152 1    
    59   28  153 1    
    60   29   30 am   BACKBONE|DICT|INTERRES
    61   29  154 1    
    62   30   31 2    
    63   30   32 1    
    64   32   33 1    
    65   32   34 1    
    66   32  155 1    
    67   33  156 1    
    68   33  157 1    
    69   33  158 1    
    70   34   35 am   BACKBONE|DICT|INTERRES
    71   34  159 1    
    72   35   36 2    
    73   35   37 1    
    74   37   38 1    
    75   37   39 1    
    76   37  160 1    
    77   38  161 1    
    78   38  162 1    
    79   38  163 1    
    80   39   40 am   BACKBONE|DICT|INTERRES
    81   39  164 1    
    82   40   41 2    
    83   40   42 1    
    84   42   43 1    
    85   42   44 1    
    86   42  165 1    
    87   43  166 1    
    88   43  167 1    
    89   43  168 1    
    90   44   45 am   BACKBONE|DICT|INTERRES
    91   44  169 1    
    92   45   46 2    
    93   45   47 1    
    94   47   48 1    
    95   47   49 1    
    96   47  170 1    
    97   48  171 1    
    98   48  172 1    
    99   48  173 1    
   100   49   50 am   BACKBONE|DICT|INTERRES
   101   49  174 1    
   102   50   51 2    
   103   50   52 1    
   104   52   53 1    
   105   52   54 1    
   106   52  175 1    
   107   53  176 1    
   108   53  177 1    
   109   53  178 1    
   110   54   55 am   BACKBONE|DICT|INTERRES
   111   54  179 1    
   112   55   56 2    
   113   55   57 1    
   114   57   58 1    
   115   57   59 1    
   116   57  180 1    
   117   58  181 1    
   118   58  182 1    
   119   58  183 1    
   120   59   60 am   BACKBONE|DICT|INTERRES
   121   59  184 1    
   122   60   61 2    
   123   60   62 1    
   124   62   63 1    
   125   62   64 1    
   126   62  185 1    
   127   63  186 1    
   128   63  187 1    
   129   63  188 1    
   130   64   65 am   BACKBONE|DICT|INTERRES
   131   64  189 1    
   132   65   66 2    
   133   67   68 2    
   134   67   69 am   BACKBONE|DICT|INTERRES
   135   69   70 1    
   136   69  190 1    
   137   70   71 1    
   138   70   72 1    
   139   70  191 1    
   140   71  192 1    
   141   71  193 1    
   142   71  194 1    
   143   72   73 2    
   144   72   74 am   BACKBONE|DICT|INTERRES
   145   74   75 1    
   146   74  195 1    
   147   75   76 1    
   148   75   77 1    
   149   75  196 1    
   150   76  197 1    
   151   76  198 1    
   152   76  199 1    
   153   77   78 2    
   154   77   79 am   BACKBONE|DICT|INTERRES
   155   79   80 1    
   156   79  200 1    
   157   80   81 1    
   158   80   82 1    
   159   80  201 1    
   160   81  202 1    
   161   81  203 1    
   162   81  204 1    
   163   82   83 2    
   164   82   84 am   BACKBONE|DICT|INTERRES
   165   84   85 1    
   166   84  205 1    
   167   85   86 1    
   168   85   87 1    
   169   85  206 1    
   170   86  207 1    
   171   86  208 1    
   172   86  209 1    
   173   87   88 2    
   174   87   89 am   BACKBONE|DICT|INTERRES
   175   89   90 1    
   176   89  210 1    
   177   90   91 1    
   178   90   92 1    
   179   90  211 1    
   180   91  212 1    
   181   91  213 1    
   182   91  214 1    
   183   92   93 2    
   184   92   94 am   BACKBONE|DICT|INTERRES
   185   94   95 1    
   186   94  215 1    
   187   95   96 1    
   188   95   97 1    
   189   95  216 1    
   190   96  217 1    
   191   96  218 1    
   192   96  219 1    
   193   97   98 2    
   194   97   99 am   BACKBONE|DICT|INTERRES
   195   99  100 1    
   196   99  220 1    
   197  100  101 1    
   198  100  102 1    
   199  100  221 1    
   200  101  222 1    
   201  101  223 1    
   202  101  224 1    
   203  102  103 2    
   204  102  104 am   BACKBONE|DICT|INTERRES
   205  104  105 1    
   206  104  225 1    
   207  105  106 1    
   208  105  107 1    
   209  105  226 1    
   210  106  227 1    
   211  106  228 1    
   212  106  229 1    
   213  107  108 2    
   214  107  109 am   BACKBONE|DICT|INTERRES
   215  109  110 1    
   216  109  230 1    
   217  110  111 1    
   218  110  112 1    
   219  110  231 1    
   220  111  232 1    
   221  111  233 1    
   222  111  234 1    
   223  112  113 2    
   224  112  114 am   BACKBONE|DICT|INTERRES
   225  114  115 1    
   226  114  235 1    
   227  115  116 1    
   228  115  117 1    
   229  115  236 1    
   230  116  237 1    
   231  116  238 1    
   232  116  239 1    
   233  117  118 2    
   234  117  119 am   BACKBONE|DICT|INTERRES
   235  119  120 1    
   236  119  240 1    
   237  120  121 1    
   238  120  124 1    
   239  120  241 1    
   240  121  122 am   BACKBONE|DICT|INTERRES
   241  121  123 2    
   242  122  242 1    
   243  122  243 1    
   244  124  125 1    
   245  124  244 1    
   246  124  245 1    
   247  125  126 1    
   248  126  246 1    
   249  126  247 1    
@<TRIPOS>SUBSTRUCTURE
     1 UNK         1 GROUP             0       ****    0 ROOT    
