@<TRIPOS>MOLECULE
3R540
247   249    1
SMALL
USER_CHARGES


@<TRIPOS>ATOM
      1 CA         -4.7656  -14.0298  -48.7060 C.3       0 UNK        -0.1800 
      2 C          -3.5072  -13.2806  -49.1207 C.2       0 UNK         0.5000 
      3 O          -3.5995  -12.1758  -49.6549 O.2       0 UNK        -0.5000 
      4 N          -2.3336  -13.8793  -48.8778 N.am      1 UNK        -0.5000 
      5 CA         -1.0184  -13.3144  -49.2160 C.3       1 UNK         0.1400 
      6 C6          0.1019  -14.3851  -49.2123 C.3       23 UNK        -0.0398 
      7 S7         -0.2113  -15.7824  -50.3464 S.3       23 UNK        -0.2404 
      8 C8         -0.5758  -17.1017  -49.1502 C.3       23 UNK        -0.0205 
      9 C9         -0.7114  -18.4599  -49.8155 C.ar      23 UNK        -0.0193 
     10 C10        -1.8879  -18.8001  -50.4856 C.ar      23 UNK        -0.1150 
     11 C11        -2.0364  -20.0640  -51.0596 C.ar      23 UNK        -0.0193 
     12 C12        -1.0205  -21.0091  -50.9065 C.ar      23 UNK        -0.1150 
     13 C13         0.1623  -20.6891  -50.2319 C.ar      23 UNK        -0.0193 
     14 C14         0.3244  -19.3937  -49.7261 C.ar      23 UNK        -0.1150 
     15 C15         1.2321  -21.7719  -50.0940 C.3       23 UNK        -0.0205 
     16 S16         2.4120  -21.6157  -48.7033 S.3       23 UNK        -0.2404 
     17 C17         1.3799  -21.3111  -47.2294 C.3       23 UNK        -0.0398 
     18 CA          0.7054  -22.5534  -46.5977 C.3       11 UNK         0.1400 
     19 N           0.4543  -22.3261  -45.1696 N.am      11 UNK        -0.5000 
     20 C          -0.0894  -23.1968  -44.3086 C.2       10 UNK         0.5000 
     21 O          -0.4024  -24.3494  -44.6024 O.2       10 UNK        -0.5000 
     22 CA         -0.3849  -22.6694  -42.8916 C.3       10 UNK         0.1400 
     23 CB          0.8843  -22.6663  -42.0269 C.3       10 UNK        -0.1800 
     24 N          -0.9841  -21.3321  -42.9014 N.am      10 UNK        -0.5000 
     25 C          -2.1835  -21.0505  -43.4319 C.2       9 UNK         0.5000 
     26 O          -2.9226  -21.8972  -43.9305 O.2       9 UNK        -0.5000 
     27 CA         -2.6197  -19.5755  -43.4514 C.3       9 UNK         0.1400 
     28 CB         -3.1800  -19.1544  -42.0850 C.3       9 UNK        -0.1800 
     29 N          -1.5415  -18.6710  -43.8480 N.am      9 UNK        -0.5000 
     30 C          -0.9360  -18.6856  -45.0444 C.2       8 UNK         0.5000 
     31 O          -1.2542  -19.4388  -45.9643 O.2       8 UNK        -0.5000 
     32 CA          0.2681  -17.7417  -45.2206 C.3       8 UNK         0.1400 
     33 CB         -0.1950  -16.2995  -45.4793 C.3       8 UNK        -0.1800 
     34 N           1.1730  -17.7678  -44.0702 N.am      8 UNK        -0.5000 
     35 C           1.8163  -18.8575  -43.6260 C.2       7 UNK         0.5000 
     36 O           1.7602  -19.9574  -44.1730 O.2       7 UNK        -0.5000 
     37 CA          2.6051  -18.7097  -42.3159 C.3       7 UNK         0.1400 
     38 CB          3.9877  -18.0895  -42.5673 C.3       7 UNK        -0.1800 
     39 N           1.8674  -17.9125  -41.3370 N.am      7 UNK        -0.5000 
     40 C           0.7737  -18.3416  -40.6913 C.2       6 UNK         0.5000 
     41 O           0.3012  -19.4710  -40.8247 O.2       6 UNK        -0.5000 
     42 CA          0.0708  -17.3254  -39.7716 C.3       6 UNK         0.1400 
     43 CB          0.7471  -17.2835  -38.3933 C.3       6 UNK        -0.1800 
     44 N           0.0410  -15.9757  -40.3391 N.am      6 UNK        -0.5000 
     45 C          -0.6583  -15.6334  -41.4300 C.2       5 UNK         0.5000 
     46 O          -1.3792  -16.4142  -42.0489 O.2       5 UNK        -0.5000 
     47 CA         -0.4933  -14.1912  -41.9450 C.3       5 UNK         0.1400 
     48 CB         -1.5032  -13.2548  -41.2663 C.3       5 UNK        -0.1800 
     49 N           0.8551  -13.6406  -41.7885 N.am      5 UNK        -0.5000 
     50 C           1.9800  -14.1754  -42.2808 C.2       4 UNK         0.5000 
     51 O           2.0237  -15.2641  -42.8560 O.2       4 UNK        -0.5000 
     52 CA          3.2554  -13.3228  -42.1335 C.3       4 UNK         0.1400 
     53 CB          4.5394  -14.1570  -42.2876 C.3       4 UNK        -0.1800 
     54 N           3.2595  -12.2582  -43.1345 N.am      4 UNK        -0.5000 
     55 C           2.5069  -11.1516  -43.0879 C.2       3 UNK         0.5000 
     56 O           1.8230  -10.8354  -42.1116 O.2       3 UNK        -0.5000 
     57 CA          2.4703  -10.2611  -44.3474 C.3       3 UNK         0.1400 
     58 CB          3.5714  -10.5787  -45.3853 C.3       3 UNK        -0.1800 
     59 N           1.1436  -10.2902  -44.9746 N.am      3 UNK        -0.5000 
     60 C           0.4910  -11.3666  -45.4420 C.2       2 UNK         0.5000 
     61 O           0.9532  -12.5101  -45.4257 O.2       2 UNK        -0.5000 
     62 CA         -0.9334  -11.1442  -45.9995 C.3       2 UNK         0.1400 
     63 CB         -1.2404   -9.6832  -46.4008 C.3       2 UNK        -0.1800 
     64 N          -1.2339  -12.0666  -47.0997 N.am      2 UNK        -0.5000 
     65 C          -0.6158  -12.1431  -48.2899 C.2       1 UNK         0.5000 
     66 O           0.2512  -11.3534  -48.6679 O.2       1 UNK        -0.5000 
     67 C          -0.5913  -22.9237  -47.3491 C.2       11 UNK         0.5000 
     68 O          -0.6171  -23.9163  -48.0815 O.2       11 UNK        -0.5000 
     69 N          -1.6470  -22.1299  -47.1186 N.am      12 UNK        -0.5000 
     70 CA         -2.9819  -22.3180  -47.6790 C.3       12 UNK         0.1400 
     71 CB         -3.8419  -21.0865  -47.3582 C.3       12 UNK        -0.1800 
     72 C          -3.6613  -23.6069  -47.1835 C.2       12 UNK         0.5000 
     73 O          -4.2311  -24.3361  -47.9945 O.2       12 UNK        -0.5000 
     74 N          -3.5654  -23.8833  -45.8744 N.am      13 UNK        -0.5000 
     75 CA         -4.1071  -25.0823  -45.2286 C.3       13 UNK         0.1400 
     76 CB         -4.0093  -24.9380  -43.7025 C.3       13 UNK        -0.1800 
     77 C          -3.4212  -26.3790  -45.6939 C.2       13 UNK         0.5000 
     78 O          -4.1000  -27.3872  -45.8930 O.2       13 UNK        -0.5000 
     79 N          -2.0968  -26.3226  -45.8901 N.am      14 UNK        -0.5000 
     80 CA         -1.2951  -27.4031  -46.4677 C.3       14 UNK         0.1400 
     81 CB          0.1915  -27.1185  -46.2006 C.3       14 UNK        -0.1800 
     82 C          -1.5326  -27.5909  -47.9793 C.2       14 UNK         0.5000 
     83 O          -1.2136  -28.6566  -48.5078 O.2       14 UNK        -0.5000 
     84 N          -2.0641  -26.5502  -48.6394 N.am      15 UNK        -0.5000 
     85 CA         -2.2779  -26.4122  -50.0819 C.3       15 UNK         0.1400 
     86 CB         -3.3621  -27.3916  -50.5757 C.3       15 UNK        -0.1800 
     87 C          -0.9535  -26.5155  -50.8638 C.2       15 UNK         0.5000 
     88 O          -0.8825  -27.1931  -51.8908 O.2       15 UNK        -0.5000 
     89 N           0.0866  -25.8507  -50.3392 N.am      16 UNK        -0.5000 
     90 CA          1.4536  -25.8932  -50.8667 C.3       16 UNK         0.1400 
     91 CB          2.4289  -25.4472  -49.7665 C.3       16 UNK        -0.1800 
     92 C           1.6493  -25.0940  -52.1737 C.2       16 UNK         0.5000 
     93 O           2.6879  -25.2386  -52.8197 O.2       16 UNK        -0.5000 
     94 N           0.6477  -24.2959  -52.5573 N.am      17 UNK        -0.5000 
     95 CA          0.5181  -23.6410  -53.8524 C.3       17 UNK         0.1400 
     96 CB          1.2064  -22.2648  -53.8299 C.3       17 UNK        -0.1800 
     97 C          -0.9786  -23.5097  -54.1676 C.2       17 UNK         0.5000 
     98 O          -1.8086  -23.6153  -53.2603 O.2       17 UNK        -0.5000 
     99 N          -1.2901  -23.2522  -55.4410 N.am      18 UNK        -0.5000 
    100 CA        -2.6442  -23.0296  -55.9533 C.3       18 UNK         0.1400 
    101 CB        -2.9145  -24.0267  -57.0954 C.3       18 UNK        -0.1800 
    102 C         -2.8114  -21.5616  -56.3928 C.2       18 UNK         0.5000 
    103 O         -3.4044  -21.2885  -57.4384 O.2       18 UNK        -0.5000 
    104 N         -2.2478  -20.6404  -55.5993 N.am      19 UNK        -0.5000 
    105 CA        -2.2931  -19.1955  -55.8185 C.3       19 UNK         0.1400 
    106 CB        -1.3388  -18.5169  -54.8214 C.3       19 UNK        -0.1800 
    107 C         -3.7155  -18.6207  -55.6790 C.2       19 UNK         0.5000 
    108 O         -4.5351  -19.1667  -54.9352 O.2       19 UNK        -0.5000 
    109 N         -3.9599  -17.4873  -56.3524 N.am      20 UNK        -0.5000 
    110 CA        -5.2360  -16.7588  -56.3666 C.3       20 UNK         0.1400 
    111 CB        -5.1234  -15.5702  -57.3331 C.3       20 UNK        -0.1800 
    112 C         -5.7102  -16.2811  -54.9788 C.2       20 UNK         0.5000 
    113 O         -6.9123  -16.1128  -54.7710 O.2       20 UNK        -0.5000 
    114 N         -4.7652  -16.1315  -54.0407 N.am      21 UNK        -0.5000 
    115 CA        -4.9868  -15.8593  -52.6197 C.3       21 UNK         0.1400 
    116 CB        -3.6158  -15.7215  -51.9394 C.3       21 UNK        -0.1800 
    117 C         -5.8575  -16.9105  -51.8948 C.2       21 UNK         0.5000 
    118 O         -6.4930  -16.5709  -50.8962 O.2       21 UNK        -0.5000 
    119 N         -5.8941  -18.1449  -52.4155 N.am      22 UNK        -0.5000 
    120 CA        -6.7819  -19.2274  -51.9586 C.3       22 UNK         0.1400 
    121 C         -8.1519  -19.2623  -52.7017 C.2       22 UNK         0.5000 
    122 N         -8.4496  -18.3549  -53.6252 N.am      22 UNK        -0.7600 
    123 O         -8.9804  -20.1246  -52.4213 O.2       22 UNK        -0.5000 
    124 C124       -6.0722  -20.6070  -52.0064 C.3       23 UNK        -0.0398 
    125 S125       -4.7097  -20.7183  -50.7988 S.3       23 UNK        -0.2404 
    126 C126       -3.2813  -20.3895  -51.8666 C.3       23 UNK        -0.0205 
    127 H127       -5.2984  -13.4718  -47.9361 H         1 UNK         0.0600 
    128 H128       -4.5380  -15.0213  -48.3137 H         1 UNK         0.0600 
    129 H129       -5.4297  -14.1503  -49.5620 H         1 UNK         0.0600 
    130 H130       -2.3228  -14.7930  -48.4512 H         1 UNK         0.3000 
    131 H131       -1.0835  -12.9086  -50.2281 H         1 UNK         0.0600 
    132 H132        0.2700  -14.7593  -48.2010 H         1 UNK         0.0800 
    133 H133        1.0480  -13.9356  -49.5198 H         1 UNK         0.0800 
    134 H134        0.2165  -17.1370  -48.4014 H         1 UNK         0.0800 
    135 H135       -1.4992  -16.8693  -48.6187 H         1 UNK         0.0800 
    136 H136       -2.6904  -18.0820  -50.5602 H         1 UNK         0.1150 
    137 H137       -1.1485  -21.9974  -51.3228 H         1 UNK         0.1150 
    138 H138        1.2407  -19.1185  -49.2246 H         1 UNK         0.1150 
    139 H139        0.7466  -22.7440  -50.0206 H         1 UNK         0.0800 
    140 H140        1.8137  -21.7963  -51.0150 H         1 UNK         0.0800 
    141 H141        2.0800  -20.8862  -46.5110 H         1 UNK         0.0800 
    142 H142        0.6582  -20.5170  -47.4081 H         1 UNK         0.0800 
    143 H143        1.3892  -23.4016  -46.6687 H         1 UNK         0.0600 
    144 H144        0.7177  -21.4109  -44.8129 H         1 UNK         0.3000 
    145 H145       -1.1030  -23.3499  -42.4296 H         1 UNK         0.0600 
    146 H146        0.6637  -22.3566  -41.0052 H         1 UNK         0.0600 
    147 H147        1.3239  -23.6633  -41.9773 H         1 UNK         0.0600 
    148 H148        1.6439  -21.9926  -42.4228 H         1 UNK         0.0600 
    149 H149       -0.4476  -20.5860  -42.4734 H         1 UNK         0.3000 
    150 H150       -3.4195  -19.4780  -44.1883 H         1 UNK         0.0600 
    151 H151       -3.9887  -19.8165  -41.7731 H         1 UNK         0.0600 
    152 H152       -3.5842  -18.1427  -42.1206 H         1 UNK         0.0600 
    153 H153       -2.4146  -19.1813  -41.3091 H         1 UNK         0.0600 
    154 H154       -1.2582  -17.9772  -43.1617 H         1 UNK         0.3000 
    155 H155        0.8313  -18.0824  -46.0917 H         1 UNK         0.0600 
    156 H156       -0.7384  -15.8945  -44.6275 H         1 UNK         0.0600 
    157 H157       -0.8636  -16.2478  -46.3377 H         1 UNK         0.0600 
    158 H158        0.6504  -15.6404  -45.6790 H         1 UNK         0.0600 
    159 H159        1.3168  -16.8902  -43.5773 H         1 UNK         0.3000 
    160 H160        2.7561  -19.7082  -41.8999 H         1 UNK         0.0600 
    161 H161        3.9154  -17.1026  -43.0237 H         1 UNK         0.0600 
    162 H162        4.5753  -18.7157  -43.2397 H         1 UNK         0.0600 
    163 H163        4.5514  -17.9904  -41.6396 H         1 UNK         0.0600 
    164 H164        2.1435  -16.9458  -41.2409 H         1 UNK         0.3000 
    165 H165       -0.9601  -17.6593  -39.6351 H         1 UNK         0.0600 
    166 H166        1.7772  -16.9310  -38.4588 H         1 UNK         0.0600 
    167 H167        0.2094  -16.6257  -37.7103 H         1 UNK         0.0600 
    168 H168        0.7675  -18.2751  -37.9391 H         1 UNK         0.0600 
    169 H169        0.6111  -15.2735  -39.8912 H         1 UNK         0.3000 
    170 H170       -0.7109  -14.1987  -43.0143 H         1 UNK         0.0600 
    171 H171       -2.5224  -13.6240  -41.3887 H         1 UNK         0.0600 
    172 H172       -1.3120  -13.1646  -40.1963 H         1 UNK         0.0600 
    173 H173       -1.4667  -12.2551  -41.6998 H         1 UNK         0.0600 
    174 H174        0.9170  -12.7081  -41.3982 H         1 UNK         0.3000 
    175 H175        3.2589  -12.8814  -41.1346 H         1 UNK         0.0600 
    176 H176        4.5660  -14.9700  -41.5609 H         1 UNK         0.0600 
    177 H177        4.6184  -14.6006  -43.2811 H         1 UNK         0.0600 
    178 H178        5.4271  -13.5461  -42.1235 H         1 UNK         0.0600 
    179 H179        3.7406  -12.4639  -43.9980 H         1 UNK         0.3000 
    180 H180        2.6305   -9.2387  -44.0018 H         1 UNK         0.0600 
    181 H181        3.5437   -9.8642  -46.2081 H         1 UNK         0.0600 
    182 H182        4.5642  -10.5119  -44.9382 H         1 UNK         0.0600 
    183 H183        3.4651  -11.5750  -45.8157 H         1 UNK         0.0600 
    184 H184        0.6649   -9.4014  -45.0079 H         1 UNK         0.3000 
    185 H185       -1.6149  -11.4113  -45.1906 H         1 UNK         0.0600 
    186 H186       -2.2327   -9.6013  -46.8451 H         1 UNK         0.0600 
    187 H187       -1.2272   -9.0220  -45.5338 H         1 UNK         0.0600 
    188 H188       -0.5216   -9.2972  -47.1246 H         1 UNK         0.0600 
    189 H189       -1.9165  -12.7803  -46.8911 H         1 UNK         0.3000 
    190 H190       -1.5219  -21.3098  -46.5320 H         1 UNK         0.3000 
    191 H191       -2.8804  -22.3895  -48.7640 H         1 UNK         0.0600 
    192 H192       -4.8524  -21.2009  -47.7519 H         1 UNK         0.0600 
    193 H193       -3.4177  -20.1871  -47.8059 H         1 UNK         0.0600 
    194 H194       -3.9251  -20.9183  -46.2846 H         1 UNK         0.0600 
    195 H195       -3.1258  -23.2013  -45.2605 H         1 UNK         0.3000 
    196 H196       -5.1636  -25.1539  -45.4947 H         1 UNK         0.0600 
    197 H197       -4.4142  -25.8168  -43.1990 H         1 UNK         0.0600 
    198 H198       -4.5740  -24.0741  -43.3517 H         1 UNK         0.0600 
    199 H199       -2.9759  -24.8180  -43.3759 H         1 UNK         0.0600 
    200 H200       -1.5959  -25.4762  -45.6320 H         1 UNK         0.3000 
    201 H201       -1.5619  -28.3377  -45.9701 H         1 UNK         0.0600 
    202 H202        0.5106  -26.1845  -46.6654 H         1 UNK         0.0600 
    203 H203        0.8220  -27.9152  -46.5975 H         1 UNK         0.0600 
    204 H204        0.3933  -27.0463  -45.1318 H         1 UNK         0.0600 
    205 H205       -2.2670  -25.7197  -48.0985 H         1 UNK         0.3000 
    206 H206       -2.6497  -25.3988  -50.2414 H         1 UNK         0.0600 
    207 H207       -4.2823  -27.2788  -50.0021 H         1 UNK         0.0600 
    208 H208       -3.6069  -27.2053  -51.6220 H         1 UNK         0.0600 
    209 H209       -3.0407  -28.4303  -50.4948 H         1 UNK         0.0600 
    210 H210       -0.0671  -25.2990  -49.5002 H         1 UNK         0.3000 
    211 H211        1.6873  -26.9328  -51.1058 H         1 UNK         0.0600 
    212 H212        2.2028  -24.4471  -49.4043 H         1 UNK         0.0600 
    213 H213        3.4581  -25.4425  -50.1278 H         1 UNK         0.0600 
    214 H214        2.3888  -26.1234  -48.9123 H         1 UNK         0.0600 
    215 H215       -0.2027  -24.2847  -52.0088 H         1 UNK         0.3000 
    216 H216        0.9756  -24.2678  -54.6209 H         1 UNK         0.0600 
    217 H217        1.1951  -21.8062  -54.8191 H         1 UNK         0.0600 
    218 H218        2.2498  -22.3476  -53.5255 H         1 UNK         0.0600 
    219 H219        0.7103  -21.5744  -53.1483 H         1 UNK         0.0600 
    220 H220       -0.5443  -23.1466  -56.1150 H         1 UNK         0.3000 
    221 H221       -3.3870  -23.2072  -55.1729 H         1 UNK         0.0600 
    222 H222       -2.2359  -23.8712  -57.9350 H         1 UNK         0.0600 
    223 H223       -2.7954  -25.0553  -56.7544 H         1 UNK         0.0600 
    224 H224       -3.9337  -23.9279  -57.4711 H         1 UNK         0.0600 
    225 H225       -1.7929  -20.9538  -54.7561 H         1 UNK         0.3000 
    226 H226       -1.9379  -18.9983  -56.8322 H         1 UNK         0.0600 
    227 H227       -0.3203  -18.8892  -54.9347 H         1 UNK         0.0600 
    228 H228       -1.3059  -17.4382  -54.9789 H         1 UNK         0.0600 
    229 H229       -1.6410  -18.6861  -53.7878 H         1 UNK         0.0600 
    230 H230       -3.2248  -17.0976  -56.9252 H         1 UNK         0.3000 
    231 H231       -5.9983  -17.4408  -56.7489 H         1 UNK         0.0600 
    232 H232       -6.0644  -15.0209  -57.3892 H         1 UNK         0.0600 
    233 H233       -4.8838  -15.9033  -58.3431 H         1 UNK         0.0600 
    234 H234       -4.3513  -14.8673  -57.0177 H         1 UNK         0.0600 
    235 H235       -3.8082  -16.2882  -54.3185 H         1 UNK         0.3000 
    236 H236       -5.5093  -14.9040  -52.5383 H         1 UNK         0.0600 
    237 H237       -2.9485  -16.5389  -52.2127 H         1 UNK         0.0600 
    238 H238       -3.1279  -14.7890  -52.2236 H         1 UNK         0.0600 
    239 H239       -3.7040  -15.7230  -50.8532 H         1 UNK         0.0600 
    240 H240       -5.3645  -18.3429  -53.2577 H         1 UNK         0.3000 
    241 H241       -7.0421  -19.0437  -50.9145 H         1 UNK         0.0600 
    242 H242       -7.8061  -17.6101  -53.8706 H         1 UNK         0.3800 
    243 H243       -9.3471  -18.3995  -54.0812 H         1 UNK         0.3800 
    244 H244       -5.7060  -20.8223  -53.0116 H         1 UNK         0.0800 
    245 H245       -6.7695  -21.4100  -51.7615 H         1 UNK         0.0800 
    246 H246       -3.5030  -19.5461  -52.5188 H         1 UNK         0.0800 
    247 H247       -3.1119  -21.2487  -52.5173 H         1 UNK         0.0800 
@<TRIPOS>BOND
     1    1    2 1    
     2    1  127 1    
     3    1  128 1    
     4    1  129 1    
     5    2    3 2    
     6    2    4 am   BACKBONE|DICT|INTERRES
     7    4    5 1    
     8    4  130 1    
     9    5    6 1    
    10    5   65 1    
    11    5  131 1    
    12    6    7 1    
    13    6  132 1    
    14    6  133 1    
    15    7    8 1    
    16    8    9 1    
    17    8  134 1    
    18    8  135 1    
    19    9   10 ar   
    20    9   14 ar   
    21   10   11 ar   
    22   10  136 1    
    23   11   12 ar   
    24   11  126 1    
    25   12   13 ar   
    26   12  137 1    
    27   13   14 ar   
    28   13   15 1    
    29   14  138 1    
    30   15   16 1    
    31   15  139 1    
    32   15  140 1    
    33   16   17 1    
    34   17   18 1    
    35   17  141 1    
    36   17  142 1    
    37   18   19 1    
    38   18   67 1    
    39   18  143 1    
    40   19   20 am   BACKBONE|DICT|INTERRES
    41   19  144 1    
    42   20   21 2    
    43   20   22 1    
    44   22   23 1    
    45   22   24 1    
    46   22  145 1    
    47   23  146 1    
    48   23  147 1    
    49   23  148 1    
    50   24   25 am   BACKBONE|DICT|INTERRES
    51   24  149 1    
    52   25   26 2    
    53   25   27 1    
    54   27   28 1    
    55   27   29 1    
    56   27  150 1    
    57   28  151 1    
    58   28  152 1    
    59   28  153 1    
    60   29   30 am   BACKBONE|DICT|INTERRES
    61   29  154 1    
    62   30   31 2    
    63   30   32 1    
    64   32   33 1    
    65   32   34 1    
    66   32  155 1    
    67   33  156 1    
    68   33  157 1    
    69   33  158 1    
    70   34   35 am   BACKBONE|DICT|INTERRES
    71   34  159 1    
    72   35   36 2    
    73   35   37 1    
    74   37   38 1    
    75   37   39 1    
    76   37  160 1    
    77   38  161 1    
    78   38  162 1    
    79   38  163 1    
    80   39   40 am   BACKBONE|DICT|INTERRES
    81   39  164 1    
    82   40   41 2    
    83   40   42 1    
    84   42   43 1    
    85   42   44 1    
    86   42  165 1    
    87   43  166 1    
    88   43  167 1    
    89   43  168 1    
    90   44   45 am   BACKBONE|DICT|INTERRES
    91   44  169 1    
    92   45   46 2    
    93   45   47 1    
    94   47   48 1    
    95   47   49 1    
    96   47  170 1    
    97   48  171 1    
    98   48  172 1    
    99   48  173 1    
   100   49   50 am   BACKBONE|DICT|INTERRES
   101   49  174 1    
   102   50   51 2    
   103   50   52 1    
   104   52   53 1    
   105   52   54 1    
   106   52  175 1    
   107   53  176 1    
   108   53  177 1    
   109   53  178 1    
   110   54   55 am   BACKBONE|DICT|INTERRES
   111   54  179 1    
   112   55   56 2    
   113   55   57 1    
   114   57   58 1    
   115   57   59 1    
   116   57  180 1    
   117   58  181 1    
   118   58  182 1    
   119   58  183 1    
   120   59   60 am   BACKBONE|DICT|INTERRES
   121   59  184 1    
   122   60   61 2    
   123   60   62 1    
   124   62   63 1    
   125   62   64 1    
   126   62  185 1    
   127   63  186 1    
   128   63  187 1    
   129   63  188 1    
   130   64   65 am   BACKBONE|DICT|INTERRES
   131   64  189 1    
   132   65   66 2    
   133   67   68 2    
   134   67   69 am   BACKBONE|DICT|INTERRES
   135   69   70 1    
   136   69  190 1    
   137   70   71 1    
   138   70   72 1    
   139   70  191 1    
   140   71  192 1    
   141   71  193 1    
   142   71  194 1    
   143   72   73 2    
   144   72   74 am   BACKBONE|DICT|INTERRES
   145   74   75 1    
   146   74  195 1    
   147   75   76 1    
   148   75   77 1    
   149   75  196 1    
   150   76  197 1    
   151   76  198 1    
   152   76  199 1    
   153   77   78 2    
   154   77   79 am   BACKBONE|DICT|INTERRES
   155   79   80 1    
   156   79  200 1    
   157   80   81 1    
   158   80   82 1    
   159   80  201 1    
   160   81  202 1    
   161   81  203 1    
   162   81  204 1    
   163   82   83 2    
   164   82   84 am   BACKBONE|DICT|INTERRES
   165   84   85 1    
   166   84  205 1    
   167   85   86 1    
   168   85   87 1    
   169   85  206 1    
   170   86  207 1    
   171   86  208 1    
   172   86  209 1    
   173   87   88 2    
   174   87   89 am   BACKBONE|DICT|INTERRES
   175   89   90 1    
   176   89  210 1    
   177   90   91 1    
   178   90   92 1    
   179   90  211 1    
   180   91  212 1    
   181   91  213 1    
   182   91  214 1    
   183   92   93 2    
   184   92   94 am   BACKBONE|DICT|INTERRES
   185   94   95 1    
   186   94  215 1    
   187   95   96 1    
   188   95   97 1    
   189   95  216 1    
   190   96  217 1    
   191   96  218 1    
   192   96  219 1    
   193   97   98 2    
   194   97   99 am   BACKBONE|DICT|INTERRES
   195   99  100 1    
   196   99  220 1    
   197  100  101 1    
   198  100  102 1    
   199  100  221 1    
   200  101  222 1    
   201  101  223 1    
   202  101  224 1    
   203  102  103 2    
   204  102  104 am   BACKBONE|DICT|INTERRES
   205  104  105 1    
   206  104  225 1    
   207  105  106 1    
   208  105  107 1    
   209  105  226 1    
   210  106  227 1    
   211  106  228 1    
   212  106  229 1    
   213  107  108 2    
   214  107  109 am   BACKBONE|DICT|INTERRES
   215  109  110 1    
   216  109  230 1    
   217  110  111 1    
   218  110  112 1    
   219  110  231 1    
   220  111  232 1    
   221  111  233 1    
   222  111  234 1    
   223  112  113 2    
   224  112  114 am   BACKBONE|DICT|INTERRES
   225  114  115 1    
   226  114  235 1    
   227  115  116 1    
   228  115  117 1    
   229  115  236 1    
   230  116  237 1    
   231  116  238 1    
   232  116  239 1    
   233  117  118 2    
   234  117  119 am   BACKBONE|DICT|INTERRES
   235  119  120 1    
   236  119  240 1    
   237  120  121 1    
   238  120  124 1    
   239  120  241 1    
   240  121  122 am   BACKBONE|DICT|INTERRES
   241  121  123 2    
   242  122  242 1    
   243  122  243 1    
   244  124  125 1    
   245  124  244 1    
   246  124  245 1    
   247  125  126 1    
   248  126  246 1    
   249  126  247 1    
@<TRIPOS>SUBSTRUCTURE
     1 UNK         1 GROUP             0       ****    0 ROOT    
