@<TRIPOS>MOLECULE
3R540
247   249    1
SMALL
USER_CHARGES


@<TRIPOS>ATOM
      1 CA          2.4429  -15.9173  -50.3427 C.3       0 UNK        -0.1800 
      2 C           2.6429  -15.5573  -48.8778 C.2       0 UNK         0.5000 
      3 O           3.7096  -15.0702  -48.5050 O.2       0 UNK        -0.5000 
      4 N           1.6157  -15.7813  -48.0505 N.am      1 UNK        -0.5000 
      5 CA          1.6144  -15.5244  -46.6048 C.3       1 UNK         0.1400 
      6 C6          0.7441  -16.5576  -45.8489 C.3       23 UNK        -0.0398 
      7 S7         -1.0051  -16.6101  -46.3843 S.3       23 UNK        -0.2404 
      8 C8         -1.1950  -18.3417  -46.9086 C.3       23 UNK        -0.0205 
      9 C9         -0.4334  -18.6365  -48.1902 C.ar      23 UNK        -0.0193 
     10 C10        -0.9880  -18.2935  -49.4253 C.ar      23 UNK        -0.1150 
     11 C11        -0.3017  -18.5629  -50.6127 C.ar      23 UNK        -0.0193 
     12 C12         0.9607  -19.1615  -50.5550 C.ar      23 UNK        -0.1150 
     13 C13         1.5312  -19.4982  -49.3241 C.ar      23 UNK        -0.0193 
     14 C14         0.8221  -19.2492  -48.1459 C.ar      23 UNK        -0.1150 
     15 C15         2.9188  -20.1152  -49.2658 C.3       23 UNK        -0.0205 
     16 S16         2.8492  -21.9123  -49.5123 S.3       23 UNK        -0.2404 
     17 C17         4.5613  -22.3971  -49.0984 C.3       23 UNK        -0.0398 
     18 CA          4.7026  -23.0822  -47.7114 C.3       11 UNK         0.1400 
     19 N           4.3689  -22.1815  -46.6002 N.am      11 UNK        -0.5000 
     20 C           5.2234  -21.2894  -46.0801 C.2       10 UNK         0.5000 
     21 O           6.3677  -21.1178  -46.5023 O.2       10 UNK        -0.5000 
     22 CA          4.7377  -20.4501  -44.8798 C.3       10 UNK         0.1400 
     23 CB          4.1621  -19.1112  -45.3627 C.3       10 UNK        -0.1800 
     24 N           3.7404  -21.1206  -44.0435 N.am      10 UNK        -0.5000 
     25 C           3.9272  -22.2744  -43.3833 C.2       9 UNK         0.5000 
     26 O           4.9991  -22.8799  -43.3659 O.2       9 UNK        -0.5000 
     27 CA          2.7204  -22.8808  -42.6343 C.3       9 UNK         0.1400 
     28 CB          2.9054  -22.7350  -41.1159 C.3       9 UNK        -0.1800 
     29 N           1.4222  -22.3109  -42.9982 N.am      9 UNK        -0.5000 
     30 C           0.8611  -22.3112  -44.2150 C.2       8 UNK         0.5000 
     31 O           1.3698  -22.8392  -45.2047 O.2       8 UNK        -0.5000 
     32 CA         -0.4563  -21.5262  -44.3618 C.3       8 UNK         0.1400 
     33 CB         -1.6627  -22.4682  -44.2537 C.3       8 UNK        -0.1800 
     34 N          -0.6077  -20.4310  -43.3942 N.am      8 UNK        -0.5000 
     35 C           0.2215  -19.3822  -43.2917 C.2       7 UNK         0.5000 
     36 O           1.1931  -19.2291  -44.0341 O.2       7 UNK        -0.5000 
     37 CA         -0.1038  -18.3536  -42.1857 C.3       7 UNK         0.1400 
     38 CB         -0.2070  -19.0162  -40.7954 C.3       7 UNK        -0.1800 
     39 N           0.8276  -17.2190  -42.1481 N.am      7 UNK        -0.5000 
     40 C           2.1433  -17.2262  -41.8769 C.2       6 UNK         0.5000 
     41 O           2.7752  -18.2247  -41.5295 O.2       6 UNK        -0.5000 
     42 CA          2.8876  -15.8825  -42.0214 C.3       6 UNK         0.1400 
     43 CB          3.8457  -15.9149  -43.2204 C.3       6 UNK        -0.1800 
     44 N           1.9785  -14.7428  -42.1778 N.am      6 UNK        -0.5000 
     45 C           1.4760  -14.0411  -41.1532 C.2       5 UNK         0.5000 
     46 O           1.7345  -14.2658  -39.9703 O.2       5 UNK        -0.5000 
     47 CA          0.5023  -12.9109  -41.5180 C.3       5 UNK         0.1400 
     48 CB          1.2627  -11.6736  -42.0200 C.3       5 UNK        -0.1800 
     49 N          -0.4591  -13.3288  -42.5355 N.am      5 UNK        -0.5000 
     50 C          -1.5169  -14.1200  -42.3120 C.2       4 UNK         0.5000 
     51 O          -1.7590  -14.6370  -41.2207 O.2       4 UNK        -0.5000 
     52 CA         -2.4557  -14.3671  -43.5136 C.3       4 UNK         0.1400 
     53 CB         -3.8682  -14.8214  -43.0930 C.3       4 UNK        -0.1800 
     54 N          -2.5274  -13.2243  -44.4324 N.am      4 UNK        -0.5000 
     55 C          -2.9163  -11.9697  -44.1560 C.2       3 UNK         0.5000 
     56 O          -3.3551  -11.6151  -43.0605 O.2       3 UNK        -0.5000 
     57 CA         -2.7351  -10.9341  -45.2899 C.3       3 UNK         0.1400 
     58 CB         -3.0212   -9.4925  -44.8310 C.3       3 UNK        -0.1800 
     59 N          -1.3849  -10.9831  -45.8609 N.am      3 UNK        -0.5000 
     60 C          -0.9557  -11.8855  -46.7514 C.2       2 UNK         0.5000 
     61 O          -1.6880  -12.7588  -47.2222 O.2       2 UNK        -0.5000 
     62 CA          0.5288  -11.8438  -47.1697 C.3       2 UNK         0.1400 
     63 CB          1.4156  -10.9235  -46.3000 C.3       2 UNK        -0.1800 
     64 N           1.0761  -13.2016  -47.2404 N.am      2 UNK        -0.5000 
     65 C           1.2282  -14.0739  -46.2318 C.2       1 UNK         0.5000 
     66 O           1.0527  -13.7886  -45.0434 O.2       1 UNK        -0.5000 
     67 C           3.9653  -24.4383  -47.6277 C.2       11 UNK         0.5000 
     68 O           4.0531  -25.2215  -48.5746 O.2       11 UNK        -0.5000 
     69 N           3.2519  -24.6940  -46.5179 N.am      12 UNK        -0.5000 
     70 CA          2.3072  -25.8009  -46.3113 C.3       12 UNK         0.1400 
     71 CB          3.0249  -27.1672  -46.3064 C.3       12 UNK        -0.1800 
     72 C           1.1286  -25.7207  -47.3058 C.2       12 UNK         0.5000 
     73 O           0.8014  -26.6994  -47.9803 O.2       12 UNK        -0.5000 
     74 N           0.5477  -24.5185  -47.3979 N.am      13 UNK        -0.5000 
     75 CA         -0.5387  -24.1595  -48.3047 C.3       13 UNK         0.1400 
     76 CB         -0.7256  -22.6332  -48.2576 C.3       13 UNK        -0.1800 
     77 C          -1.8682  -24.8473  -47.9492 C.2       13 UNK         0.5000 
     78 O          -2.1108  -25.1751  -46.7851 O.2       13 UNK        -0.5000 
     79 N          -2.7390  -24.9744  -48.9563 N.am      14 UNK        -0.5000 
     80 CA         -4.1623  -25.2623  -48.7760 C.3       14 UNK         0.1400 
     81 CB         -4.7646  -25.7445  -50.1051 C.3       14 UNK        -0.1800 
     82 C          -4.9027  -24.0135  -48.2614 C.2       14 UNK         0.5000 
     83 O          -5.7444  -24.1287  -47.3705 O.2       14 UNK        -0.5000 
     84 N          -4.5312  -22.8481  -48.8184 N.am      15 UNK        -0.5000 
     85 CA         -4.9615  -21.4934  -48.4541 C.3       15 UNK         0.1400 
     86 CB         -4.3033  -21.0752  -47.1225 C.3       15 UNK        -0.1800 
     87 C          -6.4934  -21.2978  -48.4577 C.2       15 UNK         0.5000 
     88 O          -7.0307  -20.6154  -47.5830 O.2       15 UNK        -0.5000 
     89 N          -7.1758  -21.9019  -49.4409 N.am      16 UNK        -0.5000 
     90 CA         -8.6284  -21.8007  -49.6084 C.3       16 UNK         0.1400 
     91 CB         -9.1167  -22.9548  -50.4971 C.3       16 UNK        -0.1800 
     92 C          -9.0613  -20.4339  -50.1752 C.2       16 UNK         0.5000 
     93 O         -10.1620  -19.9692  -49.8770 O.2       16 UNK        -0.5000 
     94 N          -8.1690  -19.8134  -50.9519 N.am      17 UNK        -0.5000 
     95 CA         -8.2331  -18.4729  -51.5225 C.3       17 UNK         0.1400 
     96 CB         -9.3653  -18.3524  -52.5676 C.3       17 UNK        -0.1800 
     97 C          -6.8375  -18.1703  -52.1018 C.2       17 UNK         0.5000 
     98 O          -5.8924  -18.9099  -51.8162 O.2       17 UNK        -0.5000 
     99 N          -6.7225  -17.1009  -52.8958 N.am      18 UNK        -0.5000 
    100 CA        -5.4948  -16.7130  -53.5933 C.3       18 UNK         0.1400 
    101 CB        -5.6111  -15.2280  -53.9775 C.3       18 UNK        -0.1800 
    102 C         -5.2224  -17.5762  -54.8443 C.2       18 UNK         0.5000 
    103 O         -6.1088  -18.2943  -55.3148 O.2       18 UNK        -0.5000 
    104 N         -4.0053  -17.4381  -55.3895 N.am      19 UNK        -0.5000 
    105 CA        -3.5043  -18.0738  -56.6128 C.3       19 UNK         0.1400 
    106 CB        -4.2594  -17.5440  -57.8537 C.3       19 UNK        -0.1800 
    107 C         -3.4729  -19.6113  -56.4924 C.2       19 UNK         0.5000 
    108 O         -2.8513  -20.1234  -55.5617 O.2       19 UNK        -0.5000 
    109 N         -4.1266  -20.3292  -57.4170 N.am      20 UNK        -0.5000 
    110 CA        -4.1742  -21.7953  -57.4664 C.3       20 UNK         0.1400 
    111 CB        -4.9250  -22.2311  -58.7336 C.3       20 UNK        -0.1800 
    112 C         -4.8033  -22.4437  -56.2170 C.2       20 UNK         0.5000 
    113 O         -4.4190  -23.5538  -55.8458 O.2       20 UNK        -0.5000 
    114 N         -5.7195  -21.7202  -55.5598 N.am      21 UNK        -0.5000 
    115 CA        -6.3735  -22.1220  -54.3141 C.3       21 UNK         0.1400 
    116 CB        -7.6229  -21.2580  -54.1196 C.3       21 UNK        -0.1800 
    117 C         -5.4493  -22.0861  -53.0765 C.2       21 UNK         0.5000 
    118 O         -5.8518  -22.5691  -52.0151 O.2       21 UNK        -0.5000 
    119 N         -4.2220  -21.5662  -53.2273 N.am      22 UNK        -0.5000 
    120 CA        -3.1276  -21.7690  -52.2679 C.3       22 UNK         0.1400 
    121 C         -2.5811  -23.2268  -52.2631 C.2       22 UNK         0.5000 
    122 N         -2.8221  -24.0471  -53.2801 N.am      22 UNK        -0.7600 
    123 O         -1.9530  -23.6344  -51.2928 O.2       22 UNK        -0.5000 
    124 C124       -1.9653  -20.7613  -52.4525 C.3       23 UNK        -0.0398 
    125 S125       -2.4984  -19.0269  -52.2637 S.3       23 UNK        -0.2404 
    126 C126       -0.9137  -18.1845  -51.9545 C.3       23 UNK        -0.0205 
    127 H127        2.7618  -15.0938  -50.9815 H         1 UNK         0.0600 
    128 H128        1.3976  -16.1314  -50.5655 H         1 UNK         0.0600 
    129 H129        3.0341  -16.7972  -50.5961 H         1 UNK         0.0600 
    130 H130        0.7636  -16.1908  -48.4099 H         1 UNK         0.3000 
    131 H131        2.6367  -15.6513  -46.2465 H         1 UNK         0.0600 
    132 H132        0.7664  -16.3724  -44.7758 H         1 UNK         0.0800 
    133 H133        1.1926  -17.5412  -45.9711 H         1 UNK         0.0800 
    134 H134       -0.8670  -18.9969  -46.1040 H         1 UNK         0.0800 
    135 H135       -2.2550  -18.5510  -47.0590 H         1 UNK         0.0800 
    136 H136       -1.9595  -17.8205  -49.4643 H         1 UNK         0.1150 
    137 H137        1.5053  -19.3620  -51.4669 H         1 UNK         0.1150 
    138 H138        1.2512  -19.5262  -47.1937 H         1 UNK         0.1150 
    139 H139        3.5576  -19.6684  -50.0290 H         1 UNK         0.0800 
    140 H140        3.3863  -19.8958  -48.3058 H         1 UNK         0.0800 
    141 H141        4.9230  -23.0603  -49.8857 H         1 UNK         0.0800 
    142 H142        5.2089  -21.5208  -49.1456 H         1 UNK         0.0800 
    143 H143        5.7538  -23.3580  -47.6030 H         1 UNK         0.0600 
    144 H144        3.4249  -22.2261  -46.2402 H         1 UNK         0.3000 
    145 H145        5.6063  -20.2424  -44.2518 H         1 UNK         0.0600 
    146 H146        3.8783  -18.4856  -44.5183 H         1 UNK         0.0600 
    147 H147        3.2742  -19.2539  -45.9777 H         1 UNK         0.0600 
    148 H148        4.8908  -18.5554  -45.9541 H         1 UNK         0.0600 
    149 H149        2.8362  -20.6663  -43.9813 H         1 UNK         0.3000 
    150 H150        2.6925  -23.9447  -42.8783 H         1 UNK         0.0600 
    151 H151        3.8466  -23.1798  -40.7900 H         1 UNK         0.0600 
    152 H152        2.1060  -23.2362  -40.5698 H         1 UNK         0.0600 
    153 H153        2.9151  -21.6869  -40.8130 H         1 UNK         0.0600 
    154 H154        0.9301  -21.8290  -42.2610 H         1 UNK         0.3000 
    155 H155       -0.4507  -21.0922  -45.3615 H         1 UNK         0.0600 
    156 H156       -1.5741  -23.2981  -44.9551 H         1 UNK         0.0600 
    157 H157       -2.5922  -21.9481  -44.4855 H         1 UNK         0.0600 
    158 H158       -1.7535  -22.8941  -43.2539 H         1 UNK         0.0600 
    159 H159       -1.3958  -20.4965  -42.7663 H         1 UNK         0.3000 
    160 H160       -1.0787  -17.9302  -42.4318 H         1 UNK         0.0600 
    161 H161        0.6995  -19.5642  -40.5362 H         1 UNK         0.0600 
    162 H162       -1.0376  -19.7208  -40.7493 H         1 UNK         0.0600 
    163 H163       -0.3794  -18.2713  -40.0182 H         1 UNK         0.0600 
    164 H164        0.4291  -16.3270  -42.3967 H         1 UNK         0.3000 
    165 H165        3.4901  -15.7458  -41.1208 H         1 UNK         0.0600 
    166 H166        4.3547  -14.9595  -43.3491 H         1 UNK         0.0600 
    167 H167        4.6152  -16.6751  -43.0816 H         1 UNK         0.0600 
    168 H168        3.3196  -16.1446  -44.1446 H         1 UNK         0.0600 
    169 H169        1.7264  -14.4706  -43.1217 H         1 UNK         0.3000 
    170 H170       -0.0462  -12.6305  -40.6161 H         1 UNK         0.0600 
    171 H171        1.9625  -11.3137  -41.2648 H         1 UNK         0.0600 
    172 H172        1.8363  -11.8900  -42.9220 H         1 UNK         0.0600 
    173 H173        0.5785  -10.8554  -42.2460 H         1 UNK         0.0600 
    174 H174       -0.2783  -13.0213  -43.4827 H         1 UNK         0.3000 
    175 H175       -2.0051  -15.1835  -44.0760 H         1 UNK         0.0600 
    176 H176       -4.3639  -14.0778  -42.4683 H         1 UNK         0.0600 
    177 H177       -3.8277  -15.7514  -42.5247 H         1 UNK         0.0600 
    178 H178       -4.4984  -15.0029  -43.9635 H         1 UNK         0.0600 
    179 H179       -2.1880  -13.3955  -45.3740 H         1 UNK         0.3000 
    180 H180       -3.4602  -11.1821  -46.0679 H         1 UNK         0.0600 
    181 H181       -4.0380   -9.3969  -44.4480 H         1 UNK         0.0600 
    182 H182       -2.9215   -8.7887  -45.6575 H         1 UNK         0.0600 
    183 H183       -2.3395   -9.1792  -44.0391 H         1 UNK         0.0600 
    184 H184       -0.7216  -10.3154  -45.4951 H         1 UNK         0.3000 
    185 H185        0.5468  -11.4535  -48.1881 H         1 UNK         0.0600 
    186 H186        1.1128   -9.8801  -46.3949 H         1 UNK         0.0600 
    187 H187        1.3745  -11.1859  -45.2429 H         1 UNK         0.0600 
    188 H188        2.4584  -10.9803  -46.6124 H         1 UNK         0.0600 
    189 H189        1.2186  -13.5614  -48.1728 H         1 UNK         0.3000 
    190 H190        3.2306  -23.9892  -45.7957 H         1 UNK         0.3000 
    191 H191        1.8785  -25.6563  -45.3183 H         1 UNK         0.0600 
    192 H192        2.3365  -27.9639  -46.0225 H         1 UNK         0.0600 
    193 H193        3.8466  -27.1775  -45.5905 H         1 UNK         0.0600 
    194 H194        3.4293  -27.4231  -47.2857 H         1 UNK         0.0600 
    195 H195        0.8610  -23.7947  -46.7584 H         1 UNK         0.3000 
    196 H196       -0.2440  -24.4516  -49.3145 H         1 UNK         0.0600 
    197 H197       -1.0577  -22.3020  -47.2750 H         1 UNK         0.0600 
    198 H198        0.1994  -22.1100  -48.4876 H         1 UNK         0.0600 
    199 H199       -1.4688  -22.2989  -48.9816 H         1 UNK         0.0600 
    200 H200       -2.4498  -24.6517  -49.8784 H         1 UNK         0.3000 
    201 H201       -4.2747  -26.0593  -48.0378 H         1 UNK         0.0600 
    202 H202       -5.8202  -25.9917  -49.9859 H         1 UNK         0.0600 
    203 H203       -4.2586  -26.6403  -50.4649 H         1 UNK         0.0600 
    204 H204       -4.6940  -24.9846  -50.8841 H         1 UNK         0.0600 
    205 H205       -3.8434  -22.8987  -49.5540 H         1 UNK         0.3000 
    206 H206       -4.5783  -20.8281  -49.2291 H         1 UNK         0.0600 
    207 H207       -3.2185  -21.1621  -47.1741 H         1 UNK         0.0600 
    208 H208       -4.5296  -20.0365  -46.8793 H         1 UNK         0.0600 
    209 H209       -4.6496  -21.6910  -46.2918 H         1 UNK         0.0600 
    210 H210       -6.6640  -22.4029  -50.1611 H         1 UNK         0.3000 
    211 H211       -9.0999  -21.9119  -48.6296 H         1 UNK         0.0600 
    212 H212       -8.6248  -22.9560  -51.4690 H         1 UNK         0.0600 
    213 H213      -10.1916  -22.8894  -50.6702 H         1 UNK         0.0600 
    214 H214       -8.9213  -23.9186  -50.0268 H         1 UNK         0.0600 
    215 H215       -7.2673  -20.2537  -51.0982 H         1 UNK         0.3000 
    216 H216       -8.4147  -17.7648  -50.7122 H         1 UNK         0.0600 
    217 H217      -10.3373  -18.5871  -52.1349 H         1 UNK         0.0600 
    218 H218       -9.2148  -19.0186  -53.4153 H         1 UNK         0.0600 
    219 H219       -9.4390  -17.3374  -52.9581 H         1 UNK         0.0600 
    220 H220       -7.5492  -16.5672  -53.1185 H         1 UNK         0.3000 
    221 H221       -4.6516  -16.8297  -52.9090 H         1 UNK         0.0600 
    222 H222       -4.6968  -14.8668  -54.4497 H         1 UNK         0.0600 
    223 H223       -6.4304  -15.0572  -54.6771 H         1 UNK         0.0600 
    224 H224       -5.7848  -14.6060  -53.0991 H         1 UNK         0.0600 
    225 H225       -3.3348  -16.8560  -54.9083 H         1 UNK         0.3000 
    226 H226       -2.4630  -17.7639  -56.7104 H         1 UNK         0.0600 
    227 H227       -4.2090  -16.4562  -57.9020 H         1 UNK         0.0600 
    228 H228       -3.8174  -17.9225  -58.7763 H         1 UNK         0.0600 
    229 H229       -5.3137  -17.8226  -57.8489 H         1 UNK         0.0600 
    230 H230       -4.6250  -19.8363  -58.1436 H         1 UNK         0.3000 
    231 H231       -3.1462  -22.1567  -57.5366 H         1 UNK         0.0600 
    232 H232       -4.9577  -23.3185  -58.8140 H         1 UNK         0.0600 
    233 H233       -4.4352  -21.8553  -59.6322 H         1 UNK         0.0600 
    234 H234       -5.9545  -21.8706  -58.7351 H         1 UNK         0.0600 
    235 H235       -5.9379  -20.7939  -55.9023 H         1 UNK         0.3000 
    236 H236       -6.7016  -23.1575  -54.4248 H         1 UNK         0.0600 
    237 H237       -8.3184  -21.3752  -54.9506 H         1 UNK         0.0600 
    238 H238       -8.1580  -21.5263  -53.2104 H         1 UNK         0.0600 
    239 H239       -7.3581  -20.2057  -54.0524 H         1 UNK         0.0600 
    240 H240       -3.9618  -21.1380  -54.1082 H         1 UNK         0.3000 
    241 H241       -3.5371  -21.5961  -51.2725 H         1 UNK         0.0600 
    242 H242       -3.3569  -23.7510  -54.0884 H         1 UNK         0.3800 
    243 H243       -2.4624  -24.9872  -53.2455 H         1 UNK         0.3800 
    244 H244       -1.1836  -20.9595  -51.7169 H         1 UNK         0.0800 
    245 H245       -1.4995  -20.8818  -53.4313 H         1 UNK         0.0800 
    246 H246       -1.0799  -17.1068  -51.9723 H         1 UNK         0.0800 
    247 H247       -0.2286  -18.4039  -52.7748 H         1 UNK         0.0800 
@<TRIPOS>BOND
     1    1    2 1    
     2    1  127 1    
     3    1  128 1    
     4    1  129 1    
     5    2    3 2    
     6    2    4 am   BACKBONE|DICT|INTERRES
     7    4    5 1    
     8    4  130 1    
     9    5    6 1    
    10    5   65 1    
    11    5  131 1    
    12    6    7 1    
    13    6  132 1    
    14    6  133 1    
    15    7    8 1    
    16    8    9 1    
    17    8  134 1    
    18    8  135 1    
    19    9   10 ar   
    20    9   14 ar   
    21   10   11 ar   
    22   10  136 1    
    23   11   12 ar   
    24   11  126 1    
    25   12   13 ar   
    26   12  137 1    
    27   13   14 ar   
    28   13   15 1    
    29   14  138 1    
    30   15   16 1    
    31   15  139 1    
    32   15  140 1    
    33   16   17 1    
    34   17   18 1    
    35   17  141 1    
    36   17  142 1    
    37   18   19 1    
    38   18   67 1    
    39   18  143 1    
    40   19   20 am   BACKBONE|DICT|INTERRES
    41   19  144 1    
    42   20   21 2    
    43   20   22 1    
    44   22   23 1    
    45   22   24 1    
    46   22  145 1    
    47   23  146 1    
    48   23  147 1    
    49   23  148 1    
    50   24   25 am   BACKBONE|DICT|INTERRES
    51   24  149 1    
    52   25   26 2    
    53   25   27 1    
    54   27   28 1    
    55   27   29 1    
    56   27  150 1    
    57   28  151 1    
    58   28  152 1    
    59   28  153 1    
    60   29   30 am   BACKBONE|DICT|INTERRES
    61   29  154 1    
    62   30   31 2    
    63   30   32 1    
    64   32   33 1    
    65   32   34 1    
    66   32  155 1    
    67   33  156 1    
    68   33  157 1    
    69   33  158 1    
    70   34   35 am   BACKBONE|DICT|INTERRES
    71   34  159 1    
    72   35   36 2    
    73   35   37 1    
    74   37   38 1    
    75   37   39 1    
    76   37  160 1    
    77   38  161 1    
    78   38  162 1    
    79   38  163 1    
    80   39   40 am   BACKBONE|DICT|INTERRES
    81   39  164 1    
    82   40   41 2    
    83   40   42 1    
    84   42   43 1    
    85   42   44 1    
    86   42  165 1    
    87   43  166 1    
    88   43  167 1    
    89   43  168 1    
    90   44   45 am   BACKBONE|DICT|INTERRES
    91   44  169 1    
    92   45   46 2    
    93   45   47 1    
    94   47   48 1    
    95   47   49 1    
    96   47  170 1    
    97   48  171 1    
    98   48  172 1    
    99   48  173 1    
   100   49   50 am   BACKBONE|DICT|INTERRES
   101   49  174 1    
   102   50   51 2    
   103   50   52 1    
   104   52   53 1    
   105   52   54 1    
   106   52  175 1    
   107   53  176 1    
   108   53  177 1    
   109   53  178 1    
   110   54   55 am   BACKBONE|DICT|INTERRES
   111   54  179 1    
   112   55   56 2    
   113   55   57 1    
   114   57   58 1    
   115   57   59 1    
   116   57  180 1    
   117   58  181 1    
   118   58  182 1    
   119   58  183 1    
   120   59   60 am   BACKBONE|DICT|INTERRES
   121   59  184 1    
   122   60   61 2    
   123   60   62 1    
   124   62   63 1    
   125   62   64 1    
   126   62  185 1    
   127   63  186 1    
   128   63  187 1    
   129   63  188 1    
   130   64   65 am   BACKBONE|DICT|INTERRES
   131   64  189 1    
   132   65   66 2    
   133   67   68 2    
   134   67   69 am   BACKBONE|DICT|INTERRES
   135   69   70 1    
   136   69  190 1    
   137   70   71 1    
   138   70   72 1    
   139   70  191 1    
   140   71  192 1    
   141   71  193 1    
   142   71  194 1    
   143   72   73 2    
   144   72   74 am   BACKBONE|DICT|INTERRES
   145   74   75 1    
   146   74  195 1    
   147   75   76 1    
   148   75   77 1    
   149   75  196 1    
   150   76  197 1    
   151   76  198 1    
   152   76  199 1    
   153   77   78 2    
   154   77   79 am   BACKBONE|DICT|INTERRES
   155   79   80 1    
   156   79  200 1    
   157   80   81 1    
   158   80   82 1    
   159   80  201 1    
   160   81  202 1    
   161   81  203 1    
   162   81  204 1    
   163   82   83 2    
   164   82   84 am   BACKBONE|DICT|INTERRES
   165   84   85 1    
   166   84  205 1    
   167   85   86 1    
   168   85   87 1    
   169   85  206 1    
   170   86  207 1    
   171   86  208 1    
   172   86  209 1    
   173   87   88 2    
   174   87   89 am   BACKBONE|DICT|INTERRES
   175   89   90 1    
   176   89  210 1    
   177   90   91 1    
   178   90   92 1    
   179   90  211 1    
   180   91  212 1    
   181   91  213 1    
   182   91  214 1    
   183   92   93 2    
   184   92   94 am   BACKBONE|DICT|INTERRES
   185   94   95 1    
   186   94  215 1    
   187   95   96 1    
   188   95   97 1    
   189   95  216 1    
   190   96  217 1    
   191   96  218 1    
   192   96  219 1    
   193   97   98 2    
   194   97   99 am   BACKBONE|DICT|INTERRES
   195   99  100 1    
   196   99  220 1    
   197  100  101 1    
   198  100  102 1    
   199  100  221 1    
   200  101  222 1    
   201  101  223 1    
   202  101  224 1    
   203  102  103 2    
   204  102  104 am   BACKBONE|DICT|INTERRES
   205  104  105 1    
   206  104  225 1    
   207  105  106 1    
   208  105  107 1    
   209  105  226 1    
   210  106  227 1    
   211  106  228 1    
   212  106  229 1    
   213  107  108 2    
   214  107  109 am   BACKBONE|DICT|INTERRES
   215  109  110 1    
   216  109  230 1    
   217  110  111 1    
   218  110  112 1    
   219  110  231 1    
   220  111  232 1    
   221  111  233 1    
   222  111  234 1    
   223  112  113 2    
   224  112  114 am   BACKBONE|DICT|INTERRES
   225  114  115 1    
   226  114  235 1    
   227  115  116 1    
   228  115  117 1    
   229  115  236 1    
   230  116  237 1    
   231  116  238 1    
   232  116  239 1    
   233  117  118 2    
   234  117  119 am   BACKBONE|DICT|INTERRES
   235  119  120 1    
   236  119  240 1    
   237  120  121 1    
   238  120  124 1    
   239  120  241 1    
   240  121  122 am   BACKBONE|DICT|INTERRES
   241  121  123 2    
   242  122  242 1    
   243  122  243 1    
   244  124  125 1    
   245  124  244 1    
   246  124  245 1    
   247  125  126 1    
   248  126  246 1    
   249  126  247 1    
@<TRIPOS>SUBSTRUCTURE
     1 UNK         1 GROUP             0       ****    0 ROOT    
