@<TRIPOS>MOLECULE
3R540
247   249    1
SMALL
USER_CHARGES


@<TRIPOS>ATOM
      1 CA          4.4597   -9.1980  -53.8617 C.3       0 UNK        -0.1800 
      2 C           4.6816   -9.7607  -52.4646 C.2       0 UNK         0.5000 
      3 O           5.2334   -9.0704  -51.6068 O.2       0 UNK        -0.5000 
      4 N           4.2624  -11.0115  -52.2360 N.am      1 UNK        -0.5000 
      5 CA          4.3254  -11.6939  -50.9399 C.3       1 UNK         0.1400 
      6 C6          4.1527  -13.2240  -51.1109 C.3       23 UNK        -0.0398 
      7 S7          4.9334  -14.1635  -49.7565 S.3       23 UNK        -0.2404 
      8 C8          3.4788  -14.6855  -48.8024 C.3       23 UNK        -0.0205 
      9 C9          2.9911  -16.0672  -49.2028 C.ar      23 UNK        -0.0193 
     10 C10         2.0865  -16.2278  -50.2571 C.ar      23 UNK        -0.1150 
     11 C11         1.5919  -17.4959  -50.5748 C.ar      23 UNK        -0.0193 
     12 C12         2.0188  -18.6070  -49.8459 C.ar      23 UNK        -0.1150 
     13 C13         2.9033  -18.4544  -48.7773 C.ar      23 UNK        -0.0193 
     14 C14         3.3990  -17.1851  -48.4695 C.ar      23 UNK        -0.1150 
     15 C15         3.2867  -19.6526  -47.9269 C.3       23 UNK        -0.0205 
     16 S16         2.3411  -19.6924  -46.3712 S.3       23 UNK        -0.2404 
     17 C17         0.6585  -20.1277  -46.9409 C.3       23 UNK        -0.0398 
     18 CA          0.4458  -21.6568  -46.9552 C.3       11 UNK         0.1400 
     19 N           0.6180  -22.2398  -45.6231 N.am      11 UNK        -0.5000 
     20 C           1.0078  -23.4961  -45.3815 C.2       10 UNK         0.5000 
     21 O           1.2416  -24.3179  -46.2655 O.2       10 UNK        -0.5000 
     22 CA          1.1290  -23.9101  -43.9021 C.3       10 UNK         0.1400 
     23 CB          2.5371  -23.5995  -43.3738 C.3       10 UNK        -0.1800 
     24 N           0.1391  -23.2562  -43.0440 N.am      10 UNK        -0.5000 
     25 C          -1.1843  -23.4491  -43.1304 C.2       9 UNK         0.5000 
     26 O          -1.7073  -24.2362  -43.9174 O.2       9 UNK        -0.5000 
     27 CA         -2.0749  -22.5691  -42.2342 C.3       9 UNK         0.1400 
     28 CB         -2.2862  -23.2337  -40.8661 C.3       9 UNK        -0.1800 
     29 N          -1.5545  -21.2116  -42.0415 N.am      9 UNK        -0.5000 
     30 C          -1.3399  -20.3254  -43.0237 C.2       8 UNK         0.5000 
     31 O          -1.5042  -20.5784  -44.2196 O.2       8 UNK        -0.5000 
     32 CA         -0.7921  -18.9527  -42.5901 C.3       8 UNK         0.1400 
     33 CB          0.7430  -18.9840  -42.5705 C.3       8 UNK        -0.1800 
     34 N          -1.2445  -17.8587  -43.4528 N.am      8 UNK        -0.5000 
     35 C          -2.5235  -17.4703  -43.5749 C.2       7 UNK         0.5000 
     36 O          -3.4466  -17.9911  -42.9458 O.2       7 UNK        -0.5000 
     37 CA         -2.8514  -16.2886  -44.5135 C.3       7 UNK         0.1400 
     38 CB         -3.3614  -15.0849  -43.7042 C.3       7 UNK        -0.1800 
     39 N          -1.7415  -15.8416  -45.3528 N.am      7 UNK        -0.5000 
     40 C          -1.2311  -16.5044  -46.3988 C.2       6 UNK         0.5000 
     41 O          -1.6587  -17.5854  -46.8002 O.2       6 UNK        -0.5000 
     42 CA         -0.0252  -15.8486  -47.1009 C.3       6 UNK         0.1400 
     43 CB         -0.5169  -14.9281  -48.2279 C.3       6 UNK        -0.1800 
     44 N           0.8357  -15.0758  -46.1972 N.am      6 UNK        -0.5000 
     45 C           1.4692  -15.5714  -45.1233 C.2       5 UNK         0.5000 
     46 O           1.4024  -16.7478  -44.7748 O.2       5 UNK        -0.5000 
     47 CA          2.2550  -14.5762  -44.2538 C.3       5 UNK         0.1400 
     48 CB          3.6423  -14.2776  -44.8405 C.3       5 UNK        -0.1800 
     49 N           1.5171  -13.3277  -44.0776 N.am      5 UNK        -0.5000 
     50 C           0.5176  -13.1616  -43.2006 C.2       4 UNK         0.5000 
     51 O           0.1636  -14.0211  -42.3935 O.2       4 UNK        -0.5000 
     52 CA         -0.2261  -11.8131  -43.2449 C.3       4 UNK         0.1400 
     53 CB          0.4418  -10.7980  -42.3052 C.3       4 UNK        -0.1800 
     54 N          -0.3004  -11.2437  -44.5918 N.am      4 UNK        -0.5000 
     55 C          -0.9953  -11.7794  -45.6050 C.2       3 UNK         0.5000 
     56 O          -1.6693  -12.8035  -45.5043 O.2       3 UNK        -0.5000 
     57 CA         -0.8818  -11.0743  -46.9697 C.3       3 UNK         0.1400 
     58 CB         -1.9466   -9.9748  -47.0967 C.3       3 UNK        -0.1800 
     59 N           0.4421  -10.4993  -47.2276 N.am      3 UNK        -0.5000 
     60 C           1.5796  -11.2022  -47.3061 C.2       2 UNK         0.5000 
     61 O           1.6504  -12.4157  -47.1009 O.2       2 UNK        -0.5000 
     62 CA          2.8608  -10.4046  -47.6062 C.3       2 UNK         0.1400 
     63 CB          3.7197  -10.2840  -46.3378 C.3       2 UNK        -0.1800 
     64 N           3.6639  -11.0054  -48.6723 N.am      2 UNK        -0.5000 
     65 C           3.2928  -11.0927  -49.9569 C.2       1 UNK         0.5000 
     66 O           2.1976  -10.7120  -50.3796 O.2       1 UNK        -0.5000 
     67 C          -0.9134  -22.0484  -47.5707 C.2       11 UNK         0.5000 
     68 O          -1.0142  -22.1544  -48.7937 O.2       11 UNK        -0.5000 
     69 N          -1.9173  -22.3191  -46.7252 N.am      12 UNK        -0.5000 
     70 CA         -3.1733  -22.9591  -47.1167 C.3       12 UNK         0.1400 
     71 CB         -4.2087  -22.7780  -45.9974 C.3       12 UNK        -0.1800 
     72 C          -2.9734  -24.4504  -47.4473 C.2       12 UNK         0.5000 
     73 O          -3.4910  -24.9320  -48.4577 O.2       12 UNK        -0.5000 
     74 N          -2.1895  -25.1455  -46.6094 N.am      13 UNK        -0.5000 
     75 CA         -1.8139  -26.5504  -46.7772 C.3       13 UNK         0.1400 
     76 CB         -1.1118  -27.0544  -45.5086 C.3       13 UNK        -0.1800 
     77 C          -0.9390  -26.8069  -48.0177 C.2       13 UNK         0.5000 
     78 O          -1.0318  -27.8879  -48.5970 O.2       13 UNK        -0.5000 
     79 N          -0.1495  -25.8074  -48.4373 N.am      14 UNK        -0.5000 
     80 CA          0.6530  -25.8287  -49.6638 C.3       14 UNK         0.1400 
     81 CB          1.5539  -24.5851  -49.7106 C.3       14 UNK        -0.1800 
     82 C          -0.1985  -25.9312  -50.9455 C.2       14 UNK         0.5000 
     83 O           0.2224  -26.5855  -51.9000 O.2       14 UNK        -0.5000 
     84 N          -1.3911  -25.3189  -50.9309 N.am      15 UNK        -0.5000 
     85 CA         -2.4047  -25.4617  -51.9799 C.3       15 UNK         0.1400 
     86 CB         -3.2888  -24.2048  -51.9981 C.3       15 UNK        -0.1800 
     87 C          -3.2908  -26.7064  -51.7830 C.2       15 UNK         0.5000 
     88 O          -4.0232  -27.0726  -52.7027 O.2       15 UNK        -0.5000 
     89 N          -3.2439  -27.2949  -50.5779 N.am      16 UNK        -0.5000 
     90 CA         -4.1458  -28.3176  -50.0397 C.3       16 UNK         0.1400 
     91 CB         -3.9702  -29.6571  -50.7841 C.3       16 UNK        -0.1800 
     92 C          -5.6068  -27.8213  -50.0020 C.2       16 UNK         0.5000 
     93 O          -6.5298  -28.5807  -50.3042 O.2       16 UNK        -0.5000 
     94 N          -5.7816  -26.5364  -49.6667 N.am      17 UNK        -0.5000 
     95 CA         -7.0455  -25.8194  -49.7592 C.3       17 UNK         0.1400 
     96 CB         -7.2821  -25.3689  -51.2186 C.3       17 UNK        -0.1800 
     97 C          -7.0533  -24.6755  -48.7346 C.2       17 UNK         0.5000 
     98 O          -7.1820  -24.9409  -47.5387 O.2       17 UNK        -0.5000 
     99 N          -6.9380  -23.4330  -49.2123 N.am      18 UNK        -0.5000 
    100 CA        -7.0396  -22.2067  -48.4317 C.3       18 UNK         0.1400 
    101 CB        -8.4812  -21.6766  -48.5298 C.3       18 UNK        -0.1800 
    102 C         -6.0448  -21.1709  -48.9692 C.2       18 UNK         0.5000 
    103 O         -5.5149  -21.3295  -50.0729 O.2       18 UNK        -0.5000 
    104 N         -5.8606  -20.0856  -48.2079 N.am      19 UNK        -0.5000 
    105 CA        -5.0487  -18.9205  -48.5786 C.3       19 UNK         0.1400 
    106 CB        -4.9489  -17.9857  -47.3654 C.3       19 UNK        -0.1800 
    107 C         -5.5776  -18.1551  -49.8119 C.2       19 UNK         0.5000 
    108 O         -4.8265  -17.3953  -50.4201 O.2       19 UNK        -0.5000 
    109 N         -6.8486  -18.3826  -50.1750 N.am      20 UNK        -0.5000 
    110 CA        -7.4599  -17.9151  -51.4193 C.3       20 UNK         0.1400 
    111 CB        -8.9812  -18.1118  -51.3342 C.3       20 UNK        -0.1800 
    112 C         -6.8916  -18.6250  -52.6658 C.2       20 UNK         0.5000 
    113 O         -6.8187  -18.0067  -53.7283 O.2       20 UNK        -0.5000 
    114 N         -6.4911  -19.8967  -52.5147 N.am      21 UNK        -0.5000 
    115 CA        -5.7796  -20.6648  -53.5367 C.3       21 UNK         0.1400 
    116 CB        -6.0723  -22.1629  -53.3599 C.3       21 UNK        -0.1800 
    117 C         -4.2717  -20.3680  -53.4653 C.2       21 UNK         0.5000 
    118 O         -3.6735  -20.0440  -54.4908 O.2       21 UNK        -0.5000 
    119 N         -3.7253  -20.4098  -52.2411 N.am      22 UNK        -0.5000 
    120 CA        -2.3684  -19.9965  -51.8537 C.3       22 UNK         0.1400 
    121 C         -1.2466  -20.9307  -52.3916 C.2       22 UNK         0.5000 
    122 N         -0.6115  -21.7200  -51.5359 N.am      22 UNK        -0.7600 
    123 O         -0.9105  -20.9234  -53.5726 O.2       22 UNK        -0.5000 
    124 C124       -2.0932  -18.5028  -52.1929 C.3       23 UNK        -0.0398 
    125 S125       -1.1084  -17.6899  -50.8996 S.3       23 UNK        -0.2404 
    126 C126        0.5433  -17.6740  -51.6556 C.3       23 UNK        -0.0205 
    127 H127        3.9730   -9.9203  -54.5176 H         1 UNK         0.0600 
    128 H128        5.4134   -8.9202  -54.3104 H         1 UNK         0.0600 
    129 H129        3.8327   -8.3078  -53.8120 H         1 UNK         0.0600 
    130 H130        3.7861  -11.5115  -52.9729 H         1 UNK         0.3000 
    131 H131        5.3242  -11.5061  -50.5385 H         1 UNK         0.0600 
    132 H132        4.6470  -13.5524  -52.0264 H         1 UNK         0.0800 
    133 H133        3.1039  -13.4985  -51.2311 H         1 UNK         0.0800 
    134 H134        2.6745  -13.9583  -48.9076 H         1 UNK         0.0800 
    135 H135        3.7455  -14.6869  -47.7472 H         1 UNK         0.0800 
    136 H136        1.7383  -15.3654  -50.8067 H         1 UNK         0.1150 
    137 H137        1.6205  -19.5844  -50.0815 H         1 UNK         0.1150 
    138 H138        4.0751  -17.0646  -47.6347 H         1 UNK         0.1150 
    139 H139        3.1354  -20.5844  -48.4739 H         1 UNK         0.0800 
    140 H140        4.3509  -19.6046  -47.6922 H         1 UNK         0.0800 
    141 H141        0.4702  -19.6943  -47.9225 H         1 UNK         0.0800 
    142 H142       -0.0549  -19.6520  -46.2669 H         1 UNK         0.0800 
    143 H143        1.2084  -22.0816  -47.6118 H         1 UNK         0.0600 
    144 H144        0.3892  -21.6367  -44.8452 H         1 UNK         0.3000 
    145 H145        0.9708  -24.9885  -43.8417 H         1 UNK         0.0600 
    146 H146        2.6612  -23.9513  -42.3495 H         1 UNK         0.0600 
    147 H147        3.2983  -24.0924  -43.9802 H         1 UNK         0.0600 
    148 H148        2.7469  -22.5291  -43.3905 H         1 UNK         0.0600 
    149 H149        0.4858  -22.5890  -42.3709 H         1 UNK         0.3000 
    150 H150       -3.0467  -22.4819  -42.7241 H         1 UNK         0.0600 
    151 H151       -2.6927  -24.2397  -40.9796 H         1 UNK         0.0600 
    152 H152       -2.9910  -22.6675  -40.2569 H         1 UNK         0.0600 
    153 H153       -1.3520  -23.3179  -40.3096 H         1 UNK         0.0600 
    154 H154       -1.3805  -20.9329  -41.0864 H         1 UNK         0.3000 
    155 H155       -1.1455  -18.7415  -41.5788 H         1 UNK         0.0600 
    156 H156        1.1514  -19.1960  -43.5592 H         1 UNK         0.0600 
    157 H157        1.1140  -19.7522  -41.8910 H         1 UNK         0.0600 
    158 H158        1.1533  -18.0306  -42.2369 H         1 UNK         0.0600 
    159 H159       -0.5357  -17.4065  -44.0183 H         1 UNK         0.3000 
    160 H160       -3.6584  -16.6171  -45.1690 H         1 UNK         0.0600 
    161 H161       -2.5839  -14.6807  -43.0548 H         1 UNK         0.0600 
    162 H162       -4.2073  -15.3608  -43.0734 H         1 UNK         0.0600 
    163 H163       -3.6997  -14.2834  -44.3612 H         1 UNK         0.0600 
    164 H164       -1.3641  -14.9248  -45.1448 H         1 UNK         0.3000 
    165 H165        0.5792  -16.6463  -47.5368 H         1 UNK         0.0600 
    166 H166        0.3107  -14.4424  -48.7427 H         1 UNK         0.0600 
    167 H167       -1.0796  -15.4910  -48.9716 H         1 UNK         0.0600 
    168 H168       -1.1775  -14.1503  -47.8474 H         1 UNK         0.0600 
    169 H169        0.9771  -14.0982  -46.4341 H         1 UNK         0.3000 
    170 H170        2.4048  -15.0427  -43.2775 H         1 UNK         0.0600 
    171 H171        4.1727  -15.1981  -45.0881 H         1 UNK         0.0600 
    172 H172        3.5776  -13.6762  -45.7455 H         1 UNK         0.0600 
    173 H173        4.2568  -13.7297  -44.1262 H         1 UNK         0.0600 
    174 H174        1.7060  -12.5925  -44.7439 H         1 UNK         0.3000 
    175 H175       -1.2457  -11.9863  -42.8939 H         1 UNK         0.0600 
    176 H176        1.4601  -10.5662  -42.6201 H         1 UNK         0.0600 
    177 H177       -0.1201   -9.8645  -42.2692 H         1 UNK         0.0600 
    178 H178        0.4930  -11.1845  -41.2864 H         1 UNK         0.0600 
    179 H179        0.2253  -10.3992  -44.7620 H         1 UNK         0.3000 
    180 H180       -1.0722  -11.8189  -47.7440 H         1 UNK         0.0600 
    181 H181       -1.7911   -9.1763  -46.3702 H         1 UNK         0.0600 
    182 H182       -2.9464  -10.3790  -46.9315 H         1 UNK         0.0600 
    183 H183       -1.9384   -9.5305  -48.0922 H         1 UNK         0.0600 
    184 H184        0.4704   -9.5046  -47.3989 H         1 UNK         0.3000 
    185 H185        2.5827   -9.3983  -47.9265 H         1 UNK         0.0600 
    186 H186        3.1545   -9.8303  -45.5225 H         1 UNK         0.0600 
    187 H187        4.0694  -11.2575  -45.9925 H         1 UNK         0.0600 
    188 H188        4.5944   -9.6572  -46.5123 H         1 UNK         0.0600 
    189 H189        4.5618  -11.3761  -48.3979 H         1 UNK         0.3000 
    190 H190       -1.7765  -22.1393  -45.7386 H         1 UNK         0.3000 
    191 H191       -3.5490  -22.4700  -48.0174 H         1 UNK         0.0600 
    192 H192       -3.8321  -23.1249  -45.0362 H         1 UNK         0.0600 
    193 H193       -5.1152  -23.3461  -46.2053 H         1 UNK         0.0600 
    194 H194       -4.4883  -21.7302  -45.8867 H         1 UNK         0.0600 
    195 H195       -1.8642  -24.6947  -45.7585 H         1 UNK         0.3000 
    196 H196       -2.7349  -27.1234  -46.9031 H         1 UNK         0.0600 
    197 H197       -0.8648  -28.1134  -45.5933 H         1 UNK         0.0600 
    198 H198       -1.7489  -26.9392  -44.6316 H         1 UNK         0.0600 
    199 H199       -0.1831  -26.5157  -45.3230 H         1 UNK         0.0600 
    200 H200       -0.0530  -24.9922  -47.8447 H         1 UNK         0.3000 
    201 H201        1.2947  -26.7113  -49.6233 H         1 UNK         0.0600 
    202 H202        2.2143  -24.5422  -48.8445 H         1 UNK         0.0600 
    203 H203        0.9712  -23.6649  -49.7344 H         1 UNK         0.0600 
    204 H204        2.1862  -24.5949  -50.5992 H         1 UNK         0.0600 
    205 H205       -1.6639  -24.7996  -50.1073 H         1 UNK         0.3000 
    206 H206       -1.9179  -25.5509  -52.9532 H         1 UNK         0.0600 
    207 H207       -2.7134  -23.3252  -52.2723 H         1 UNK         0.0600 
    208 H208       -4.0856  -24.3024  -52.7355 H         1 UNK         0.0600 
    209 H209       -3.7560  -24.0160  -51.0308 H         1 UNK         0.0600 
    210 H210       -2.5729  -26.9305  -49.9162 H         1 UNK         0.3000 
    211 H211       -3.8494  -28.4749  -49.0019 H         1 UNK         0.0600 
    212 H212       -4.3073  -29.5954  -51.8191 H         1 UNK         0.0600 
    213 H213       -4.5428  -30.4495  -50.3010 H         1 UNK         0.0600 
    214 H214       -2.9257  -29.9689  -50.7889 H         1 UNK         0.0600 
    215 H215       -4.9807  -25.9885  -49.3638 H         1 UNK         0.3000 
    216 H216       -7.8611  -26.4867  -49.4726 H         1 UNK         0.0600 
    217 H217       -8.1897  -24.7705  -51.3090 H         1 UNK         0.0600 
    218 H218       -7.4026  -26.2295  -51.8768 H         1 UNK         0.0600 
    219 H219       -6.4480  -24.7818  -51.6035 H         1 UNK         0.0600 
    220 H220       -6.7409  -23.2951  -50.1939 H         1 UNK         0.3000 
    221 H221       -6.8010  -22.3978  -47.3854 H         1 UNK         0.0600 
    222 H222       -8.7561  -21.4448  -49.5597 H         1 UNK         0.0600 
    223 H223       -9.1946  -22.4101  -48.1535 H         1 UNK         0.0600 
    224 H224       -8.6147  -20.7695  -47.9394 H         1 UNK         0.0600 
    225 H225       -6.3411  -20.0232  -47.3217 H         1 UNK         0.3000 
    226 H226       -4.0440  -19.2731  -48.8225 H         1 UNK         0.0600 
    227 H227       -4.4848  -18.4930  -46.5192 H         1 UNK         0.0600 
    228 H228       -4.3352  -17.1135  -47.5954 H         1 UNK         0.0600 
    229 H229       -5.9285  -17.6249  -47.0500 H         1 UNK         0.0600 
    230 H230       -7.4086  -18.9882  -49.5951 H         1 UNK         0.3000 
    231 H231       -7.2567  -16.8469  -51.5215 H         1 UNK         0.0600 
    232 H232       -9.4041  -17.5601  -50.4945 H         1 UNK         0.0600 
    233 H233       -9.2462  -19.1631  -51.2140 H         1 UNK         0.0600 
    234 H234       -9.4722  -17.7510  -52.2390 H         1 UNK         0.0600 
    235 H235       -6.5294  -20.3126  -51.5934 H         1 UNK         0.3000 
    236 H236       -6.1378  -20.3718  -54.5261 H         1 UNK         0.0600 
    237 H237       -5.5628  -22.7505  -54.1244 H         1 UNK         0.0600 
    238 H238       -5.7426  -22.5302  -52.3893 H         1 UNK         0.0600 
    239 H239       -7.1391  -22.3684  -53.4490 H         1 UNK         0.0600 
    240 H240       -4.3105  -20.7319  -51.4762 H         1 UNK         0.3000 
    241 H241       -2.3790  -20.0984  -50.7670 H         1 UNK         0.0600 
    242 H242       -0.8569  -21.7707  -50.5483 H         1 UNK         0.3800 
    243 H243        0.1236  -22.3092  -51.8886 H         1 UNK         0.3800 
    244 H244       -3.0300  -17.9483  -52.2523 H         1 UNK         0.0800 
    245 H245       -1.6273  -18.3778  -53.1720 H         1 UNK         0.0800 
    246 H246        0.6031  -16.8726  -52.3935 H         1 UNK         0.0800 
    247 H247        0.7227  -18.6085  -52.1895 H         1 UNK         0.0800 
@<TRIPOS>BOND
     1    1    2 1    
     2    1  127 1    
     3    1  128 1    
     4    1  129 1    
     5    2    3 2    
     6    2    4 am   BACKBONE|DICT|INTERRES
     7    4    5 1    
     8    4  130 1    
     9    5    6 1    
    10    5   65 1    
    11    5  131 1    
    12    6    7 1    
    13    6  132 1    
    14    6  133 1    
    15    7    8 1    
    16    8    9 1    
    17    8  134 1    
    18    8  135 1    
    19    9   10 ar   
    20    9   14 ar   
    21   10   11 ar   
    22   10  136 1    
    23   11   12 ar   
    24   11  126 1    
    25   12   13 ar   
    26   12  137 1    
    27   13   14 ar   
    28   13   15 1    
    29   14  138 1    
    30   15   16 1    
    31   15  139 1    
    32   15  140 1    
    33   16   17 1    
    34   17   18 1    
    35   17  141 1    
    36   17  142 1    
    37   18   19 1    
    38   18   67 1    
    39   18  143 1    
    40   19   20 am   BACKBONE|DICT|INTERRES
    41   19  144 1    
    42   20   21 2    
    43   20   22 1    
    44   22   23 1    
    45   22   24 1    
    46   22  145 1    
    47   23  146 1    
    48   23  147 1    
    49   23  148 1    
    50   24   25 am   BACKBONE|DICT|INTERRES
    51   24  149 1    
    52   25   26 2    
    53   25   27 1    
    54   27   28 1    
    55   27   29 1    
    56   27  150 1    
    57   28  151 1    
    58   28  152 1    
    59   28  153 1    
    60   29   30 am   BACKBONE|DICT|INTERRES
    61   29  154 1    
    62   30   31 2    
    63   30   32 1    
    64   32   33 1    
    65   32   34 1    
    66   32  155 1    
    67   33  156 1    
    68   33  157 1    
    69   33  158 1    
    70   34   35 am   BACKBONE|DICT|INTERRES
    71   34  159 1    
    72   35   36 2    
    73   35   37 1    
    74   37   38 1    
    75   37   39 1    
    76   37  160 1    
    77   38  161 1    
    78   38  162 1    
    79   38  163 1    
    80   39   40 am   BACKBONE|DICT|INTERRES
    81   39  164 1    
    82   40   41 2    
    83   40   42 1    
    84   42   43 1    
    85   42   44 1    
    86   42  165 1    
    87   43  166 1    
    88   43  167 1    
    89   43  168 1    
    90   44   45 am   BACKBONE|DICT|INTERRES
    91   44  169 1    
    92   45   46 2    
    93   45   47 1    
    94   47   48 1    
    95   47   49 1    
    96   47  170 1    
    97   48  171 1    
    98   48  172 1    
    99   48  173 1    
   100   49   50 am   BACKBONE|DICT|INTERRES
   101   49  174 1    
   102   50   51 2    
   103   50   52 1    
   104   52   53 1    
   105   52   54 1    
   106   52  175 1    
   107   53  176 1    
   108   53  177 1    
   109   53  178 1    
   110   54   55 am   BACKBONE|DICT|INTERRES
   111   54  179 1    
   112   55   56 2    
   113   55   57 1    
   114   57   58 1    
   115   57   59 1    
   116   57  180 1    
   117   58  181 1    
   118   58  182 1    
   119   58  183 1    
   120   59   60 am   BACKBONE|DICT|INTERRES
   121   59  184 1    
   122   60   61 2    
   123   60   62 1    
   124   62   63 1    
   125   62   64 1    
   126   62  185 1    
   127   63  186 1    
   128   63  187 1    
   129   63  188 1    
   130   64   65 am   BACKBONE|DICT|INTERRES
   131   64  189 1    
   132   65   66 2    
   133   67   68 2    
   134   67   69 am   BACKBONE|DICT|INTERRES
   135   69   70 1    
   136   69  190 1    
   137   70   71 1    
   138   70   72 1    
   139   70  191 1    
   140   71  192 1    
   141   71  193 1    
   142   71  194 1    
   143   72   73 2    
   144   72   74 am   BACKBONE|DICT|INTERRES
   145   74   75 1    
   146   74  195 1    
   147   75   76 1    
   148   75   77 1    
   149   75  196 1    
   150   76  197 1    
   151   76  198 1    
   152   76  199 1    
   153   77   78 2    
   154   77   79 am   BACKBONE|DICT|INTERRES
   155   79   80 1    
   156   79  200 1    
   157   80   81 1    
   158   80   82 1    
   159   80  201 1    
   160   81  202 1    
   161   81  203 1    
   162   81  204 1    
   163   82   83 2    
   164   82   84 am   BACKBONE|DICT|INTERRES
   165   84   85 1    
   166   84  205 1    
   167   85   86 1    
   168   85   87 1    
   169   85  206 1    
   170   86  207 1    
   171   86  208 1    
   172   86  209 1    
   173   87   88 2    
   174   87   89 am   BACKBONE|DICT|INTERRES
   175   89   90 1    
   176   89  210 1    
   177   90   91 1    
   178   90   92 1    
   179   90  211 1    
   180   91  212 1    
   181   91  213 1    
   182   91  214 1    
   183   92   93 2    
   184   92   94 am   BACKBONE|DICT|INTERRES
   185   94   95 1    
   186   94  215 1    
   187   95   96 1    
   188   95   97 1    
   189   95  216 1    
   190   96  217 1    
   191   96  218 1    
   192   96  219 1    
   193   97   98 2    
   194   97   99 am   BACKBONE|DICT|INTERRES
   195   99  100 1    
   196   99  220 1    
   197  100  101 1    
   198  100  102 1    
   199  100  221 1    
   200  101  222 1    
   201  101  223 1    
   202  101  224 1    
   203  102  103 2    
   204  102  104 am   BACKBONE|DICT|INTERRES
   205  104  105 1    
   206  104  225 1    
   207  105  106 1    
   208  105  107 1    
   209  105  226 1    
   210  106  227 1    
   211  106  228 1    
   212  106  229 1    
   213  107  108 2    
   214  107  109 am   BACKBONE|DICT|INTERRES
   215  109  110 1    
   216  109  230 1    
   217  110  111 1    
   218  110  112 1    
   219  110  231 1    
   220  111  232 1    
   221  111  233 1    
   222  111  234 1    
   223  112  113 2    
   224  112  114 am   BACKBONE|DICT|INTERRES
   225  114  115 1    
   226  114  235 1    
   227  115  116 1    
   228  115  117 1    
   229  115  236 1    
   230  116  237 1    
   231  116  238 1    
   232  116  239 1    
   233  117  118 2    
   234  117  119 am   BACKBONE|DICT|INTERRES
   235  119  120 1    
   236  119  240 1    
   237  120  121 1    
   238  120  124 1    
   239  120  241 1    
   240  121  122 am   BACKBONE|DICT|INTERRES
   241  121  123 2    
   242  122  242 1    
   243  122  243 1    
   244  124  125 1    
   245  124  244 1    
   246  124  245 1    
   247  125  126 1    
   248  126  246 1    
   249  126  247 1    
@<TRIPOS>SUBSTRUCTURE
     1 UNK         1 GROUP             0       ****    0 ROOT    
