@<TRIPOS>MOLECULE
3R540
247   249    1
SMALL
USER_CHARGES


@<TRIPOS>ATOM
      1 CA          8.1188  -17.7916  -50.1390 C.3       0 UNK        -0.1800 
      2 C           6.7559  -17.1589  -49.8948 C.2       0 UNK         0.5000 
      3 O           6.1481  -17.3994  -48.8517 O.2       0 UNK        -0.5000 
      4 N           6.2744  -16.3611  -50.8551 N.am      1 UNK        -0.5000 
      5 CA          4.9993  -15.6398  -50.7895 C.3       1 UNK         0.1400 
      6 C6          4.5802  -15.0691  -52.1693 C.3       23 UNK        -0.0398 
      7 S7          4.4638  -16.3491  -53.4677 S.3       23 UNK        -0.2404 
      8 C8          2.6698  -16.6684  -53.5274 C.3       23 UNK        -0.0205 
      9 C9          2.1263  -17.1554  -52.1918 C.ar      23 UNK        -0.0193 
     10 C10         1.1735  -16.4029  -51.5012 C.ar      23 UNK        -0.1150 
     11 C11         0.6851  -16.8417  -50.2686 C.ar      23 UNK        -0.0193 
     12 C12         1.1803  -18.0235  -49.7124 C.ar      23 UNK        -0.1150 
     13 C13         2.1312  -18.7962  -50.3947 C.ar      23 UNK        -0.0193 
     14 C14         2.5836  -18.3561  -51.6416 C.ar      23 UNK        -0.1150 
     15 C15         2.7157  -20.0997  -49.8441 C.3       23 UNK        -0.0205 
     16 S16         2.1922  -20.5737  -48.1609 S.3       23 UNK        -0.2404 
     17 C17         0.4779  -21.1308  -48.4486 C.3       23 UNK        -0.0398 
     18 CA          0.1170  -22.3291  -47.5486 C.3       11 UNK         0.1400 
     19 N           0.0742  -21.9667  -46.1324 N.am      11 UNK        -0.5000 
     20 C           0.0685  -22.8522  -45.1296 C.2       10 UNK         0.5000 
     21 O           0.1264  -24.0706  -45.2972 O.2       10 UNK        -0.5000 
     22 CA         -0.0827  -22.2815  -43.7090 C.3       10 UNK         0.1400 
     23 CB          1.2525  -21.7185  -43.2001 C.3       10 UNK        -0.1800 
     24 N          -1.1212  -21.2512  -43.6299 N.am      10 UNK        -0.5000 
     25 C          -2.4230  -21.4781  -43.8579 C.2       9 UNK         0.5000 
     26 O          -2.8815  -22.5898  -44.1220 O.2       9 UNK        -0.5000 
     27 CA         -3.3690  -20.2640  -43.8171 C.3       9 UNK         0.1400 
     28 CB         -3.7240  -19.9026  -42.3674 C.3       9 UNK        -0.1800 
     29 N          -2.8262  -19.0890  -44.4995 N.am      9 UNK        -0.5000 
     30 C          -2.5780  -19.0170  -45.8153 C.2       8 UNK         0.5000 
     31 O          -2.8089  -19.9300  -46.6052 O.2       8 UNK        -0.5000 
     32 CA         -1.9015  -17.7342  -46.3314 C.3       8 UNK         0.1400 
     33 CB         -2.9164  -16.5922  -46.4853 C.3       8 UNK        -0.1800 
     34 N          -0.7935  -17.2980  -45.4822 N.am      8 UNK        -0.5000 
     35 C           0.2926  -18.0377  -45.2164 C.2       7 UNK         0.5000 
     36 O           0.4894  -19.1586  -45.6812 O.2       7 UNK        -0.5000 
     37 CA          1.2921  -17.4557  -44.2062 C.3       7 UNK         0.1400 
     38 CB          2.1796  -16.3852  -44.8599 C.3       7 UNK        -0.1800 
     39 N           0.6086  -16.9033  -43.0366 N.am      7 UNK        -0.5000 
     40 C          -0.0438  -17.6442  -42.1281 C.2       6 UNK         0.5000 
     41 O          -0.0964  -18.8734  -42.1562 O.2       6 UNK        -0.5000 
     42 CA         -0.8012  -16.8805  -41.0270 C.3       6 UNK         0.1400 
     43 CB          0.1507  -16.4815  -39.8896 C.3       6 UNK        -0.1800 
     44 N          -1.4764  -15.6869  -41.5368 N.am      6 UNK        -0.5000 
     45 C          -2.4970  -15.7055  -42.4061 C.2       5 UNK         0.5000 
     46 O          -3.0099  -16.7368  -42.8369 O.2       5 UNK        -0.5000 
     47 CA         -2.9947  -14.3412  -42.9166 C.3       5 UNK         0.1400 
     48 CB         -4.0757  -13.7765  -41.9832 C.3       5 UNK        -0.1800 
     49 N          -1.9186  -13.3580  -43.0678 N.am      5 UNK        -0.5000 
     50 C          -0.8922  -13.4835  -43.9189 C.2       4 UNK         0.5000 
     51 O          -0.7268  -14.4600  -44.6538 O.2       4 UNK        -0.5000 
     52 CA          0.1563  -12.3571  -43.8932 C.3       4 UNK         0.1400 
     53 CB          1.3582  -12.7720  -43.0299 C.3       4 UNK        -0.1800 
     54 N           0.6330  -12.0048  -45.2295 N.am      4 UNK        -0.5000 
     55 C          -0.1204  -11.4838  -46.2080 C.2       3 UNK         0.5000 
     56 O          -1.3153  -11.2144  -46.0754 O.2       3 UNK        -0.5000 
     57 CA          0.5750  -11.1698  -47.5492 C.3       3 UNK         0.1400 
     58 CB          0.5930   -9.6536  -47.8055 C.3       3 UNK        -0.1800 
     59 N           1.9509  -11.6697  -47.6357 N.am      3 UNK        -0.5000 
     60 C           2.2812  -12.9283  -47.9444 C.2       2 UNK         0.5000 
     61 O           1.4617  -13.8262  -48.1422 O.2       2 UNK        -0.5000 
     62 CA          3.7793  -13.2372  -48.0409 C.3       2 UNK         0.1400 
     63 CB          4.3512  -13.6554  -46.6754 C.3       2 UNK        -0.1800 
     64 N           3.9623  -14.3099  -49.0117 N.am      2 UNK        -0.5000 
     65 C           5.0614  -14.5072  -49.7447 C.2       1 UNK         0.5000 
     66 O           6.0803  -13.8172  -49.6501 O.2       1 UNK        -0.5000 
     67 C          -1.1877  -23.0035  -48.0148 C.2       11 UNK         0.5000 
     68 O          -1.1268  -23.8572  -48.8974 O.2       11 UNK        -0.5000 
     69 N          -2.3381  -22.6463  -47.4280 N.am      12 UNK        -0.5000 
     70 CA         -3.6190  -23.3118  -47.6709 C.3       12 UNK         0.1400 
     71 CB         -4.7687  -22.4784  -47.0909 C.3       12 UNK        -0.1800 
     72 C          -3.6372  -24.7418  -47.1064 C.2       12 UNK         0.5000 
     73 O          -4.0712  -25.6609  -47.7988 O.2       12 UNK        -0.5000 
     74 N          -3.1023  -24.9224  -45.8898 N.am      13 UNK        -0.5000 
     75 CA         -2.9170  -26.2291  -45.2506 C.3       13 UNK         0.1400 
     76 CB         -2.4475  -26.0311  -43.8016 C.3       13 UNK        -0.1800 
     77 C          -1.9488  -27.1457  -46.0268 C.2       13 UNK         0.5000 
     78 O          -2.1708  -28.3554  -46.0864 O.2       13 UNK        -0.5000 
     79 N          -0.9231  -26.5463  -46.6466 N.am      14 UNK        -0.5000 
     80 CA          0.0156  -27.2063  -47.5573 C.3       14 UNK         0.1400 
     81 CB          1.2920  -26.3542  -47.6445 C.3       14 UNK        -0.1800 
     82 C          -0.5583  -27.4534  -48.9710 C.2       14 UNK         0.5000 
     83 O           0.0931  -28.1317  -49.7659 O.2       14 UNK        -0.5000 
     84 N          -1.7372  -26.8845  -49.2704 N.am      15 UNK        -0.5000 
     85 CA         -2.4463  -26.8859  -50.5568 C.3       15 UNK         0.1400 
     86 CB         -2.8462  -28.3166  -50.9720 C.3       15 UNK        -0.1800 
     87 C          -1.7122  -26.1189  -51.6800 C.2       15 UNK         0.5000 
     88 O          -2.0078  -26.3244  -52.8579 O.2       15 UNK        -0.5000 
     89 N          -0.7937  -25.2227  -51.3007 N.am      16 UNK        -0.5000 
     90 CA         -0.0376  -24.3482  -52.1945 C.3       16 UNK         0.1400 
     91 CB          1.2945  -23.9782  -51.5224 C.3       16 UNK        -0.1800 
     92 C          -0.8315  -23.0812  -52.5579 C.2       16 UNK         0.5000 
     93 O          -0.7281  -22.6090  -53.6899 O.2       16 UNK        -0.5000 
     94 N          -1.6226  -22.5716  -51.6024 N.am      17 UNK        -0.5000 
     95 CA         -2.4953  -21.4033  -51.7687 C.3       17 UNK         0.1400 
     96 CB         -2.2518  -20.4052  -50.6223 C.3       17 UNK        -0.1800 
     97 C          -3.9812  -21.7980  -51.8608 C.2       17 UNK         0.5000 
     98 O          -4.8417  -20.9305  -51.7099 O.2       17 UNK        -0.5000 
     99 N          -4.2681  -23.0880  -52.0932 N.am      18 UNK        -0.5000 
    100 CA        -5.6034  -23.6853  -52.2022 C.3       18 UNK         0.1400 
    101 CB        -6.2979  -23.2181  -53.5020 C.3       18 UNK        -0.1800 
    102 C         -6.4347  -23.4490  -50.9230 C.2       18 UNK         0.5000 
    103 O         -6.0817  -23.9898  -49.8771 O.2       18 UNK        -0.5000 
    104 N         -7.4900  -22.6310  -51.0118 N.am      19 UNK        -0.5000 
    105 CA        -8.3600  -22.2372  -49.9014 C.3       19 UNK         0.1400 
    106 CB        -9.8228  -22.3191  -50.3754 C.3       19 UNK        -0.1800 
    107 C         -7.9884  -20.8355  -49.3705 C.2       19 UNK         0.5000 
    108 O         -8.8786  -20.0395  -49.0677 O.2       19 UNK        -0.5000 
    109 N         -6.6784  -20.5541  -49.2940 N.am      20 UNK        -0.5000 
    110 CA        -6.0569  -19.2676  -48.9487 C.3       20 UNK         0.1400 
    111 CB        -6.3824  -18.8489  -47.4986 C.3       20 UNK        -0.1800 
    112 C         -6.3904  -18.1809  -49.9914 C.2       20 UNK         0.5000 
    113 O         -6.7139  -17.0437  -49.6416 O.2       20 UNK        -0.5000 
    114 N         -6.3004  -18.5676  -51.2715 N.am      21 UNK        -0.5000 
    115 CA        -6.6516  -17.7688  -52.4477 C.3       21 UNK         0.1400 
    116 CB        -6.5693  -18.6675  -53.6913 C.3       21 UNK        -0.1800 
    117 C         -5.7904  -16.5047  -52.6324 C.2       21 UNK         0.5000 
    118 O         -6.2268  -15.5670  -53.3013 O.2       21 UNK        -0.5000 
    119 N         -4.5987  -16.4943  -52.0243 N.am      22 UNK        -0.5000 
    120 CA        -3.7134  -15.3280  -51.9205 C.3       22 UNK         0.1400 
    121 C         -4.2092  -14.2130  -50.9483 C.2       22 UNK         0.5000 
    122 N         -5.2227  -14.4440  -50.1195 N.am      22 UNK        -0.7600 
    123 O         -3.6710  -13.1094  -50.9598 O.2       22 UNK        -0.5000 
    124 C124       -2.2558  -15.7601  -51.6231 C.3       23 UNK        -0.0398 
    125 S125       -2.0514  -16.6094  -50.0158 S.3       23 UNK        -0.2404 
    126 C126       -0.3872  -16.0508  -49.5371 C.3       23 UNK        -0.0205 
    127 H127        8.0371  -18.8784  -50.1176 H         1 UNK         0.0600 
    128 H128        8.8191  -17.4857  -49.3616 H         1 UNK         0.0600 
    129 H129        8.5341  -17.5010  -51.1044 H         1 UNK         0.0600 
    130 H130        6.8238  -16.1955  -51.6858 H         1 UNK         0.3000 
    131 H131        4.2385  -16.3518  -50.4647 H         1 UNK         0.0600 
    132 H132        3.6228  -14.5500  -52.0963 H         1 UNK         0.0800 
    133 H133        5.3011  -14.3215  -52.5055 H         1 UNK         0.0800 
    134 H134        2.4701  -17.4242  -54.2882 H         1 UNK         0.0800 
    135 H135        2.1564  -15.7622  -53.8526 H         1 UNK         0.0800 
    136 H136        0.8053  -15.4796  -51.9252 H         1 UNK         0.1150 
    137 H137        0.8083  -18.3271  -48.7463 H         1 UNK         0.1150 
    138 H138        3.3206  -18.9371  -52.1787 H         1 UNK         0.1150 
    139 H139        3.8024  -20.0030  -49.8310 H         1 UNK         0.0800 
    140 H140        2.4905  -20.9151  -50.5330 H         1 UNK         0.0800 
    141 H141        0.3780  -21.3993  -49.5010 H         1 UNK         0.0800 
    142 H142       -0.2090  -20.3023  -48.2696 H         1 UNK         0.0800 
    143 H143        0.9049  -23.0752  -47.6685 H         1 UNK         0.0600 
    144 H144        0.0796  -20.9712  -45.9184 H         1 UNK         0.3000 
    145 H145       -0.3761  -23.1029  -43.0521 H         1 UNK         0.0600 
    146 H146        2.0377  -22.4740  -43.2454 H         1 UNK         0.0600 
    147 H147        1.1725  -21.3942  -42.1625 H         1 UNK         0.0600 
    148 H148        1.5827  -20.8648  -43.7924 H         1 UNK         0.0600 
    149 H149       -0.8169  -20.3159  -43.3791 H         1 UNK         0.3000 
    150 H150       -4.2910  -20.5465  -44.3292 H         1 UNK         0.0600 
    151 H151       -2.8494  -19.5635  -41.8113 H         1 UNK         0.0600 
    152 H152       -4.1378  -20.7627  -41.8394 H         1 UNK         0.0600 
    153 H153       -4.4707  -19.1092  -42.3316 H         1 UNK         0.0600 
    154 H154       -2.6536  -18.2702  -43.9225 H         1 UNK         0.3000 
    155 H155       -1.4876  -17.9589  -47.3159 H         1 UNK         0.0600 
    156 H156       -2.4361  -15.6838  -46.8501 H         1 UNK         0.0600 
    157 H157       -3.4076  -16.3559  -45.5417 H         1 UNK         0.0600 
    158 H158       -3.6914  -16.8577  -47.2044 H         1 UNK         0.0600 
    159 H159       -0.8600  -16.3670  -45.0805 H         1 UNK         0.3000 
    160 H160        1.9390  -18.2683  -43.8686 H         1 UNK         0.0600 
    161 H161        1.5979  -15.5462  -45.2420 H         1 UNK         0.0600 
    162 H162        2.7314  -16.8052  -45.7020 H         1 UNK         0.0600 
    163 H163        2.9122  -15.9939  -44.1542 H         1 UNK         0.0600 
    164 H164        0.5509  -15.8982  -42.9767 H         1 UNK         0.3000 
    165 H165       -1.5604  -17.5509  -40.6185 H         1 UNK         0.0600 
    166 H166       -0.3908  -16.0087  -39.0701 H         1 UNK         0.0600 
    167 H167        0.6573  -17.3568  -39.4806 H         1 UNK         0.0600 
    168 H168        0.9193  -15.7865  -40.2300 H         1 UNK         0.0600 
    169 H169       -1.1211  -14.7934  -41.2310 H         1 UNK         0.3000 
    170 H170       -3.4422  -14.4996  -43.8998 H         1 UNK         0.0600 
    171 H171       -4.4949  -12.8514  -42.3792 H         1 UNK         0.0600 
    172 H172       -3.6815  -13.5686  -40.9877 H         1 UNK         0.0600 
    173 H173       -4.8997  -14.4823  -41.8693 H         1 UNK         0.0600 
    174 H174       -1.9816  -12.5310  -42.4916 H         1 UNK         0.3000 
    175 H175       -0.2952  -11.4648  -43.4547 H         1 UNK         0.0600 
    176 H176        1.0450  -13.0301  -42.0175 H         1 UNK         0.0600 
    177 H177        1.8736  -13.6385  -43.4457 H         1 UNK         0.0600 
    178 H178        2.0821  -11.9611  -42.9467 H         1 UNK         0.0600 
    179 H179        1.5967  -12.2145  -45.4369 H         1 UNK         0.3000 
    180 H180       -0.0204  -11.6378  -48.3364 H         1 UNK         0.0600 
    181 H181        1.1686   -9.1238  -47.0454 H         1 UNK         0.0600 
    182 H182       -0.4170   -9.2415  -47.7985 H         1 UNK         0.0600 
    183 H183        1.0273   -9.4229  -48.7784 H         1 UNK         0.0600 
    184 H184        2.6830  -10.9919  -47.4766 H         1 UNK         0.3000 
    185 H185        4.2929  -12.3390  -48.3908 H         1 UNK         0.0600 
    186 H186        4.1983  -12.8761  -45.9279 H         1 UNK         0.0600 
    187 H187        3.8782  -14.5651  -46.3062 H         1 UNK         0.0600 
    188 H188        5.4238  -13.8399  -46.7367 H         1 UNK         0.0600 
    189 H189        3.1365  -14.8790  -49.1546 H         1 UNK         0.3000 
    190 H190       -2.3457  -21.8662  -46.7787 H         1 UNK         0.3000 
    191 H191       -3.7605  -23.3752  -48.7515 H         1 UNK         0.0600 
    192 H192       -4.7627  -21.4740  -47.5073 H         1 UNK         0.0600 
    193 H193       -5.7345  -22.9257  -47.3281 H         1 UNK         0.0600 
    194 H194       -4.7060  -22.3908  -46.0073 H         1 UNK         0.0600 
    195 H195       -2.8064  -24.1073  -45.3595 H         1 UNK         0.3000 
    196 H196       -3.8895  -26.7248  -45.2258 H         1 UNK         0.0600 
    197 H197       -2.3441  -26.9892  -43.2907 H         1 UNK         0.0600 
    198 H198       -3.1621  -25.4345  -43.2342 H         1 UNK         0.0600 
    199 H199       -1.4818  -25.5283  -43.7539 H         1 UNK         0.0600 
    200 H200       -0.7691  -25.5594  -46.4715 H         1 UNK         0.3000 
    201 H201        0.2825  -28.1779  -47.1370 H         1 UNK         0.0600 
    202 H202        2.0594  -26.8576  -48.2337 H         1 UNK         0.0600 
    203 H203        1.7125  -26.1663  -46.6563 H         1 UNK         0.0600 
    204 H204        1.0991  -25.3912  -48.1166 H         1 UNK         0.0600 
    205 H205       -2.1985  -26.3544  -48.5409 H         1 UNK         0.3000 
    206 H206       -3.3693  -26.3312  -50.3827 H         1 UNK         0.0600 
    207 H207       -3.3674  -28.8295  -50.1637 H         1 UNK         0.0600 
    208 H208       -3.5185  -28.3014  -51.8306 H         1 UNK         0.0600 
    209 H209       -1.9796  -28.9173  -51.2487 H         1 UNK         0.0600 
    210 H210       -0.6884  -25.0474  -50.3057 H         1 UNK         0.3000 
    211 H211        0.1846  -24.8855  -53.1190 H         1 UNK         0.0600 
    212 H212        1.1419  -23.4657  -50.5725 H         1 UNK         0.0600 
    213 H213        1.8859  -23.3203  -52.1604 H         1 UNK         0.0600 
    214 H214        1.8942  -24.8673  -51.3268 H         1 UNK         0.0600 
    215 H215       -1.6438  -23.0364  -50.7016 H         1 UNK         0.3000 
    216 H216       -2.2624  -20.8867  -52.7016 H         1 UNK         0.0600 
    217 H217       -2.8730  -19.5162  -50.7352 H         1 UNK         0.0600 
    218 H218       -1.2184  -20.0604  -50.6156 H         1 UNK         0.0600 
    219 H219       -2.4800  -20.8368  -49.6483 H         1 UNK         0.0600 
    220 H220       -3.4924  -23.7247  -52.1976 H         1 UNK         0.3000 
    221 H221       -5.4577  -24.7641  -52.2757 H         1 UNK         0.0600 
    222 H222       -6.4437  -22.1379  -53.5333 H         1 UNK         0.0600 
    223 H223       -5.7055  -23.4917  -54.3752 H         1 UNK         0.0600 
    224 H224       -7.2740  -23.6908  -53.6187 H         1 UNK         0.0600 
    225 H225       -7.6759  -22.1889  -51.9006 H         1 UNK         0.3000 
    226 H226       -8.2434  -22.9317  -49.0669 H         1 UNK         0.0600 
    227 H227      -10.0630  -23.3186  -50.7384 H         1 UNK         0.0600 
    228 H228      -10.0249  -21.6123  -51.1812 H         1 UNK         0.0600 
    229 H229      -10.5139  -22.0984  -49.5609 H         1 UNK         0.0600 
    230 H230       -6.0410  -21.2617  -49.6323 H         1 UNK         0.3000 
    231 H231       -4.9782  -19.4223  -49.0073 H         1 UNK         0.0600 
    232 H232       -7.4397  -18.6195  -47.3665 H         1 UNK         0.0600 
    233 H233       -5.8223  -17.9576  -47.2165 H         1 UNK         0.0600 
    234 H234       -6.1179  -19.6322  -46.7888 H         1 UNK         0.0600 
    235 H235       -5.9457  -19.5037  -51.4594 H         1 UNK         0.3000 
    236 H236       -7.6862  -17.4415  -52.3270 H         1 UNK         0.0600 
    237 H237       -5.5591  -19.0502  -53.8426 H         1 UNK         0.0600 
    238 H238       -7.2408  -19.5219  -53.6054 H         1 UNK         0.0600 
    239 H239       -6.8531  -18.1203  -54.5912 H         1 UNK         0.0600 
    240 H240       -4.3266  -17.3042  -51.4878 H         1 UNK         0.3000 
    241 H241       -3.6997  -14.8587  -52.9061 H         1 UNK         0.0600 
    242 H242       -5.5318  -13.7084  -49.5049 H         1 UNK         0.3800 
    243 H243       -5.6787  -15.3490  -50.0820 H         1 UNK         0.3800 
    244 H244       -1.6008  -14.8888  -51.6661 H         1 UNK         0.0800 
    245 H245       -1.9022  -16.4320  -52.4063 H         1 UNK         0.0800 
    246 H246       -0.2819  -14.9836  -49.7352 H         1 UNK         0.0800 
    247 H247       -0.2639  -16.1669  -48.4594 H         1 UNK         0.0800 
@<TRIPOS>BOND
     1    1    2 1    
     2    1  127 1    
     3    1  128 1    
     4    1  129 1    
     5    2    3 2    
     6    2    4 am   BACKBONE|DICT|INTERRES
     7    4    5 1    
     8    4  130 1    
     9    5    6 1    
    10    5   65 1    
    11    5  131 1    
    12    6    7 1    
    13    6  132 1    
    14    6  133 1    
    15    7    8 1    
    16    8    9 1    
    17    8  134 1    
    18    8  135 1    
    19    9   10 ar   
    20    9   14 ar   
    21   10   11 ar   
    22   10  136 1    
    23   11   12 ar   
    24   11  126 1    
    25   12   13 ar   
    26   12  137 1    
    27   13   14 ar   
    28   13   15 1    
    29   14  138 1    
    30   15   16 1    
    31   15  139 1    
    32   15  140 1    
    33   16   17 1    
    34   17   18 1    
    35   17  141 1    
    36   17  142 1    
    37   18   19 1    
    38   18   67 1    
    39   18  143 1    
    40   19   20 am   BACKBONE|DICT|INTERRES
    41   19  144 1    
    42   20   21 2    
    43   20   22 1    
    44   22   23 1    
    45   22   24 1    
    46   22  145 1    
    47   23  146 1    
    48   23  147 1    
    49   23  148 1    
    50   24   25 am   BACKBONE|DICT|INTERRES
    51   24  149 1    
    52   25   26 2    
    53   25   27 1    
    54   27   28 1    
    55   27   29 1    
    56   27  150 1    
    57   28  151 1    
    58   28  152 1    
    59   28  153 1    
    60   29   30 am   BACKBONE|DICT|INTERRES
    61   29  154 1    
    62   30   31 2    
    63   30   32 1    
    64   32   33 1    
    65   32   34 1    
    66   32  155 1    
    67   33  156 1    
    68   33  157 1    
    69   33  158 1    
    70   34   35 am   BACKBONE|DICT|INTERRES
    71   34  159 1    
    72   35   36 2    
    73   35   37 1    
    74   37   38 1    
    75   37   39 1    
    76   37  160 1    
    77   38  161 1    
    78   38  162 1    
    79   38  163 1    
    80   39   40 am   BACKBONE|DICT|INTERRES
    81   39  164 1    
    82   40   41 2    
    83   40   42 1    
    84   42   43 1    
    85   42   44 1    
    86   42  165 1    
    87   43  166 1    
    88   43  167 1    
    89   43  168 1    
    90   44   45 am   BACKBONE|DICT|INTERRES
    91   44  169 1    
    92   45   46 2    
    93   45   47 1    
    94   47   48 1    
    95   47   49 1    
    96   47  170 1    
    97   48  171 1    
    98   48  172 1    
    99   48  173 1    
   100   49   50 am   BACKBONE|DICT|INTERRES
   101   49  174 1    
   102   50   51 2    
   103   50   52 1    
   104   52   53 1    
   105   52   54 1    
   106   52  175 1    
   107   53  176 1    
   108   53  177 1    
   109   53  178 1    
   110   54   55 am   BACKBONE|DICT|INTERRES
   111   54  179 1    
   112   55   56 2    
   113   55   57 1    
   114   57   58 1    
   115   57   59 1    
   116   57  180 1    
   117   58  181 1    
   118   58  182 1    
   119   58  183 1    
   120   59   60 am   BACKBONE|DICT|INTERRES
   121   59  184 1    
   122   60   61 2    
   123   60   62 1    
   124   62   63 1    
   125   62   64 1    
   126   62  185 1    
   127   63  186 1    
   128   63  187 1    
   129   63  188 1    
   130   64   65 am   BACKBONE|DICT|INTERRES
   131   64  189 1    
   132   65   66 2    
   133   67   68 2    
   134   67   69 am   BACKBONE|DICT|INTERRES
   135   69   70 1    
   136   69  190 1    
   137   70   71 1    
   138   70   72 1    
   139   70  191 1    
   140   71  192 1    
   141   71  193 1    
   142   71  194 1    
   143   72   73 2    
   144   72   74 am   BACKBONE|DICT|INTERRES
   145   74   75 1    
   146   74  195 1    
   147   75   76 1    
   148   75   77 1    
   149   75  196 1    
   150   76  197 1    
   151   76  198 1    
   152   76  199 1    
   153   77   78 2    
   154   77   79 am   BACKBONE|DICT|INTERRES
   155   79   80 1    
   156   79  200 1    
   157   80   81 1    
   158   80   82 1    
   159   80  201 1    
   160   81  202 1    
   161   81  203 1    
   162   81  204 1    
   163   82   83 2    
   164   82   84 am   BACKBONE|DICT|INTERRES
   165   84   85 1    
   166   84  205 1    
   167   85   86 1    
   168   85   87 1    
   169   85  206 1    
   170   86  207 1    
   171   86  208 1    
   172   86  209 1    
   173   87   88 2    
   174   87   89 am   BACKBONE|DICT|INTERRES
   175   89   90 1    
   176   89  210 1    
   177   90   91 1    
   178   90   92 1    
   179   90  211 1    
   180   91  212 1    
   181   91  213 1    
   182   91  214 1    
   183   92   93 2    
   184   92   94 am   BACKBONE|DICT|INTERRES
   185   94   95 1    
   186   94  215 1    
   187   95   96 1    
   188   95   97 1    
   189   95  216 1    
   190   96  217 1    
   191   96  218 1    
   192   96  219 1    
   193   97   98 2    
   194   97   99 am   BACKBONE|DICT|INTERRES
   195   99  100 1    
   196   99  220 1    
   197  100  101 1    
   198  100  102 1    
   199  100  221 1    
   200  101  222 1    
   201  101  223 1    
   202  101  224 1    
   203  102  103 2    
   204  102  104 am   BACKBONE|DICT|INTERRES
   205  104  105 1    
   206  104  225 1    
   207  105  106 1    
   208  105  107 1    
   209  105  226 1    
   210  106  227 1    
   211  106  228 1    
   212  106  229 1    
   213  107  108 2    
   214  107  109 am   BACKBONE|DICT|INTERRES
   215  109  110 1    
   216  109  230 1    
   217  110  111 1    
   218  110  112 1    
   219  110  231 1    
   220  111  232 1    
   221  111  233 1    
   222  111  234 1    
   223  112  113 2    
   224  112  114 am   BACKBONE|DICT|INTERRES
   225  114  115 1    
   226  114  235 1    
   227  115  116 1    
   228  115  117 1    
   229  115  236 1    
   230  116  237 1    
   231  116  238 1    
   232  116  239 1    
   233  117  118 2    
   234  117  119 am   BACKBONE|DICT|INTERRES
   235  119  120 1    
   236  119  240 1    
   237  120  121 1    
   238  120  124 1    
   239  120  241 1    
   240  121  122 am   BACKBONE|DICT|INTERRES
   241  121  123 2    
   242  122  242 1    
   243  122  243 1    
   244  124  125 1    
   245  124  244 1    
   246  124  245 1    
   247  125  126 1    
   248  126  246 1    
   249  126  247 1    
@<TRIPOS>SUBSTRUCTURE
     1 UNK         1 GROUP             0       ****    0 ROOT    
