@<TRIPOS>MOLECULE
3R540
247   249    1
SMALL
USER_CHARGES


@<TRIPOS>ATOM
      1 CA          5.9099  -15.4910  -47.0880 C.3       0 UNK        -0.1800 
      2 C           4.5358  -15.1689  -46.5186 C.2       0 UNK         0.5000 
      3 O           4.3756  -15.1144  -45.2998 O.2       0 UNK        -0.5000 
      4 N           3.5466  -14.9601  -47.3970 N.am      1 UNK        -0.5000 
      5 CA          2.1543  -14.6653  -47.0368 C.3       1 UNK         0.1400 
      6 C6          1.1928  -14.8500  -48.2351 C.3       23 UNK        -0.0398 
      7 S7          1.0996  -16.5697  -48.8242 S.3       23 UNK        -0.2404 
      8 C8          2.0250  -16.4840  -50.3854 C.3       23 UNK        -0.0205 
      9 C9          1.8412  -17.7538  -51.2015 C.ar      23 UNK        -0.0193 
     10 C10         1.1342  -17.7210  -52.4072 C.ar      23 UNK        -0.1150 
     11 C11         0.9697  -18.8814  -53.1689 C.ar      23 UNK        -0.0193 
     12 C12         1.5328  -20.0799  -52.7185 C.ar      23 UNK        -0.1150 
     13 C13         2.2342  -20.1286  -51.5098 C.ar      23 UNK        -0.0193 
     14 C14         2.3879  -18.9613  -50.7572 C.ar      23 UNK        -0.1150 
     15 C15         2.8392  -21.4391  -51.0301 C.3       23 UNK        -0.0205 
     16 S16         1.5732  -22.5850  -50.4021 S.3       23 UNK        -0.2404 
     17 C17         1.0906  -21.8059  -48.8246 C.3       23 UNK        -0.0398 
     18 CA          0.5445  -22.8476  -47.8146 C.3       11 UNK         0.1400 
     19 N           0.8159  -22.4595  -46.4298 N.am      11 UNK        -0.5000 
     20 C           0.7369  -23.2792  -45.3746 C.2       10 UNK         0.5000 
     21 O           0.4011  -24.4591  -45.4683 O.2       10 UNK        -0.5000 
     22 CA          1.0104  -22.6871  -43.9781 C.3       10 UNK         0.1400 
     23 CB          1.9782  -23.5602  -43.1557 C.3       10 UNK        -0.1800 
     24 N           1.4212  -21.2800  -43.9818 N.am      10 UNK        -0.5000 
     25 C           2.5769  -20.7298  -44.3830 C.2       9 UNK         0.5000 
     26 O           3.5208  -21.3683  -44.8472 O.2       9 UNK        -0.5000 
     27 CA          2.6819  -19.1923  -44.2740 C.3       9 UNK         0.1400 
     28 CB          2.6306  -18.5597  -45.6730 C.3       9 UNK        -0.1800 
     29 N           1.6263  -18.6010  -43.4430 N.am      9 UNK        -0.5000 
     30 C           1.5566  -18.7100  -42.1074 C.2       8 UNK         0.5000 
     31 O           2.4361  -19.2229  -41.4152 O.2       8 UNK        -0.5000 
     32 CA          0.2578  -18.2199  -41.4441 C.3       8 UNK         0.1400 
     33 CB          0.3367  -16.7189  -41.1257 C.3       8 UNK        -0.1800 
     34 N          -0.9126  -18.4910  -42.2841 N.am      8 UNK        -0.5000 
     35 C          -1.4923  -19.6949  -42.4125 C.2       7 UNK         0.5000 
     36 O          -1.1180  -20.6990  -41.8085 O.2       7 UNK        -0.5000 
     37 CA         -2.6576  -19.8126  -43.4141 C.3       7 UNK         0.1400 
     38 CB         -3.9932  -19.4720  -42.7383 C.3       7 UNK        -0.1800 
     39 N          -2.4723  -18.9503  -44.5807 N.am      7 UNK        -0.5000 
     40 C          -1.5846  -19.1824  -45.5564 C.2       6 UNK         0.5000 
     41 O          -0.9348  -20.2234  -45.6470 O.2       6 UNK        -0.5000 
     42 CA         -1.3665  -18.0717  -46.5988 C.3       6 UNK         0.1400 
     43 CB         -2.0274  -18.4353  -47.9331 C.3       6 UNK        -0.1800 
     44 N          -1.8068  -16.7422  -46.1627 N.am      6 UNK        -0.5000 
     45 C          -1.2617  -16.0623  -45.1464 C.2       5 UNK         0.5000 
     46 O          -0.3111  -16.4901  -44.4886 O.2       5 UNK        -0.5000 
     47 CA         -1.9113  -14.7080  -44.8045 C.3       5 UNK         0.1400 
     48 CB         -1.3679  -14.1022  -43.4983 C.3       5 UNK        -0.1800 
     49 N          -1.7336  -13.7429  -45.8860 N.am      5 UNK        -0.5000 
     50 C          -2.4728  -13.6755  -47.0000 C.2       4 UNK         0.5000 
     51 O          -3.3660  -14.4854  -47.2549 O.2       4 UNK        -0.5000 
     52 CA         -2.1370  -12.5575  -48.0139 C.3       4 UNK         0.1400 
     53 CB         -3.3769  -12.0824  -48.7970 C.3       4 UNK        -0.1800 
     54 N          -1.4022  -11.4133  -47.4598 N.am      4 UNK        -0.5000 
     55 C          -1.7910  -10.5591  -46.5027 C.2       3 UNK         0.5000 
     56 O          -2.8661  -10.6461  -45.9075 O.2       3 UNK        -0.5000 
     57 CA         -0.7975   -9.4233  -46.1543 C.3       3 UNK         0.1400 
     58 CB         -1.2280   -8.6198  -44.9136 C.3       3 UNK        -0.1800 
     59 N           0.5688   -9.9111  -45.9407 N.am      3 UNK        -0.5000 
     60 C           1.4410  -10.2605  -46.8953 C.2       2 UNK         0.5000 
     61 O           1.1931  -10.1767  -48.0995 O.2       2 UNK        -0.5000 
     62 CA          2.7842  -10.8796  -46.4493 C.3       2 UNK         0.1400 
     63 CB          3.1072  -10.6810  -44.9510 C.3       2 UNK        -0.1800 
     64 N           2.8477  -12.3025  -46.8064 N.am      2 UNK        -0.5000 
     65 C           1.9714  -13.2533  -46.4432 C.2       1 UNK         0.5000 
     66 O           1.0180  -13.0465  -45.6940 O.2       1 UNK        -0.5000 
     67 C          -0.9529  -23.1495  -48.0404 C.2       11 UNK         0.5000 
     68 O          -1.2839  -24.0749  -48.7851 O.2       11 UNK        -0.5000 
     69 N          -1.8408  -22.3947  -47.3743 N.am      12 UNK        -0.5000 
     70 CA         -3.2817  -22.6613  -47.3812 C.3       12 UNK         0.1400 
     71 CB         -4.0750  -21.3915  -47.0478 C.3       12 UNK        -0.1800 
     72 C          -3.6612  -23.8096  -46.4330 C.2       12 UNK         0.5000 
     73 O          -4.5748  -24.5685  -46.7523 O.2       12 UNK        -0.5000 
     74 N          -2.9335  -23.9451  -45.3142 N.am      13 UNK        -0.5000 
     75 CA         -3.1188  -25.0125  -44.3253 C.3       13 UNK         0.1400 
     76 CB         -2.3048  -24.6936  -43.0619 C.3       13 UNK        -0.1800 
     77 C          -2.7481  -26.4002  -44.8829 C.2       13 UNK         0.5000 
     78 O          -3.4529  -27.3742  -44.6186 O.2       13 UNK        -0.5000 
     79 N          -1.6776  -26.4497  -45.6874 N.am      14 UNK        -0.5000 
     80 CA         -1.2436  -27.6229  -46.4485 C.3       14 UNK         0.1400 
     81 CB          0.2165  -27.4083  -46.8797 C.3       14 UNK        -0.1800 
     82 C          -2.1221  -27.9130  -47.6841 C.2       14 UNK         0.5000 
     83 O          -1.9607  -28.9686  -48.2972 O.2       14 UNK        -0.5000 
     84 N          -3.0051  -26.9671  -48.0426 N.am      15 UNK        -0.5000 
     85 CA         -3.8790  -26.9521  -49.2208 C.3       15 UNK         0.1400 
     86 CB         -4.9184  -28.0897  -49.1591 C.3       15 UNK        -0.1800 
     87 C          -3.1025  -26.9108  -50.5545 C.2       15 UNK         0.5000 
     88 O          -3.6126  -27.3656  -51.5793 O.2       15 UNK        -0.5000 
     89 N          -1.8879  -26.3474  -50.5203 N.am      16 UNK        -0.5000 
     90 CA         -1.0462  -26.1114  -51.6893 C.3       16 UNK         0.1400 
     91 CB          0.4258  -26.0560  -51.2542 C.3       16 UNK        -0.1800 
     92 C          -1.4799  -24.8248  -52.4097 C.2       16 UNK         0.5000 
     93 O          -1.6617  -24.8431  -53.6275 O.2       16 UNK        -0.5000 
     94 N          -1.6898  -23.7505  -51.6354 N.am      17 UNK        -0.5000 
     95 CA         -2.3137  -22.5148  -52.1096 C.3       17 UNK         0.1400 
     96 CB         -1.8811  -21.3271  -51.2326 C.3       17 UNK        -0.1800 
     97 C          -3.8438  -22.6395  -52.1072 C.2       17 UNK         0.5000 
     98 O          -4.4963  -22.2073  -53.0566 O.2       17 UNK        -0.5000 
     99 N          -4.3728  -23.2207  -51.0176 N.am      18 UNK        -0.5000 
    100 CA        -5.7907  -23.4667  -50.7161 C.3       18 UNK         0.1400 
    101 CB        -6.3687  -24.5141  -51.6891 C.3       18 UNK        -0.1800 
    102 C         -6.6735  -22.1978  -50.6332 C.2       18 UNK         0.5000 
    103 O         -7.8995  -22.3147  -50.6034 O.2       18 UNK        -0.5000 
    104 N         -6.0509  -21.0155  -50.5774 N.am      19 UNK        -0.5000 
    105 CA        -6.6776  -19.6999  -50.5608 C.3       19 UNK         0.1400 
    106 CB        -7.2784  -19.3789  -51.9431 C.3       19 UNK        -0.1800 
    107 C         -5.6131  -18.6619  -50.1822 C.2       19 UNK         0.5000 
    108 O         -4.4161  -18.9442  -50.3008 O.2       19 UNK        -0.5000 
    109 N         -6.0755  -17.4800  -49.7529 N.am      20 UNK        -0.5000 
    110 CA        -5.2801  -16.3128  -49.3643 C.3       20 UNK         0.1400 
    111 CB        -6.2399  -15.1878  -48.9410 C.3       20 UNK        -0.1800 
    112 C         -4.3370  -15.8549  -50.4934 C.2       20 UNK         0.5000 
    113 O         -4.7902  -15.2289  -51.4534 O.2       20 UNK        -0.5000 
    114 N         -3.0629  -16.2568  -50.3876 N.am      21 UNK        -0.5000 
    115 CA        -1.9893  -16.1069  -51.3768 C.3       21 UNK         0.1400 
    116 CB        -1.4670  -14.6580  -51.3986 C.3       21 UNK        -0.1800 
    117 C         -2.3683  -16.6442  -52.7739 C.2       21 UNK         0.5000 
    118 O         -2.0523  -16.0163  -53.7855 O.2       21 UNK        -0.5000 
    119 N         -3.0657  -17.7881  -52.7877 N.am      22 UNK        -0.5000 
    120 CA        -3.6461  -18.4427  -53.9738 C.3       22 UNK         0.1400 
    121 C         -4.8830  -17.7069  -54.5781 C.2       22 UNK         0.5000 
    122 N         -5.4353  -16.6753  -53.9492 N.am      22 UNK        -0.7600 
    123 O         -5.3818  -18.1004  -55.6289 O.2       22 UNK        -0.5000 
    124 C124       -2.6016  -18.8177  -55.0679 C.3       23 UNK        -0.0398 
    125 S125       -1.2696  -19.9030  -54.4519 S.3       23 UNK        -0.2404 
    126 C126        0.2058  -18.8334  -54.4861 C.3       23 UNK        -0.0205 
    127 H127        5.9033  -15.5120  -48.1780 H         1 UNK         0.0600 
    128 H128        6.6343  -14.7429  -46.7661 H         1 UNK         0.0600 
    129 H129        6.2432  -16.4658  -46.7317 H         1 UNK         0.0600 
    130 H130        3.7412  -15.0300  -48.3847 H         1 UNK         0.3000 
    131 H131        1.8523  -15.3667  -46.2562 H         1 UNK         0.0600 
    132 H132        1.4586  -14.1831  -49.0570 H         1 UNK         0.0800 
    133 H133        0.1780  -14.5817  -47.9451 H         1 UNK         0.0800 
    134 H134        3.0851  -16.3384  -50.1752 H         1 UNK         0.0800 
    135 H135        1.6955  -15.6154  -50.9575 H         1 UNK         0.0800 
    136 H136        0.7165  -16.7881  -52.7582 H         1 UNK         0.1150 
    137 H137        1.4122  -20.9810  -53.3036 H         1 UNK         0.1150 
    138 H138        2.9318  -18.9884  -49.8233 H         1 UNK         0.1150 
    139 H139        3.3591  -21.9159  -51.8621 H         1 UNK         0.0800 
    140 H140        3.5936  -21.2653  -50.2613 H         1 UNK         0.0800 
    141 H141        1.9809  -21.3268  -48.4145 H         1 UNK         0.0800 
    142 H142        0.3787  -20.9994  -49.0114 H         1 UNK         0.0800 
    143 H143        1.0797  -23.7869  -47.9735 H         1 UNK         0.0600 
    144 H144        1.0053  -21.4838  -46.2520 H         1 UNK         0.3000 
    145 H145        0.0497  -22.6981  -43.4630 H         1 UNK         0.0600 
    146 H146        2.1422  -23.1393  -42.1637 H         1 UNK         0.0600 
    147 H147        1.5764  -24.5648  -43.0184 H         1 UNK         0.0600 
    148 H148        2.9478  -23.6638  -43.6431 H         1 UNK         0.0600 
    149 H149        0.7125  -20.6390  -43.6549 H         1 UNK         0.3000 
    150 H150        3.6478  -18.9540  -43.8240 H         1 UNK         0.0600 
    151 H151        3.4892  -18.8661  -46.2717 H         1 UNK         0.0600 
    152 H152        2.6483  -17.4726  -45.6151 H         1 UNK         0.0600 
    153 H153        1.7348  -18.8558  -46.2169 H         1 UNK         0.0600 
    154 H154        0.8957  -18.0849  -43.9212 H         1 UNK         0.3000 
    155 H155        0.1391  -18.7568  -40.5003 H         1 UNK         0.0600 
    156 H156       -0.5843  -16.3630  -40.6640 H         1 UNK         0.0600 
    157 H157        0.5192  -16.1213  -42.0188 H         1 UNK         0.0600 
    158 H158        1.1498  -16.5145  -40.4283 H         1 UNK         0.0600 
    159 H159       -1.2269  -17.7283  -42.8674 H         1 UNK         0.3000 
    160 H160       -2.7033  -20.8507  -43.7508 H         1 UNK         0.0600 
    161 H161       -4.0179  -18.4391  -42.3887 H         1 UNK         0.0600 
    162 H162       -4.1687  -20.1156  -41.8752 H         1 UNK         0.0600 
    163 H163       -4.8285  -19.6150  -43.4241 H         1 UNK         0.0600 
    164 H164       -2.9972  -18.0891  -44.6019 H         1 UNK         0.3000 
    165 H165       -0.2917  -18.0222  -46.7654 H         1 UNK         0.0600 
    166 H166       -3.1133  -18.3617  -47.8801 H         1 UNK         0.0600 
    167 H167       -1.6712  -17.7805  -48.7242 H         1 UNK         0.0600 
    168 H168       -1.7764  -19.4521  -48.2382 H         1 UNK         0.0600 
    169 H169       -2.5654  -16.3015  -46.6710 H         1 UNK         0.3000 
    170 H170       -2.9795  -14.8842  -44.6621 H         1 UNK         0.0600 
    171 H171       -1.5613  -14.7631  -42.6529 H         1 UNK         0.0600 
    172 H172       -0.2915  -13.9341  -43.5440 H         1 UNK         0.0600 
    173 H173       -1.8457  -13.1473  -43.2786 H         1 UNK         0.0600 
    174 H174       -0.9359  -13.1222  -45.7888 H         1 UNK         0.3000 
    175 H175       -1.4562  -13.0065  -48.7334 H         1 UNK         0.0600 
    176 H176       -3.1195  -11.2942  -49.5045 H         1 UNK         0.0600 
    177 H177       -3.8121  -12.8990  -49.3736 H         1 UNK         0.0600 
    178 H178       -4.1516  -11.6988  -48.1324 H         1 UNK         0.0600 
    179 H179       -0.4946  -11.2296  -47.8756 H         1 UNK         0.3000 
    180 H180       -0.7922   -8.7380  -47.0043 H         1 UNK         0.0600 
    181 H181       -0.5364   -7.8009  -44.7146 H         1 UNK         0.0600 
    182 H182       -2.2159   -8.1790  -45.0538 H         1 UNK         0.0600 
    183 H183       -1.2702   -9.2478  -44.0229 H         1 UNK         0.0600 
    184 H184        0.8316  -10.0822  -44.9810 H         1 UNK         0.3000 
    185 H185        3.5610  -10.3744  -47.0251 H         1 UNK         0.0600 
    186 H186        4.1003  -11.0645  -44.7168 H         1 UNK         0.0600 
    187 H187        3.1021   -9.6232  -44.6846 H         1 UNK         0.0600 
    188 H188        2.3990  -11.1930  -44.2988 H         1 UNK         0.0600 
    189 H189        3.5883  -12.5627  -47.4417 H         1 UNK         0.3000 
    190 H190       -1.5008  -21.6528  -46.7680 H         1 UNK         0.3000 
    191 H191       -3.5746  -22.9654  -48.3862 H         1 UNK         0.0600 
    192 H192       -5.1477  -21.5889  -47.0641 H         1 UNK         0.0600 
    193 H193       -3.8875  -20.6085  -47.7805 H         1 UNK         0.0600 
    194 H194       -3.8318  -21.0081  -46.0581 H         1 UNK         0.0600 
    195 H195       -2.1820  -23.2948  -45.1477 H         1 UNK         0.3000 
    196 H196       -4.1758  -25.0338  -44.0511 H         1 UNK         0.0600 
    197 H197       -2.5205  -25.4145  -42.2724 H         1 UNK         0.0600 
    198 H198       -2.5441  -23.7039  -42.6718 H         1 UNK         0.0600 
    199 H199       -1.2322  -24.7334  -43.2501 H         1 UNK         0.0600 
    200 H200       -1.0952  -25.6214  -45.7765 H         1 UNK         0.3000 
    201 H201       -1.2876  -28.4987  -45.7980 H         1 UNK         0.0600 
    202 H202        0.8639  -27.2538  -46.0162 H         1 UNK         0.0600 
    203 H203        0.3180  -26.5401  -47.5329 H         1 UNK         0.0600 
    204 H204        0.5997  -28.2741  -47.4212 H         1 UNK         0.0600 
    205 H205       -3.0757  -26.1527  -47.4480 H         1 UNK         0.3000 
    206 H206       -4.4282  -26.0115  -49.1710 H         1 UNK         0.0600 
    207 H207       -5.4494  -28.0859  -48.2071 H         1 UNK         0.0600 
    208 H208       -5.6656  -27.9793  -49.9459 H         1 UNK         0.0600 
    209 H209       -4.4568  -29.0696  -49.2832 H         1 UNK         0.0600 
    210 H210       -1.5722  -25.9357  -49.6500 H         1 UNK         0.3000 
    211 H211       -1.1573  -26.9428  -52.3889 H         1 UNK         0.0600 
    212 H212        0.5852  -25.3285  -50.4593 H         1 UNK         0.0600 
    213 H213        1.0738  -25.7841  -52.0883 H         1 UNK         0.0600 
    214 H214        0.7589  -27.0255  -50.8837 H         1 UNK         0.0600 
    215 H215       -1.4871  -23.8242  -50.6433 H         1 UNK         0.3000 
    216 H216       -1.9917  -22.3239  -53.1338 H         1 UNK         0.0600 
    217 H217       -2.3632  -20.4061  -51.5612 H         1 UNK         0.0600 
    218 H218       -0.8079  -21.1594  -51.2996 H         1 UNK         0.0600 
    219 H219       -2.1398  -21.4698  -50.1841 H         1 UNK         0.0600 
    220 H220       -3.7219  -23.5389  -50.3166 H         1 UNK         0.3000 
    221 H221       -5.8126  -23.9027  -49.7162 H         1 UNK         0.0600 
    222 H222       -6.4355  -24.1259  -52.7059 H         1 UNK         0.0600 
    223 H223       -5.7529  -25.4129  -51.7141 H         1 UNK         0.0600 
    224 H224       -7.3717  -24.8199  -51.3895 H         1 UNK         0.0600 
    225 H225       -5.0398  -20.9813  -50.5787 H         1 UNK         0.3000 
    226 H226       -7.4615  -19.6876  -49.8011 H         1 UNK         0.0600 
    227 H227       -7.6728  -18.3627  -51.9814 H         1 UNK         0.0600 
    228 H228       -6.5321  -19.4719  -52.7323 H         1 UNK         0.0600 
    229 H229       -8.1016  -20.0507  -52.1856 H         1 UNK         0.0600 
    230 H230       -7.0757  -17.3473  -49.7203 H         1 UNK         0.3000 
    231 H231       -4.6810  -16.5872  -48.4945 H         1 UNK         0.0600 
    232 H232       -5.6912  -14.2911  -48.6527 H         1 UNK         0.0600 
    233 H233       -6.8418  -15.4857  -48.0825 H         1 UNK         0.0600 
    234 H234       -6.9192  -14.9097  -49.7478 H         1 UNK         0.0600 
    235 H235       -2.8281  -16.8302  -49.5911 H         1 UNK         0.3000 
    236 H236       -1.1728  -16.7415  -51.0317 H         1 UNK         0.0600 
    237 H237       -2.2541  -13.9455  -51.6466 H         1 UNK         0.0600 
    238 H238       -1.0519  -14.3880  -50.4305 H         1 UNK         0.0600 
    239 H239       -0.6657  -14.5350  -52.1281 H         1 UNK         0.0600 
    240 H240       -3.3162  -18.2058  -51.8980 H         1 UNK         0.3000 
    241 H241       -4.0544  -19.3803  -53.5949 H         1 UNK         0.0600 
    242 H242       -6.2385  -16.2287  -54.3613 H         1 UNK         0.3800 
    243 H243       -5.0458  -16.2973  -53.0920 H         1 UNK         0.3800 
    244 H244       -2.1852  -17.9266  -55.5373 H         1 UNK         0.0800 
    245 H245       -3.0904  -19.3662  -55.8745 H         1 UNK         0.0800 
    246 H246        0.8621  -19.1635  -55.2921 H         1 UNK         0.0800 
    247 H247       -0.0740  -17.8066  -54.7231 H         1 UNK         0.0800 
@<TRIPOS>BOND
     1    1    2 1    
     2    1  127 1    
     3    1  128 1    
     4    1  129 1    
     5    2    3 2    
     6    2    4 am   BACKBONE|DICT|INTERRES
     7    4    5 1    
     8    4  130 1    
     9    5    6 1    
    10    5   65 1    
    11    5  131 1    
    12    6    7 1    
    13    6  132 1    
    14    6  133 1    
    15    7    8 1    
    16    8    9 1    
    17    8  134 1    
    18    8  135 1    
    19    9   10 ar   
    20    9   14 ar   
    21   10   11 ar   
    22   10  136 1    
    23   11   12 ar   
    24   11  126 1    
    25   12   13 ar   
    26   12  137 1    
    27   13   14 ar   
    28   13   15 1    
    29   14  138 1    
    30   15   16 1    
    31   15  139 1    
    32   15  140 1    
    33   16   17 1    
    34   17   18 1    
    35   17  141 1    
    36   17  142 1    
    37   18   19 1    
    38   18   67 1    
    39   18  143 1    
    40   19   20 am   BACKBONE|DICT|INTERRES
    41   19  144 1    
    42   20   21 2    
    43   20   22 1    
    44   22   23 1    
    45   22   24 1    
    46   22  145 1    
    47   23  146 1    
    48   23  147 1    
    49   23  148 1    
    50   24   25 am   BACKBONE|DICT|INTERRES
    51   24  149 1    
    52   25   26 2    
    53   25   27 1    
    54   27   28 1    
    55   27   29 1    
    56   27  150 1    
    57   28  151 1    
    58   28  152 1    
    59   28  153 1    
    60   29   30 am   BACKBONE|DICT|INTERRES
    61   29  154 1    
    62   30   31 2    
    63   30   32 1    
    64   32   33 1    
    65   32   34 1    
    66   32  155 1    
    67   33  156 1    
    68   33  157 1    
    69   33  158 1    
    70   34   35 am   BACKBONE|DICT|INTERRES
    71   34  159 1    
    72   35   36 2    
    73   35   37 1    
    74   37   38 1    
    75   37   39 1    
    76   37  160 1    
    77   38  161 1    
    78   38  162 1    
    79   38  163 1    
    80   39   40 am   BACKBONE|DICT|INTERRES
    81   39  164 1    
    82   40   41 2    
    83   40   42 1    
    84   42   43 1    
    85   42   44 1    
    86   42  165 1    
    87   43  166 1    
    88   43  167 1    
    89   43  168 1    
    90   44   45 am   BACKBONE|DICT|INTERRES
    91   44  169 1    
    92   45   46 2    
    93   45   47 1    
    94   47   48 1    
    95   47   49 1    
    96   47  170 1    
    97   48  171 1    
    98   48  172 1    
    99   48  173 1    
   100   49   50 am   BACKBONE|DICT|INTERRES
   101   49  174 1    
   102   50   51 2    
   103   50   52 1    
   104   52   53 1    
   105   52   54 1    
   106   52  175 1    
   107   53  176 1    
   108   53  177 1    
   109   53  178 1    
   110   54   55 am   BACKBONE|DICT|INTERRES
   111   54  179 1    
   112   55   56 2    
   113   55   57 1    
   114   57   58 1    
   115   57   59 1    
   116   57  180 1    
   117   58  181 1    
   118   58  182 1    
   119   58  183 1    
   120   59   60 am   BACKBONE|DICT|INTERRES
   121   59  184 1    
   122   60   61 2    
   123   60   62 1    
   124   62   63 1    
   125   62   64 1    
   126   62  185 1    
   127   63  186 1    
   128   63  187 1    
   129   63  188 1    
   130   64   65 am   BACKBONE|DICT|INTERRES
   131   64  189 1    
   132   65   66 2    
   133   67   68 2    
   134   67   69 am   BACKBONE|DICT|INTERRES
   135   69   70 1    
   136   69  190 1    
   137   70   71 1    
   138   70   72 1    
   139   70  191 1    
   140   71  192 1    
   141   71  193 1    
   142   71  194 1    
   143   72   73 2    
   144   72   74 am   BACKBONE|DICT|INTERRES
   145   74   75 1    
   146   74  195 1    
   147   75   76 1    
   148   75   77 1    
   149   75  196 1    
   150   76  197 1    
   151   76  198 1    
   152   76  199 1    
   153   77   78 2    
   154   77   79 am   BACKBONE|DICT|INTERRES
   155   79   80 1    
   156   79  200 1    
   157   80   81 1    
   158   80   82 1    
   159   80  201 1    
   160   81  202 1    
   161   81  203 1    
   162   81  204 1    
   163   82   83 2    
   164   82   84 am   BACKBONE|DICT|INTERRES
   165   84   85 1    
   166   84  205 1    
   167   85   86 1    
   168   85   87 1    
   169   85  206 1    
   170   86  207 1    
   171   86  208 1    
   172   86  209 1    
   173   87   88 2    
   174   87   89 am   BACKBONE|DICT|INTERRES
   175   89   90 1    
   176   89  210 1    
   177   90   91 1    
   178   90   92 1    
   179   90  211 1    
   180   91  212 1    
   181   91  213 1    
   182   91  214 1    
   183   92   93 2    
   184   92   94 am   BACKBONE|DICT|INTERRES
   185   94   95 1    
   186   94  215 1    
   187   95   96 1    
   188   95   97 1    
   189   95  216 1    
   190   96  217 1    
   191   96  218 1    
   192   96  219 1    
   193   97   98 2    
   194   97   99 am   BACKBONE|DICT|INTERRES
   195   99  100 1    
   196   99  220 1    
   197  100  101 1    
   198  100  102 1    
   199  100  221 1    
   200  101  222 1    
   201  101  223 1    
   202  101  224 1    
   203  102  103 2    
   204  102  104 am   BACKBONE|DICT|INTERRES
   205  104  105 1    
   206  104  225 1    
   207  105  106 1    
   208  105  107 1    
   209  105  226 1    
   210  106  227 1    
   211  106  228 1    
   212  106  229 1    
   213  107  108 2    
   214  107  109 am   BACKBONE|DICT|INTERRES
   215  109  110 1    
   216  109  230 1    
   217  110  111 1    
   218  110  112 1    
   219  110  231 1    
   220  111  232 1    
   221  111  233 1    
   222  111  234 1    
   223  112  113 2    
   224  112  114 am   BACKBONE|DICT|INTERRES
   225  114  115 1    
   226  114  235 1    
   227  115  116 1    
   228  115  117 1    
   229  115  236 1    
   230  116  237 1    
   231  116  238 1    
   232  116  239 1    
   233  117  118 2    
   234  117  119 am   BACKBONE|DICT|INTERRES
   235  119  120 1    
   236  119  240 1    
   237  120  121 1    
   238  120  124 1    
   239  120  241 1    
   240  121  122 am   BACKBONE|DICT|INTERRES
   241  121  123 2    
   242  122  242 1    
   243  122  243 1    
   244  124  125 1    
   245  124  244 1    
   246  124  245 1    
   247  125  126 1    
   248  126  246 1    
   249  126  247 1    
@<TRIPOS>SUBSTRUCTURE
     1 UNK         1 GROUP             0       ****    0 ROOT    
