@<TRIPOS>MOLECULE
3R540
247   249    1
SMALL
USER_CHARGES


@<TRIPOS>ATOM
      1 CA          0.8724  -16.9385  -53.4449 C.3       0 UNK        -0.1800 
      2 C           0.7787  -16.7122  -51.9429 C.2       0 UNK         0.5000 
      3 O           0.5113  -17.6546  -51.1987 O.2       0 UNK        -0.5000 
      4 N           0.9910  -15.4659  -51.5011 N.am      1 UNK        -0.5000 
      5 CA          0.9124  -15.0389  -50.1006 C.3       1 UNK         0.1400 
      6 C6          0.9568  -13.4918  -49.9329 C.3       23 UNK        -0.0398 
      7 S7          0.0349  -12.5290  -51.1891 S.3       23 UNK        -0.2404 
      8 C8         -1.6254  -12.3704  -50.4600 C.3       23 UNK        -0.0205 
      9 C9         -2.4105  -13.6639  -50.5963 C.ar      23 UNK        -0.0193 
     10 C10        -2.9451  -14.0362  -51.8343 C.ar      23 UNK        -0.1150 
     11 C11        -3.6148  -15.2547  -51.9829 C.ar      23 UNK        -0.0193 
     12 C12        -3.7528  -16.0950  -50.8747 C.ar      23 UNK        -0.1150 
     13 C13        -3.2332  -15.7280  -49.6321 C.ar      23 UNK        -0.0193 
     14 C14        -2.5749  -14.5046  -49.4938 C.ar      23 UNK        -0.1150 
     15 C15        -3.3374  -16.6731  -48.4501 C.3       23 UNK        -0.0205 
     16 S16        -1.9544  -17.8490  -48.4719 S.3       23 UNK        -0.2404 
     17 C17        -1.9973  -18.4514  -46.7596 C.3       23 UNK        -0.0398 
     18 CA         -1.4525  -19.8926  -46.6218 C.3       11 UNK         0.1400 
     19 N          -0.8279  -20.1164  -45.3176 N.am      11 UNK        -0.5000 
     20 C          -0.0917  -21.1877  -44.9932 C.2       10 UNK         0.5000 
     21 O           0.1496  -22.1124  -45.7680 O.2       10 UNK        -0.5000 
     22 CA          0.4201  -21.2587  -43.5441 C.3       10 UNK         0.1400 
     23 CB          1.6408  -20.3489  -43.3466 C.3       10 UNK        -0.1800 
     24 N          -0.6121  -20.9068  -42.5701 N.am      10 UNK        -0.5000 
     25 C          -1.7517  -21.5889  -42.3899 C.2       9 UNK         0.5000 
     26 O          -2.0460  -22.6124  -43.0073 O.2       9 UNK        -0.5000 
     27 CA         -2.7522  -20.9971  -41.3849 C.3       9 UNK         0.1400 
     28 CB         -2.3401  -21.3237  -39.9415 C.3       9 UNK        -0.1800 
     29 N          -2.8919  -19.5501  -41.5423 N.am      9 UNK        -0.5000 
     30 C          -3.4549  -18.9556  -42.6034 C.2       8 UNK         0.5000 
     31 O          -3.9275  -19.5650  -43.5632 O.2       8 UNK        -0.5000 
     32 CA         -3.4460  -17.4165  -42.6108 C.3       8 UNK         0.1400 
     33 CB         -4.5830  -16.8603  -41.7406 C.3       8 UNK        -0.1800 
     34 N          -2.1701  -16.8481  -42.1701 N.am      8 UNK        -0.5000 
     35 C          -1.0084  -17.0290  -42.8119 C.2       7 UNK         0.5000 
     36 O          -0.8805  -17.7237  -43.8162 O.2       7 UNK        -0.5000 
     37 CA          0.2337  -16.3525  -42.2170 C.3       7 UNK         0.1400 
     38 CB          0.2279  -14.8519  -42.5492 C.3       7 UNK        -0.1800 
     39 N           0.4077  -16.5489  -40.7748 N.am      7 UNK        -0.5000 
     40 C           0.3768  -17.7225  -40.1243 C.2       6 UNK         0.5000 
     41 O           0.0996  -18.7993  -40.6559 O.2       6 UNK        -0.5000 
     42 CA          0.8110  -17.6753  -38.6510 C.3       6 UNK         0.1400 
     43 CB          0.6450  -19.0258  -37.9311 C.3       6 UNK        -0.1800 
     44 N           2.2178  -17.2890  -38.6331 N.am      6 UNK        -0.5000 
     45 C           2.7359  -16.2223  -38.0130 C.2       5 UNK         0.5000 
     46 O           2.1032  -15.4974  -37.2445 O.2       5 UNK        -0.5000 
     47 CA          4.2060  -15.8870  -38.3464 C.3       5 UNK         0.1400 
     48 CB          5.1525  -16.5426  -37.3293 C.3       5 UNK        -0.1800 
     49 N           4.5982  -16.2937  -39.7028 N.am      5 UNK        -0.5000 
     50 C           4.0730  -15.7878  -40.8281 C.2       4 UNK         0.5000 
     51 O           3.2514  -14.8688  -40.8341 O.2       4 UNK        -0.5000 
     52 CA          4.5006  -16.4654  -42.1469 C.3       4 UNK         0.1400 
     53 CB          4.0715  -17.9437  -42.1659 C.3       4 UNK        -0.1800 
     54 N           3.9246  -15.8103  -43.3223 N.am      4 UNK        -0.5000 
     55 C           4.3495  -14.6577  -43.8557 C.2       3 UNK         0.5000 
     56 O           5.3138  -14.0247  -43.4207 O.2       3 UNK        -0.5000 
     57 CA          3.5631  -14.1306  -45.0817 C.3       3 UNK         0.1400 
     58 CB          4.4129  -13.2079  -45.9802 C.3       3 UNK        -0.1800 
     59 N           2.9208  -15.1766  -45.8941 N.am      3 UNK        -0.5000 
     60 C           3.5216  -16.2106  -46.5058 C.2       2 UNK         0.5000 
     61 O           4.7271  -16.4518  -46.4408 O.2       2 UNK        -0.5000 
     62 CA          2.6097  -17.1342  -47.3330 C.3       2 UNK         0.1400 
     63 CB          1.8432  -18.0982  -46.4159 C.3       2 UNK        -0.1800 
     64 N           1.6657  -16.4047  -48.1859 N.am      2 UNK        -0.5000 
     65 C           2.0319  -15.7026  -49.2682 C.2       1 UNK         0.5000 
     66 O           3.2038  -15.5678  -49.6292 O.2       1 UNK        -0.5000 
     67 C          -2.5286  -20.9476  -46.9372 C.2       11 UNK         0.5000 
     68 O          -2.5674  -21.4462  -48.0619 O.2       11 UNK        -0.5000 
     69 N          -3.3452  -21.3066  -45.9353 N.am      12 UNK        -0.5000 
     70 CA         -4.3425  -22.3723  -46.0301 C.3       12 UNK         0.1400 
     71 CB         -5.2378  -22.3616  -44.7822 C.3       12 UNK        -0.1800 
     72 C          -3.7062  -23.7583  -46.2398 C.2       12 UNK         0.5000 
     73 O          -4.1622  -24.5039  -47.1066 O.2       12 UNK        -0.5000 
     74 N          -2.6451  -24.0619  -45.4777 N.am      13 UNK        -0.5000 
     75 CA         -1.8801  -25.3082  -45.5712 C.3       13 UNK         0.1400 
     76 CB         -0.8810  -25.3866  -44.4069 C.3       13 UNK        -0.1800 
     77 C          -1.1574  -25.4743  -46.9212 C.2       13 UNK         0.5000 
     78 O          -1.1540  -26.5723  -47.4786 O.2       13 UNK        -0.5000 
     79 N          -0.5855  -24.3774  -47.4351 N.am      14 UNK        -0.5000 
     80 CA          0.0724  -24.3128  -48.7417 C.3       14 UNK         0.1400 
     81 CB          1.0143  -23.0975  -48.7564 C.3       14 UNK        -0.1800 
     82 C          -0.9132  -24.2266  -49.9242 C.2       14 UNK         0.5000 
     83 O          -0.4774  -24.3286  -51.0718 O.2       14 UNK        -0.5000 
     84 N          -2.2004  -23.9793  -49.6384 N.am      15 UNK        -0.5000 
     85 CA         -3.2849  -23.6938  -50.5835 C.3       15 UNK         0.1400 
     86 CB         -3.6651  -24.9592  -51.3781 C.3       15 UNK        -0.1800 
     87 C          -2.9641  -22.4862  -51.4884 C.2       15 UNK         0.5000 
     88 O          -3.2190  -22.5314  -52.6927 O.2       15 UNK        -0.5000 
     89 N          -2.3944  -21.4356  -50.8795 N.am      16 UNK        -0.5000 
     90 CA         -1.8587  -20.2225  -51.5058 C.3       16 UNK         0.1400 
     91 CB         -2.9920  -19.3817  -52.1229 C.3       16 UNK        -0.1800 
     92 C          -0.7303  -20.5334  -52.5083 C.2       16 UNK         0.5000 
     93 O          -0.7537  -20.0457  -53.6369 O.2       16 UNK        -0.5000 
     94 N           0.2095  -21.3966  -52.0934 N.am      17 UNK        -0.5000 
     95 CA          1.2941  -21.9611  -52.9082 C.3       17 UNK         0.1400 
     96 CB          2.3278  -20.8756  -53.2735 C.3       17 UNK        -0.1800 
     97 C           0.7456  -22.7218  -54.1358 C.2       17 UNK         0.5000 
     98 O           1.2167  -22.5309  -55.2581 O.2       17 UNK        -0.5000 
     99 N          -0.2810  -23.5427  -53.8769 N.am      18 UNK        -0.5000 
    100 CA        -1.0844  -24.3261  -54.8179 C.3       18 UNK         0.1400 
    101 CB        -0.2133  -25.3474  -55.5780 C.3       18 UNK        -0.1800 
    102 C         -1.9823  -23.5009  -55.7674 C.2       18 UNK         0.5000 
    103 O         -2.6094  -24.0930  -56.6476 O.2       18 UNK        -0.5000 
    104 N         -2.1022  -22.1788  -55.5695 N.am      19 UNK        -0.5000 
    105 CA        -2.9829  -21.2899  -56.3376 C.3       19 UNK         0.1400 
    106 CB        -2.4025  -19.8646  -56.3497 C.3       19 UNK        -0.1800 
    107 C         -4.4431  -21.3273  -55.8327 C.2       19 UNK         0.5000 
    108 O         -5.0541  -20.2765  -55.6234 O.2       19 UNK        -0.5000 
    109 N         -4.9734  -22.5446  -55.6418 N.am      20 UNK        -0.5000 
    110 CA        -6.3596  -22.8895  -55.3012 C.3       20 UNK         0.1400 
    111 CB        -7.2546  -22.6992  -56.5430 C.3       20 UNK        -0.1800 
    112 C         -6.9211  -22.1622  -54.0592 C.2       20 UNK         0.5000 
    113 O         -8.1098  -21.8366  -54.0266 O.2       20 UNK        -0.5000 
    114 N         -6.0517  -21.8768  -53.0770 N.am      21 UNK        -0.5000 
    115 CA        -6.3336  -21.1107  -51.8549 C.3       21 UNK         0.1400 
    116 CB        -7.2273  -21.9274  -50.8996 C.3       21 UNK        -0.1800 
    117 C         -6.8771  -19.6890  -52.1292 C.2       21 UNK         0.5000 
    118 O         -7.6519  -19.1615  -51.3299 O.2       21 UNK        -0.5000 
    119 N         -6.4648  -19.1017  -53.2620 N.am      22 UNK        -0.5000 
    120 CA        -6.9474  -17.8252  -53.8125 C.3       22 UNK         0.1400 
    121 C         -8.3784  -17.8849  -54.4328 C.2       22 UNK         0.5000 
    122 N         -8.9904  -19.0519  -54.6031 N.am      22 UNK        -0.7600 
    123 O         -8.9405  -16.8556  -54.7968 O.2       22 UNK        -0.5000 
    124 C124       -6.7457  -16.6201  -52.8400 C.3       23 UNK        -0.0398 
    125 S125       -5.8753  -15.2174  -53.6185 S.3       23 UNK        -0.2404 
    126 C126       -4.1341  -15.6817  -53.3501 C.3       23 UNK        -0.0205 
    127 H127        1.1156  -16.0206  -53.9804 H         1 UNK         0.0600 
    128 H128       -0.0780  -17.3132  -53.8256 H         1 UNK         0.0600 
    129 H129        1.6427  -17.6770  -53.6652 H         1 UNK         0.0600 
    130 H130        1.2102  -14.7330  -52.1599 H         1 UNK         0.3000 
    131 H131       -0.0458  -15.3937  -49.7208 H         1 UNK         0.0600 
    132 H132        1.9872  -13.1346  -49.9879 H         1 UNK         0.0800 
    133 H133        0.6038  -13.2136  -48.9387 H         1 UNK         0.0800 
    134 H134       -2.1611  -11.5713  -50.9744 H         1 UNK         0.0800 
    135 H135       -1.5471  -12.0626  -49.4162 H         1 UNK         0.0800 
    136 H136       -2.8131  -13.3879  -52.6893 H         1 UNK         0.1150 
    137 H137       -4.2430  -17.0494  -50.9764 H         1 UNK         0.1150 
    138 H138       -2.1565  -14.2258  -48.5370 H         1 UNK         0.1150 
    139 H139       -3.3285  -16.1061  -47.5177 H         1 UNK         0.0800 
    140 H140       -4.2826  -17.2175  -48.4779 H         1 UNK         0.0800 
    141 H141       -2.9977  -18.3551  -46.3327 H         1 UNK         0.0800 
    142 H142       -1.3687  -17.7540  -46.2107 H         1 UNK         0.0800 
    143 H143       -0.6600  -20.0298  -47.3603 H         1 UNK         0.0600 
    144 H144       -0.9463  -19.3766  -44.6288 H         1 UNK         0.3000 
    145 H145        0.7265  -22.2884  -43.3493 H         1 UNK         0.0600 
    146 H146        2.0474  -20.4515  -42.3404 H         1 UNK         0.0600 
    147 H147        2.4367  -20.6031  -44.0476 H         1 UNK         0.0600 
    148 H148        1.3887  -19.2994  -43.4987 H         1 UNK         0.0600 
    149 H149       -0.4417  -20.0833  -41.9989 H         1 UNK         0.3000 
    150 H150       -3.7259  -21.4550  -41.5724 H         1 UNK         0.0600 
    151 H151       -2.2691  -22.4019  -39.7926 H         1 UNK         0.0600 
    152 H152       -3.0704  -20.9443  -39.2267 H         1 UNK         0.0600 
    153 H153       -1.3697  -20.8948  -39.6902 H         1 UNK         0.0600 
    154 H154       -2.4618  -18.9721  -40.8353 H         1 UNK         0.3000 
    155 H155       -3.6168  -17.0927  -43.6399 H         1 UNK         0.0600 
    156 H156       -4.4509  -17.1185  -40.6892 H         1 UNK         0.0600 
    157 H157       -5.5477  -17.2587  -42.0581 H         1 UNK         0.0600 
    158 H158       -4.6412  -15.7743  -41.8151 H         1 UNK         0.0600 
    159 H159       -2.1821  -16.2758  -41.3387 H         1 UNK         0.3000 
    160 H160        1.1008  -16.7982  -42.7055 H         1 UNK         0.0600 
    161 H161       -0.5705  -14.3260  -42.0247 H         1 UNK         0.0600 
    162 H162        0.0824  -14.6873  -43.6178 H         1 UNK         0.0600 
    163 H163        1.1705  -14.3778  -42.2808 H         1 UNK         0.0600 
    164 H164        0.6928  -15.7305  -40.2553 H         1 UNK         0.3000 
    165 H165        0.1902  -16.9325  -38.1461 H         1 UNK         0.0600 
    166 H166        0.9634  -18.9566  -36.8910 H         1 UNK         0.0600 
    167 H167       -0.3987  -19.3417  -37.9313 H         1 UNK         0.0600 
    168 H168        1.2295  -19.8143  -38.4071 H         1 UNK         0.0600 
    169 H169        2.8184  -17.8069  -39.2579 H         1 UNK         0.3000 
    170 H170        4.3214  -14.8035  -38.2728 H         1 UNK         0.0600 
    171 H171        4.9020  -16.2399  -36.3117 H         1 UNK         0.0600 
    172 H172        5.0975  -17.6312  -37.3708 H         1 UNK         0.0600 
    173 H173        6.1875  -16.2506  -37.5078 H         1 UNK         0.0600 
    174 H174        5.2775  -17.0381  -39.7686 H         1 UNK         0.3000 
    175 H175        5.5891  -16.4154  -42.2180 H         1 UNK         0.0600 
    176 H176        3.0021  -18.0555  -41.9882 H         1 UNK         0.0600 
    177 H177        4.3026  -18.4112  -43.1235 H         1 UNK         0.0600 
    178 H178        4.5908  -18.5189  -41.3989 H         1 UNK         0.0600 
    179 H179        3.1242  -16.2558  -43.7410 H         1 UNK         0.3000 
    180 H180        2.7517  -13.5278  -44.6713 H         1 UNK         0.0600 
    181 H181        5.2823  -13.7277  -46.3838 H         1 UNK         0.0600 
    182 H182        4.7767  -12.3427  -45.4249 H         1 UNK         0.0600 
    183 H183        3.8298  -12.8297  -46.8200 H         1 UNK         0.0600 
    184 H184        1.9240  -15.0766  -46.0206 H         1 UNK         0.3000 
    185 H185        3.2528  -17.7348  -47.9802 H         1 UNK         0.0600 
    186 H186        2.5257  -18.6356  -45.7566 H         1 UNK         0.0600 
    187 H187        1.1190  -17.5788  -45.7880 H         1 UNK         0.0600 
    188 H188        1.3109  -18.8452  -47.0021 H         1 UNK         0.0600 
    189 H189        0.6838  -16.5099  -47.9748 H         1 UNK         0.3000 
    190 H190       -3.2787  -20.8265  -45.0437 H         1 UNK         0.3000 
    191 H191       -4.9720  -22.1627  -46.8976 H         1 UNK         0.0600 
    192 H192       -4.6624  -22.5206  -43.8699 H         1 UNK         0.0600 
    193 H193       -5.9934  -23.1463  -44.8360 H         1 UNK         0.0600 
    194 H194       -5.7628  -21.4113  -44.6836 H         1 UNK         0.0600 
    195 H195       -2.3553  -23.4069  -44.7563 H         1 UNK         0.3000 
    196 H196       -2.5834  -26.1372  -45.4694 H         1 UNK         0.0600 
    197 H197       -0.3064  -26.3128  -44.4454 H         1 UNK         0.0600 
    198 H198       -1.3944  -25.3620  -43.4456 H         1 UNK         0.0600 
    199 H199       -0.1724  -24.5580  -44.4279 H         1 UNK         0.0600 
    200 H200       -0.5699  -23.5267  -46.8781 H         1 UNK         0.3000 
    201 H201        0.6732  -25.2140  -48.8792 H         1 UNK         0.0600 
    202 H202        1.7431  -23.1554  -47.9477 H         1 UNK         0.0600 
    203 H203        0.4646  -22.1620  -48.6423 H         1 UNK         0.0600 
    204 H204        1.5744  -23.0424  -49.6905 H         1 UNK         0.0600 
    205 H205       -2.4469  -23.8821  -48.6621 H         1 UNK         0.3000 
    206 H206       -4.1491  -23.4053  -49.9833 H         1 UNK         0.0600 
    207 H207       -4.5327  -24.7769  -52.0137 H         1 UNK         0.0600 
    208 H208       -3.9215  -25.7795  -50.7077 H         1 UNK         0.0600 
    209 H209       -2.8515  -25.2949  -52.0209 H         1 UNK         0.0600 
    210 H210       -2.3004  -21.4831  -49.8657 H         1 UNK         0.3000 
    211 H211       -1.4037  -19.6364  -50.7079 H         1 UNK         0.0600 
    212 H212       -2.6098  -18.4183  -52.4607 H         1 UNK         0.0600 
    213 H213       -3.7725  -19.1889  -51.3895 H         1 UNK         0.0600 
    214 H214       -3.4483  -19.8734  -52.9824 H         1 UNK         0.0600 
    215 H215        0.1137  -21.7837  -51.1668 H         1 UNK         0.3000 
    216 H216        1.7974  -22.7022  -52.2857 H         1 UNK         0.0600 
    217 H217        3.1996  -21.3162  -53.7581 H         1 UNK         0.0600 
    218 H218        2.6786  -20.3497  -52.3856 H         1 UNK         0.0600 
    219 H219        1.9136  -20.1357  -53.9587 H         1 UNK         0.0600 
    220 H220       -0.5529  -23.6446  -52.9026 H         1 UNK         0.3000 
    221 H221       -1.7749  -24.8948  -54.1944 H         1 UNK         0.0600 
    222 H222        0.4565  -24.8621  -56.2881 H         1 UNK         0.0600 
    223 H223        0.3938  -25.9370  -54.8909 H         1 UNK         0.0600 
    224 H224       -0.8315  -26.0466  -56.1422 H         1 UNK         0.0600 
    225 H225       -1.6062  -21.7531  -54.7955 H         1 UNK         0.3000 
    226 H226       -3.0002  -21.6329  -57.3740 H         1 UNK         0.0600 
    227 H227       -1.3475  -19.8651  -56.6241 H         1 UNK         0.0600 
    228 H228       -2.9275  -19.2395  -57.0727 H         1 UNK         0.0600 
    229 H229       -2.4985  -19.3801  -55.3782 H         1 UNK         0.0600 
    230 H230       -4.3643  -23.3311  -55.8370 H         1 UNK         0.3000 
    231 H231       -6.3580  -23.9512  -55.0518 H         1 UNK         0.0600 
    232 H232       -6.8602  -23.2438  -57.4009 H         1 UNK         0.0600 
    233 H233       -7.3351  -21.6477  -56.8215 H         1 UNK         0.0600 
    234 H234       -8.2643  -23.0704  -56.3636 H         1 UNK         0.0600 
    235 H235       -5.0815  -22.1530  -53.2048 H         1 UNK         0.3000 
    236 H236       -5.3794  -20.9651  -51.3520 H         1 UNK         0.0600 
    237 H237       -7.3265  -21.4303  -49.9340 H         1 UNK         0.0600 
    238 H238       -8.2314  -22.0634  -51.3023 H         1 UNK         0.0600 
    239 H239       -6.8042  -22.9143  -50.7121 H         1 UNK         0.0600 
    240 H240       -5.8685  -19.6308  -53.8915 H         1 UNK         0.3000 
    241 H241       -6.3012  -17.6738  -54.6777 H         1 UNK         0.0600 
    242 H242       -9.9096  -19.0670  -55.0154 H         1 UNK         0.3800 
    243 H243       -8.5589  -19.9261  -54.3210 H         1 UNK         0.3800 
    244 H244       -7.6987  -16.2593  -52.4494 H         1 UNK         0.0800 
    245 H245       -6.1894  -16.9172  -51.9549 H         1 UNK         0.0800 
    246 H246       -3.5292  -15.2184  -54.1309 H         1 UNK         0.0800 
    247 H247       -4.0162  -16.7578  -53.4832 H         1 UNK         0.0800 
@<TRIPOS>BOND
     1    1    2 1    
     2    1  127 1    
     3    1  128 1    
     4    1  129 1    
     5    2    3 2    
     6    2    4 am   BACKBONE|DICT|INTERRES
     7    4    5 1    
     8    4  130 1    
     9    5    6 1    
    10    5   65 1    
    11    5  131 1    
    12    6    7 1    
    13    6  132 1    
    14    6  133 1    
    15    7    8 1    
    16    8    9 1    
    17    8  134 1    
    18    8  135 1    
    19    9   10 ar   
    20    9   14 ar   
    21   10   11 ar   
    22   10  136 1    
    23   11   12 ar   
    24   11  126 1    
    25   12   13 ar   
    26   12  137 1    
    27   13   14 ar   
    28   13   15 1    
    29   14  138 1    
    30   15   16 1    
    31   15  139 1    
    32   15  140 1    
    33   16   17 1    
    34   17   18 1    
    35   17  141 1    
    36   17  142 1    
    37   18   19 1    
    38   18   67 1    
    39   18  143 1    
    40   19   20 am   BACKBONE|DICT|INTERRES
    41   19  144 1    
    42   20   21 2    
    43   20   22 1    
    44   22   23 1    
    45   22   24 1    
    46   22  145 1    
    47   23  146 1    
    48   23  147 1    
    49   23  148 1    
    50   24   25 am   BACKBONE|DICT|INTERRES
    51   24  149 1    
    52   25   26 2    
    53   25   27 1    
    54   27   28 1    
    55   27   29 1    
    56   27  150 1    
    57   28  151 1    
    58   28  152 1    
    59   28  153 1    
    60   29   30 am   BACKBONE|DICT|INTERRES
    61   29  154 1    
    62   30   31 2    
    63   30   32 1    
    64   32   33 1    
    65   32   34 1    
    66   32  155 1    
    67   33  156 1    
    68   33  157 1    
    69   33  158 1    
    70   34   35 am   BACKBONE|DICT|INTERRES
    71   34  159 1    
    72   35   36 2    
    73   35   37 1    
    74   37   38 1    
    75   37   39 1    
    76   37  160 1    
    77   38  161 1    
    78   38  162 1    
    79   38  163 1    
    80   39   40 am   BACKBONE|DICT|INTERRES
    81   39  164 1    
    82   40   41 2    
    83   40   42 1    
    84   42   43 1    
    85   42   44 1    
    86   42  165 1    
    87   43  166 1    
    88   43  167 1    
    89   43  168 1    
    90   44   45 am   BACKBONE|DICT|INTERRES
    91   44  169 1    
    92   45   46 2    
    93   45   47 1    
    94   47   48 1    
    95   47   49 1    
    96   47  170 1    
    97   48  171 1    
    98   48  172 1    
    99   48  173 1    
   100   49   50 am   BACKBONE|DICT|INTERRES
   101   49  174 1    
   102   50   51 2    
   103   50   52 1    
   104   52   53 1    
   105   52   54 1    
   106   52  175 1    
   107   53  176 1    
   108   53  177 1    
   109   53  178 1    
   110   54   55 am   BACKBONE|DICT|INTERRES
   111   54  179 1    
   112   55   56 2    
   113   55   57 1    
   114   57   58 1    
   115   57   59 1    
   116   57  180 1    
   117   58  181 1    
   118   58  182 1    
   119   58  183 1    
   120   59   60 am   BACKBONE|DICT|INTERRES
   121   59  184 1    
   122   60   61 2    
   123   60   62 1    
   124   62   63 1    
   125   62   64 1    
   126   62  185 1    
   127   63  186 1    
   128   63  187 1    
   129   63  188 1    
   130   64   65 am   BACKBONE|DICT|INTERRES
   131   64  189 1    
   132   65   66 2    
   133   67   68 2    
   134   67   69 am   BACKBONE|DICT|INTERRES
   135   69   70 1    
   136   69  190 1    
   137   70   71 1    
   138   70   72 1    
   139   70  191 1    
   140   71  192 1    
   141   71  193 1    
   142   71  194 1    
   143   72   73 2    
   144   72   74 am   BACKBONE|DICT|INTERRES
   145   74   75 1    
   146   74  195 1    
   147   75   76 1    
   148   75   77 1    
   149   75  196 1    
   150   76  197 1    
   151   76  198 1    
   152   76  199 1    
   153   77   78 2    
   154   77   79 am   BACKBONE|DICT|INTERRES
   155   79   80 1    
   156   79  200 1    
   157   80   81 1    
   158   80   82 1    
   159   80  201 1    
   160   81  202 1    
   161   81  203 1    
   162   81  204 1    
   163   82   83 2    
   164   82   84 am   BACKBONE|DICT|INTERRES
   165   84   85 1    
   166   84  205 1    
   167   85   86 1    
   168   85   87 1    
   169   85  206 1    
   170   86  207 1    
   171   86  208 1    
   172   86  209 1    
   173   87   88 2    
   174   87   89 am   BACKBONE|DICT|INTERRES
   175   89   90 1    
   176   89  210 1    
   177   90   91 1    
   178   90   92 1    
   179   90  211 1    
   180   91  212 1    
   181   91  213 1    
   182   91  214 1    
   183   92   93 2    
   184   92   94 am   BACKBONE|DICT|INTERRES
   185   94   95 1    
   186   94  215 1    
   187   95   96 1    
   188   95   97 1    
   189   95  216 1    
   190   96  217 1    
   191   96  218 1    
   192   96  219 1    
   193   97   98 2    
   194   97   99 am   BACKBONE|DICT|INTERRES
   195   99  100 1    
   196   99  220 1    
   197  100  101 1    
   198  100  102 1    
   199  100  221 1    
   200  101  222 1    
   201  101  223 1    
   202  101  224 1    
   203  102  103 2    
   204  102  104 am   BACKBONE|DICT|INTERRES
   205  104  105 1    
   206  104  225 1    
   207  105  106 1    
   208  105  107 1    
   209  105  226 1    
   210  106  227 1    
   211  106  228 1    
   212  106  229 1    
   213  107  108 2    
   214  107  109 am   BACKBONE|DICT|INTERRES
   215  109  110 1    
   216  109  230 1    
   217  110  111 1    
   218  110  112 1    
   219  110  231 1    
   220  111  232 1    
   221  111  233 1    
   222  111  234 1    
   223  112  113 2    
   224  112  114 am   BACKBONE|DICT|INTERRES
   225  114  115 1    
   226  114  235 1    
   227  115  116 1    
   228  115  117 1    
   229  115  236 1    
   230  116  237 1    
   231  116  238 1    
   232  116  239 1    
   233  117  118 2    
   234  117  119 am   BACKBONE|DICT|INTERRES
   235  119  120 1    
   236  119  240 1    
   237  120  121 1    
   238  120  124 1    
   239  120  241 1    
   240  121  122 am   BACKBONE|DICT|INTERRES
   241  121  123 2    
   242  122  242 1    
   243  122  243 1    
   244  124  125 1    
   245  124  244 1    
   246  124  245 1    
   247  125  126 1    
   248  126  246 1    
   249  126  247 1    
@<TRIPOS>SUBSTRUCTURE
     1 UNK         1 GROUP             0       ****    0 ROOT    
