@<TRIPOS>MOLECULE
3R540
247   249    1
SMALL
USER_CHARGES


@<TRIPOS>ATOM
      1 CA          4.5335  -10.8095  -48.6180 C.3       0 UNK        -0.1800 
      2 C           3.5799  -11.4923  -47.6499 C.2       0 UNK         0.5000 
      3 O           3.4641  -11.0670  -46.5001 O.2       0 UNK        -0.5000 
      4 N           2.8761  -12.5350  -48.1112 N.am      1 UNK        -0.5000 
      5 CA          1.9660  -13.3736  -47.3134 C.3       1 UNK         0.1400 
      6 C6          1.5144  -14.6488  -48.0642 C.3       23 UNK        -0.0398 
      7 S7          2.8825  -15.6007  -48.8062 S.3       23 UNK        -0.2404 
      8 C8          2.2119  -15.9443  -50.4644 C.3       23 UNK        -0.0205 
      9 C9          1.2102  -17.0906  -50.4439 C.ar      23 UNK        -0.0193 
     10 C10        -0.1475  -16.8529  -50.2081 C.ar      23 UNK        -0.1150 
     11 C11        -1.0613  -17.9101  -50.2018 C.ar      23 UNK        -0.0193 
     12 C12        -0.6152  -19.2067  -50.4673 C.ar      23 UNK        -0.1150 
     13 C13         0.7447  -19.4660  -50.6798 C.ar      23 UNK        -0.0193 
     14 C14         1.6470  -18.3985  -50.6698 C.ar      23 UNK        -0.1150 
     15 C15         1.2781  -20.8757  -50.9344 C.3       23 UNK        -0.0205 
     16 S16         0.3426  -22.2231  -50.1345 S.3       23 UNK        -0.2404 
     17 C17         0.3289  -21.6944  -48.3882 C.3       23 UNK        -0.0398 
     18 CA         -0.0778  -22.8227  -47.4151 C.3       11 UNK         0.1400 
     19 N           0.2041  -22.4515  -46.0283 N.am      11 UNK        -0.5000 
     20 C           0.1498  -23.2967  -44.9905 C.2       10 UNK         0.5000 
     21 O          -0.1226  -24.4917  -45.0936 O.2       10 UNK        -0.5000 
     22 CA          0.3891  -22.6964  -43.5966 C.3       10 UNK         0.1400 
     23 CB          1.8876  -22.4611  -43.3569 C.3       10 UNK        -0.1800 
     24 N          -0.3540  -21.4524  -43.3936 N.am      10 UNK        -0.5000 
     25 C          -1.6923  -21.3642  -43.4010 C.2       9 UNK         0.5000 
     26 O          -2.4394  -22.3332  -43.5405 O.2       9 UNK        -0.5000 
     27 CA         -2.3000  -19.9560  -43.2707 C.3       9 UNK         0.1400 
     28 CB         -2.2779  -19.4862  -41.8089 C.3       9 UNK        -0.1800 
     29 N          -1.6355  -18.9632  -44.1160 N.am      9 UNK        -0.5000 
     30 C          -1.5870  -19.0069  -45.4556 C.2       8 UNK         0.5000 
     31 O          -2.1020  -19.8924  -46.1348 O.2       8 UNK        -0.5000 
     32 CA         -0.7840  -17.8988  -46.1553 C.3       8 UNK         0.1400 
     33 CB         -1.5886  -16.5894  -46.1994 C.3       8 UNK        -0.1800 
     34 N           0.5132  -17.6821  -45.5152 N.am      8 UNK        -0.5000 
     35 C           1.4867  -18.6043  -45.4594 C.2       7 UNK         0.5000 
     36 O           1.4164  -19.7145  -45.9885 O.2       7 UNK        -0.5000 
     37 CA          2.7196  -18.2464  -44.6150 C.3       7 UNK         0.1400 
     38 CB          3.6805  -17.3445  -45.4050 C.3       7 UNK        -0.1800 
     39 N           2.3437  -17.6004  -43.3560 N.am      7 UNK        -0.5000 
     40 C           1.7446  -18.2383  -42.3378 C.2       6 UNK         0.5000 
     41 O           1.4702  -19.4369  -42.3557 O.2       6 UNK        -0.5000 
     42 CA          1.3484  -17.4033  -41.1043 C.3       6 UNK         0.1400 
     43 CB          2.5045  -17.3557  -40.0947 C.3       6 UNK        -0.1800 
     44 N           0.9424  -16.0387  -41.4335 N.am      6 UNK        -0.5000 
     45 C          -0.0921  -15.7118  -42.2197 C.2       5 UNK         0.5000 
     46 O          -0.8748  -16.5354  -42.6939 O.2       5 UNK        -0.5000 
     47 CA         -0.2469  -14.2218  -42.5797 C.3       5 UNK         0.1400 
     48 CB         -1.2671  -13.5467  -41.6521 C.3       5 UNK        -0.1800 
     49 N           1.0026  -13.4506  -42.5572 N.am      5 UNK        -0.5000 
     50 C           2.1105  -13.7226  -43.2607 C.2       4 UNK         0.5000 
     51 O           2.2425  -14.7264  -43.9626 O.2       4 UNK        -0.5000 
     52 CA          3.2471  -12.6876  -43.1659 C.3       4 UNK         0.1400 
     53 CB          4.5336  -13.1539  -43.8713 C.3       4 UNK        -0.1800 
     54 N           2.8282  -11.4123  -43.7427 N.am      4 UNK        -0.5000 
     55 C           2.0941  -10.4800  -43.1209 C.2       3 UNK         0.5000 
     56 O           1.7068  -10.5825  -41.9559 O.2       3 UNK        -0.5000 
     57 CA          1.6886   -9.2581  -43.9585 C.3       3 UNK         0.1400 
     58 CB          2.8953   -8.3427  -44.2210 C.3       3 UNK        -0.1800 
     59 N           1.1206   -9.6949  -45.2319 N.am      3 UNK        -0.5000 
     60 C          -0.1867   -9.8884  -45.4570 C.2       2 UNK         0.5000 
     61 O          -1.0708   -9.6163  -44.6442 O.2       2 UNK        -0.5000 
     62 CA         -0.5743  -10.5044  -46.8168 C.3       2 UNK         0.1400 
     63 CB         -0.8188   -9.4028  -47.8592 C.3       2 UNK        -0.1800 
     64 N           0.4430  -11.4263  -47.3234 N.am      2 UNK        -0.5000 
     65 C           0.7272  -12.6177  -46.7777 C.2       1 UNK         0.5000 
     66 O           0.0550  -13.1222  -45.8806 O.2       1 UNK        -0.5000 
     67 C          -1.5460  -23.2667  -47.6046 C.2       11 UNK         0.5000 
     68 O          -1.7914  -24.2720  -48.2729 O.2       11 UNK        -0.5000 
     69 N          -2.4975  -22.5476  -46.9915 N.am      12 UNK        -0.5000 
     70 CA         -3.9225  -22.8876  -46.9818 C.3       12 UNK         0.1400 
     71 CB         -4.7253  -21.7792  -46.2858 C.3       12 UNK        -0.1800 
     72 C          -4.2083  -24.2594  -46.3464 C.2       12 UNK         0.5000 
     73 O          -5.0144  -25.0185  -46.8843 O.2       12 UNK        -0.5000 
     74 N          -3.5228  -24.5594  -45.2368 N.am      13 UNK        -0.5000 
     75 CA         -3.6214  -25.8311  -44.5284 C.3       13 UNK         0.1400 
     76 CB         -3.0362  -25.6721  -43.1159 C.3       13 UNK        -0.1800 
     77 C          -2.9390  -26.9902  -45.2783 C.2       13 UNK         0.5000 
     78 O          -3.5639  -28.0326  -45.4784 O.2       13 UNK        -0.5000 
     79 N          -1.6638  -26.8076  -45.6448 N.am      14 UNK        -0.5000 
     80 CA         -0.7976  -27.8857  -46.1238 C.3       14 UNK         0.1400 
     81 CB          0.6576  -27.5624  -45.7498 C.3       14 UNK        -0.1800 
     82 C          -0.8991  -28.1543  -47.6337 C.2       14 UNK         0.5000 
     83 O          -0.7186  -29.3017  -48.0444 O.2       14 UNK        -0.5000 
     84 N          -1.1415  -27.1089  -48.4339 N.am      15 UNK        -0.5000 
     85 CA         -1.0363  -27.1487  -49.8956 C.3       15 UNK         0.1400 
     86 CB          0.1792  -26.3031  -50.3191 C.3       15 UNK        -0.1800 
     87 C          -2.3174  -26.6713  -50.5997 C.2       15 UNK         0.5000 
     88 O          -2.2836  -26.4525  -51.8114 O.2       15 UNK        -0.5000 
     89 N          -3.4121  -26.4816  -49.8458 N.am      16 UNK        -0.5000 
     90 CA         -4.7129  -25.9691  -50.3028 C.3       16 UNK         0.1400 
     91 CB         -5.4198  -27.0082  -51.1975 C.3       16 UNK        -0.1800 
     92 C          -4.6076  -24.5778  -50.9683 C.2       16 UNK         0.5000 
     93 O          -5.2901  -24.3029  -51.9571 O.2       16 UNK        -0.5000 
     94 N          -3.7030  -23.7453  -50.4320 N.am      17 UNK        -0.5000 
     95 CA         -3.3151  -22.4141  -50.9088 C.3       17 UNK         0.1400 
     96 CB         -4.4979  -21.4242  -50.8486 C.3       17 UNK        -0.1800 
     97 C          -2.6252  -22.4378  -52.2888 C.2       17 UNK         0.5000 
     98 O          -2.6284  -21.4225  -52.9831 O.2       17 UNK        -0.5000 
     99 N          -2.0708  -23.5980  -52.6797 N.am      18 UNK        -0.5000 
    100 CA        -1.3575  -23.8721  -53.9343 C.3       18 UNK         0.1400 
    101 CB        -0.0032  -23.1345  -53.9470 C.3       18 UNK        -0.1800 
    102 C         -2.1944  -23.5955  -55.2039 C.2       18 UNK         0.5000 
    103 O         -1.6282  -23.3395  -56.2678 O.2       18 UNK        -0.5000 
    104 N         -3.5288  -23.6273  -55.0572 N.am      19 UNK        -0.5000 
    105 CA        -4.5453  -23.2427  -56.0414 C.3       19 UNK         0.1400 
    106 CB        -4.5391  -24.2055  -57.2474 C.3       19 UNK        -0.1800 
    107 C         -4.4772  -21.7544  -56.4610 C.2       19 UNK         0.5000 
    108 O         -4.9770  -21.4027  -57.5309 O.2       19 UNK        -0.5000 
    109 N         -3.8877  -20.8949  -55.6134 N.am      20 UNK        -0.5000 
    110 CA        -3.7603  -19.4526  -55.8473 C.3       20 UNK         0.1400 
    111 CB        -2.6312  -18.8954  -54.9659 C.3       20 UNK        -0.1800 
    112 C         -5.0692  -18.6754  -55.6006 C.2       20 UNK         0.5000 
    113 O         -5.1691  -17.5246  -56.0279 O.2       20 UNK        -0.5000 
    114 N         -6.0387  -19.3141  -54.9250 N.am      21 UNK        -0.5000 
    115 CA        -7.3667  -18.7992  -54.5714 C.3       21 UNK         0.1400 
    116 CB        -8.2202  -18.5635  -55.8357 C.3       21 UNK        -0.1800 
    117 C         -7.2963  -17.5699  -53.6414 C.2       21 UNK         0.5000 
    118 O         -7.9765  -16.5685  -53.8752 O.2       21 UNK        -0.5000 
    119 N         -6.4528  -17.6773  -52.6070 N.am      22 UNK        -0.5000 
    120 CA        -6.2526  -16.6738  -51.5506 C.3       22 UNK         0.1400 
    121 C         -7.5550  -16.3399  -50.7676 C.2       22 UNK         0.5000 
    122 N         -7.7728  -15.0786  -50.4208 N.am      22 UNK        -0.7600 
    123 O         -8.3442  -17.2208  -50.4325 O.2       22 UNK        -0.5000 
    124 C124       -5.1484  -17.1175  -50.5591 C.3       23 UNK        -0.0398 
    125 S125       -3.5243  -17.3653  -51.3502 S.3       23 UNK        -0.2404 
    126 C126       -2.5219  -17.6610  -49.8649 C.3       23 UNK        -0.0205 
    127 H127        4.2568   -9.7624  -48.7404 H         1 UNK         0.0600 
    128 H128        4.5224  -11.2830  -49.6000 H         1 UNK         0.0600 
    129 H129        5.5514  -10.8513  -48.2308 H         1 UNK         0.0600 
    130 H130        3.0192  -12.8420  -49.0629 H         1 UNK         0.3000 
    131 H131        2.5306  -13.6978  -46.4381 H         1 UNK         0.0600 
    132 H132        0.9998  -15.3216  -47.3788 H         1 UNK         0.0800 
    133 H133        0.7940  -14.3827  -48.8379 H         1 UNK         0.0800 
    134 H134        1.7570  -15.0460  -50.8843 H         1 UNK         0.0800 
    135 H135        3.0415  -16.1945  -51.1275 H         1 UNK         0.0800 
    136 H136       -0.4976  -15.8480  -50.0242 H         1 UNK         0.1150 
    137 H137       -1.3315  -20.0141  -50.4849 H         1 UNK         0.1150 
    138 H138        2.6979  -18.5844  -50.8425 H         1 UNK         0.1150 
    139 H139        1.2858  -21.0507  -52.0106 H         1 UNK         0.0800 
    140 H140        2.3152  -20.9462  -50.6027 H         1 UNK         0.0800 
    141 H141       -0.3264  -20.8310  -48.2652 H         1 UNK         0.0800 
    142 H142        1.3342  -21.3471  -48.1459 H         1 UNK         0.0800 
    143 H143        0.5469  -23.6907  -47.6380 H         1 UNK         0.0600 
    144 H144        0.4530  -21.4810  -45.8615 H         1 UNK         0.3000 
    145 H145        0.0371  -23.4205  -42.8589 H         1 UNK         0.0600 
    146 H146        2.0756  -22.1400  -42.3324 H         1 UNK         0.0600 
    147 H147        2.4589  -23.3759  -43.5199 H         1 UNK         0.0600 
    148 H148        2.2882  -21.6981  -44.0255 H         1 UNK         0.0600 
    149 H149        0.1995  -20.6172  -43.2242 H         1 UNK         0.3000 
    150 H150       -3.3421  -20.0146  -43.5910 H         1 UNK         0.0600 
    151 H151       -2.8022  -20.1923  -41.1638 H         1 UNK         0.0600 
    152 H152       -2.7669  -18.5182  -41.6980 H         1 UNK         0.0600 
    153 H153       -1.2594  -19.3913  -41.4327 H         1 UNK         0.0600 
    154 H154       -1.2139  -18.1707  -43.6387 H         1 UNK         0.3000 
    155 H155       -0.6018  -18.2202  -47.1832 H         1 UNK         0.0600 
    156 H156       -2.5863  -16.7600  -46.6059 H         1 UNK         0.0600 
    157 H157       -1.1119  -15.8452  -46.8342 H         1 UNK         0.0600 
    158 H158       -1.7122  -16.1528  -45.2085 H         1 UNK         0.0600 
    159 H159        0.6432  -16.8132  -45.0169 H         1 UNK         0.3000 
    160 H160        3.2458  -19.1738  -44.3784 H         1 UNK         0.0600 
    161 H161        3.2032  -16.4157  -45.7178 H         1 UNK         0.0600 
    162 H162        4.0297  -17.8473  -46.3077 H         1 UNK         0.0600 
    163 H163        4.5591  -17.0870  -44.8135 H         1 UNK         0.0600 
    164 H164        2.4660  -16.5937  -43.3121 H         1 UNK         0.3000 
    165 H165        0.4992  -17.8968  -40.6282 H         1 UNK         0.0600 
    166 H166        2.2101  -16.8387  -39.1812 H         1 UNK         0.0600 
    167 H167        2.8162  -18.3619  -39.8111 H         1 UNK         0.0600 
    168 H168        3.3767  -16.8449  -40.5049 H         1 UNK         0.0600 
    169 H169        1.5325  -15.2940  -41.0938 H         1 UNK         0.3000 
    170 H170       -0.6375  -14.1827  -43.5973 H         1 UNK         0.0600 
    171 H171       -2.2189  -14.0797  -41.6628 H         1 UNK         0.0600 
    172 H172       -0.9157  -13.5203  -40.6199 H         1 UNK         0.0600 
    173 H173       -1.4665  -12.5218  -41.9663 H         1 UNK         0.0600 
    174 H174        0.9865  -12.5805  -42.0377 H         1 UNK         0.3000 
    175 H175        3.4801  -12.5479  -42.1083 H         1 UNK         0.0600 
    176 H176        4.3805  -13.3023  -44.9405 H         1 UNK         0.0600 
    177 H177        5.3348  -12.4250  -43.7487 H         1 UNK         0.0600 
    178 H178        4.8871  -14.0985  -43.4562 H         1 UNK         0.0600 
    179 H179        3.0839  -11.2610  -44.7160 H         1 UNK         0.3000 
    180 H180        0.9503   -8.6863  -43.3923 H         1 UNK         0.0600 
    181 H181        3.6742   -8.8471  -44.7940 H         1 UNK         0.0600 
    182 H182        3.3412   -8.0080  -43.2836 H         1 UNK         0.0600 
    183 H183        2.5978   -7.4526  -44.7755 H         1 UNK         0.0600 
    184 H184        1.7850   -9.9977  -45.9343 H         1 UNK         0.3000 
    185 H185       -1.5047  -11.0595  -46.6794 H         1 UNK         0.0600 
    186 H186       -1.5901   -8.7099  -47.5203 H         1 UNK         0.0600 
    187 H187        0.0838   -8.8212  -48.0508 H         1 UNK         0.0600 
    188 H188       -1.1554   -9.8240  -48.8067 H         1 UNK         0.0600 
    189 H189        1.0328  -11.0911  -48.0709 H         1 UNK         0.3000 
    190 H190       -2.2376  -21.6932  -46.5030 H         1 UNK         0.3000 
    191 H191       -4.2644  -22.9300  -48.0140 H         1 UNK         0.0600 
    192 H192       -4.6100  -20.8267  -46.8033 H         1 UNK         0.0600 
    193 H193       -5.7900  -22.0153  -46.2757 H         1 UNK         0.0600 
    194 H194       -4.4101  -21.6396  -45.2522 H         1 UNK         0.0600 
    195 H195       -2.9097  -23.8572  -44.8354 H         1 UNK         0.3000 
    196 H196       -4.6793  -26.0813  -44.4230 H         1 UNK         0.0600 
    197 H197       -3.0972  -26.6076  -42.5586 H         1 UNK         0.0600 
    198 H198       -3.5819  -24.9183  -42.5479 H         1 UNK         0.0600 
    199 H199       -1.9881  -25.3718  -43.1427 H         1 UNK         0.0600 
    200 H200       -1.2094  -25.9172  -45.4479 H         1 UNK         0.3000 
    201 H201       -1.0693  -28.8094  -45.6078 H         1 UNK         0.0600 
    202 H202        0.7640  -27.4024  -44.6767 H         1 UNK         0.0600 
    203 H203        1.0145  -26.6664  -46.2593 H         1 UNK         0.0600 
    204 H204        1.3233  -28.3817  -46.0244 H         1 UNK         0.0600 
    205 H205       -1.3057  -26.1912  -48.0310 H         1 UNK         0.3000 
    206 H206       -0.8702  -28.1695  -50.2444 H         1 UNK         0.0600 
    207 H207        1.0926  -26.6613  -49.8442 H         1 UNK         0.0600 
    208 H208        0.3385  -26.3463  -51.3972 H         1 UNK         0.0600 
    209 H209        0.0516  -25.2550  -50.0488 H         1 UNK         0.0600 
    210 H210       -3.3347  -26.6659  -48.8554 H         1 UNK         0.3000 
    211 H211       -5.3253  -25.8339  -49.4111 H         1 UNK         0.0600 
    212 H212       -4.8943  -27.1557  -52.1415 H         1 UNK         0.0600 
    213 H213       -6.4362  -26.6923  -51.4355 H         1 UNK         0.0600 
    214 H214       -5.4905  -27.9745  -50.6983 H         1 UNK         0.0600 
    215 H215       -3.1459  -24.0979  -49.6578 H         1 UNK         0.3000 
    216 H216       -2.5668  -22.0550  -50.2042 H         1 UNK         0.0600 
    217 H217       -4.1630  -20.4064  -51.0510 H         1 UNK         0.0600 
    218 H218       -4.9617  -21.4187  -49.8626 H         1 UNK         0.0600 
    219 H219       -5.2678  -21.6637  -51.5822 H         1 UNK         0.0600 
    220 H220       -2.1754  -24.4047  -52.0744 H         1 UNK         0.3000 
    221 H221       -1.1508  -24.9430  -53.9385 H         1 UNK         0.0600 
    222 H222       -0.1338  -22.0523  -53.9805 H         1 UNK         0.0600 
    223 H223        0.5822  -23.3754  -53.0599 H         1 UNK         0.0600 
    224 H224        0.5945  -23.4202  -54.8132 H         1 UNK         0.0600 
    225 H225       -3.8832  -23.8498  -54.1359 H         1 UNK         0.3000 
    226 H226       -5.5046  -23.3622  -55.5360 H         1 UNK         0.0600 
    227 H227       -4.5899  -25.2447  -56.9227 H         1 UNK         0.0600 
    228 H228       -5.3987  -24.0280  -57.8946 H         1 UNK         0.0600 
    229 H229       -3.6434  -24.0873  -57.8575 H         1 UNK         0.0600 
    230 H230       -3.4783  -21.2427  -54.7503 H         1 UNK         0.3000 
    231 H231       -3.4789  -19.2969  -56.8908 H         1 UNK         0.0600 
    232 H232       -2.8792  -18.9610  -53.9063 H         1 UNK         0.0600 
    233 H233       -2.4420  -17.8450  -55.1901 H         1 UNK         0.0600 
    234 H234       -1.6985  -19.4368  -55.1256 H         1 UNK         0.0600 
    235 H235       -5.8350  -20.2531  -54.6153 H         1 UNK         0.3000 
    236 H236       -7.8552  -19.5854  -53.9939 H         1 UNK         0.0600 
    237 H237       -8.2618  -19.4594  -56.4552 H         1 UNK         0.0600 
    238 H238       -9.2460  -18.3050  -55.5706 H         1 UNK         0.0600 
    239 H239       -7.8273  -17.7511  -56.4475 H         1 UNK         0.0600 
    240 H240       -5.9171  -18.5262  -52.5107 H         1 UNK         0.3000 
    241 H241       -5.9168  -15.7607  -52.0461 H         1 UNK         0.0600 
    242 H242       -8.6059  -14.8514  -49.8999 H         1 UNK         0.3800 
    243 H243       -7.1369  -14.3398  -50.6796 H         1 UNK         0.3800 
    244 H244       -5.4354  -18.0434  -50.0568 H         1 UNK         0.0800 
    245 H245       -5.0256  -16.3679  -49.7749 H         1 UNK         0.0800 
    246 H246       -2.9250  -18.5155  -49.3182 H         1 UNK         0.0800 
    247 H247       -2.6055  -16.8025  -49.1969 H         1 UNK         0.0800 
@<TRIPOS>BOND
     1    1    2 1    
     2    1  127 1    
     3    1  128 1    
     4    1  129 1    
     5    2    3 2    
     6    2    4 am   BACKBONE|DICT|INTERRES
     7    4    5 1    
     8    4  130 1    
     9    5    6 1    
    10    5   65 1    
    11    5  131 1    
    12    6    7 1    
    13    6  132 1    
    14    6  133 1    
    15    7    8 1    
    16    8    9 1    
    17    8  134 1    
    18    8  135 1    
    19    9   10 ar   
    20    9   14 ar   
    21   10   11 ar   
    22   10  136 1    
    23   11   12 ar   
    24   11  126 1    
    25   12   13 ar   
    26   12  137 1    
    27   13   14 ar   
    28   13   15 1    
    29   14  138 1    
    30   15   16 1    
    31   15  139 1    
    32   15  140 1    
    33   16   17 1    
    34   17   18 1    
    35   17  141 1    
    36   17  142 1    
    37   18   19 1    
    38   18   67 1    
    39   18  143 1    
    40   19   20 am   BACKBONE|DICT|INTERRES
    41   19  144 1    
    42   20   21 2    
    43   20   22 1    
    44   22   23 1    
    45   22   24 1    
    46   22  145 1    
    47   23  146 1    
    48   23  147 1    
    49   23  148 1    
    50   24   25 am   BACKBONE|DICT|INTERRES
    51   24  149 1    
    52   25   26 2    
    53   25   27 1    
    54   27   28 1    
    55   27   29 1    
    56   27  150 1    
    57   28  151 1    
    58   28  152 1    
    59   28  153 1    
    60   29   30 am   BACKBONE|DICT|INTERRES
    61   29  154 1    
    62   30   31 2    
    63   30   32 1    
    64   32   33 1    
    65   32   34 1    
    66   32  155 1    
    67   33  156 1    
    68   33  157 1    
    69   33  158 1    
    70   34   35 am   BACKBONE|DICT|INTERRES
    71   34  159 1    
    72   35   36 2    
    73   35   37 1    
    74   37   38 1    
    75   37   39 1    
    76   37  160 1    
    77   38  161 1    
    78   38  162 1    
    79   38  163 1    
    80   39   40 am   BACKBONE|DICT|INTERRES
    81   39  164 1    
    82   40   41 2    
    83   40   42 1    
    84   42   43 1    
    85   42   44 1    
    86   42  165 1    
    87   43  166 1    
    88   43  167 1    
    89   43  168 1    
    90   44   45 am   BACKBONE|DICT|INTERRES
    91   44  169 1    
    92   45   46 2    
    93   45   47 1    
    94   47   48 1    
    95   47   49 1    
    96   47  170 1    
    97   48  171 1    
    98   48  172 1    
    99   48  173 1    
   100   49   50 am   BACKBONE|DICT|INTERRES
   101   49  174 1    
   102   50   51 2    
   103   50   52 1    
   104   52   53 1    
   105   52   54 1    
   106   52  175 1    
   107   53  176 1    
   108   53  177 1    
   109   53  178 1    
   110   54   55 am   BACKBONE|DICT|INTERRES
   111   54  179 1    
   112   55   56 2    
   113   55   57 1    
   114   57   58 1    
   115   57   59 1    
   116   57  180 1    
   117   58  181 1    
   118   58  182 1    
   119   58  183 1    
   120   59   60 am   BACKBONE|DICT|INTERRES
   121   59  184 1    
   122   60   61 2    
   123   60   62 1    
   124   62   63 1    
   125   62   64 1    
   126   62  185 1    
   127   63  186 1    
   128   63  187 1    
   129   63  188 1    
   130   64   65 am   BACKBONE|DICT|INTERRES
   131   64  189 1    
   132   65   66 2    
   133   67   68 2    
   134   67   69 am   BACKBONE|DICT|INTERRES
   135   69   70 1    
   136   69  190 1    
   137   70   71 1    
   138   70   72 1    
   139   70  191 1    
   140   71  192 1    
   141   71  193 1    
   142   71  194 1    
   143   72   73 2    
   144   72   74 am   BACKBONE|DICT|INTERRES
   145   74   75 1    
   146   74  195 1    
   147   75   76 1    
   148   75   77 1    
   149   75  196 1    
   150   76  197 1    
   151   76  198 1    
   152   76  199 1    
   153   77   78 2    
   154   77   79 am   BACKBONE|DICT|INTERRES
   155   79   80 1    
   156   79  200 1    
   157   80   81 1    
   158   80   82 1    
   159   80  201 1    
   160   81  202 1    
   161   81  203 1    
   162   81  204 1    
   163   82   83 2    
   164   82   84 am   BACKBONE|DICT|INTERRES
   165   84   85 1    
   166   84  205 1    
   167   85   86 1    
   168   85   87 1    
   169   85  206 1    
   170   86  207 1    
   171   86  208 1    
   172   86  209 1    
   173   87   88 2    
   174   87   89 am   BACKBONE|DICT|INTERRES
   175   89   90 1    
   176   89  210 1    
   177   90   91 1    
   178   90   92 1    
   179   90  211 1    
   180   91  212 1    
   181   91  213 1    
   182   91  214 1    
   183   92   93 2    
   184   92   94 am   BACKBONE|DICT|INTERRES
   185   94   95 1    
   186   94  215 1    
   187   95   96 1    
   188   95   97 1    
   189   95  216 1    
   190   96  217 1    
   191   96  218 1    
   192   96  219 1    
   193   97   98 2    
   194   97   99 am   BACKBONE|DICT|INTERRES
   195   99  100 1    
   196   99  220 1    
   197  100  101 1    
   198  100  102 1    
   199  100  221 1    
   200  101  222 1    
   201  101  223 1    
   202  101  224 1    
   203  102  103 2    
   204  102  104 am   BACKBONE|DICT|INTERRES
   205  104  105 1    
   206  104  225 1    
   207  105  106 1    
   208  105  107 1    
   209  105  226 1    
   210  106  227 1    
   211  106  228 1    
   212  106  229 1    
   213  107  108 2    
   214  107  109 am   BACKBONE|DICT|INTERRES
   215  109  110 1    
   216  109  230 1    
   217  110  111 1    
   218  110  112 1    
   219  110  231 1    
   220  111  232 1    
   221  111  233 1    
   222  111  234 1    
   223  112  113 2    
   224  112  114 am   BACKBONE|DICT|INTERRES
   225  114  115 1    
   226  114  235 1    
   227  115  116 1    
   228  115  117 1    
   229  115  236 1    
   230  116  237 1    
   231  116  238 1    
   232  116  239 1    
   233  117  118 2    
   234  117  119 am   BACKBONE|DICT|INTERRES
   235  119  120 1    
   236  119  240 1    
   237  120  121 1    
   238  120  124 1    
   239  120  241 1    
   240  121  122 am   BACKBONE|DICT|INTERRES
   241  121  123 2    
   242  122  242 1    
   243  122  243 1    
   244  124  125 1    
   245  124  244 1    
   246  124  245 1    
   247  125  126 1    
   248  126  246 1    
   249  126  247 1    
@<TRIPOS>SUBSTRUCTURE
     1 UNK         1 GROUP             0       ****    0 ROOT    
