@<TRIPOS>MOLECULE
3R540
247   249    1
SMALL
USER_CHARGES


@<TRIPOS>ATOM
      1 CA         -0.9823   -8.6588  -47.0242 C.3       0 UNK        -0.1800 
      2 C           0.4602   -9.1443  -47.0535 C.2       0 UNK         0.5000 
      3 O           1.3572   -8.3792  -47.4095 O.2       0 UNK        -0.5000 
      4 N           0.6841  -10.4128  -46.6905 N.am      1 UNK        -0.5000 
      5 CA          2.0028  -11.0484  -46.6121 C.3       1 UNK         0.1400 
      6 C6          1.8958  -12.5810  -46.4215 C.3       23 UNK        -0.0398 
      7 S7          0.9915  -13.4104  -47.7737 S.3       23 UNK        -0.2404 
      8 C8          2.3411  -14.2868  -48.6337 C.3       23 UNK        -0.0205 
      9 C9          1.8246  -15.4257  -49.5040 C.ar      23 UNK        -0.0193 
     10 C10         0.8812  -15.1842  -50.5067 C.ar      23 UNK        -0.1150 
     11 C11         0.3872  -16.2341  -51.2854 C.ar      23 UNK        -0.0193 
     12 C12         0.8689  -17.5312  -51.0815 C.ar      23 UNK        -0.1150 
     13 C13         1.8326  -17.7829  -50.1021 C.ar      23 UNK        -0.0193 
     14 C14         2.2999  -16.7271  -49.3137 C.ar      23 UNK        -0.1150 
     15 C15         2.4030  -19.1819  -49.9174 C.3       23 UNK        -0.0205 
     16 S16         1.7801  -19.9941  -48.4130 S.3       23 UNK        -0.2404 
     17 C17         0.1909  -20.6866  -48.9778 C.3       23 UNK        -0.0398 
     18 CA         -0.3847  -21.6862  -47.9455 C.3       11 UNK         0.1400 
     19 N          -0.7086  -21.0487  -46.6652 N.am      11 UNK        -0.5000 
     20 C          -1.0568  -21.7029  -45.5489 C.2       10 UNK         0.5000 
     21 O          -1.0941  -22.9284  -45.4587 O.2       10 UNK        -0.5000 
     22 CA         -1.4947  -20.8470  -44.3496 C.3       10 UNK         0.1400 
     23 CB         -0.2823  -20.3701  -43.5335 C.3       10 UNK        -0.1800 
     24 N          -2.2970  -19.7017  -44.7786 N.am      10 UNK        -0.5000 
     25 C          -3.5571  -19.7934  -45.2270 C.2       9 UNK         0.5000 
     26 O          -4.1877  -20.8491  -45.2743 O.2       9 UNK        -0.5000 
     27 CA         -4.2110  -18.4983  -45.7446 C.3       9 UNK         0.1400 
     28 CB         -4.8313  -17.7056  -44.5847 C.3       9 UNK        -0.1800 
     29 N          -3.2781  -17.6381  -46.4732 N.am      9 UNK        -0.5000 
     30 C          -2.7081  -17.9574  -47.6435 C.2       8 UNK         0.5000 
     31 O          -2.9325  -19.0035  -48.2500 O.2       8 UNK        -0.5000 
     32 CA         -1.6752  -16.9623  -48.2052 C.3       8 UNK         0.1400 
     33 CB         -2.3940  -15.8554  -48.9917 C.3       8 UNK        -0.1800 
     34 N          -0.8086  -16.3494  -47.1919 N.am      8 UNK        -0.5000 
     35 C          -0.0944  -17.0060  -46.2667 C.2       7 UNK         0.5000 
     36 O          -0.1340  -18.2281  -46.1171 O.2       7 UNK        -0.5000 
     37 CA          0.7432  -16.1354  -45.3117 C.3       7 UNK         0.1400 
     38 CB         -0.1680  -15.2814  -44.4149 C.3       7 UNK        -0.1800 
     39 N           1.6278  -16.9228  -44.4577 N.am      7 UNK        -0.5000 
     40 C           2.7515  -17.5249  -44.8689 C.2       6 UNK         0.5000 
     41 O           3.1889  -17.4517  -46.0177 O.2       6 UNK        -0.5000 
     42 CA          3.5304  -18.2945  -43.7889 C.3       6 UNK         0.1400 
     43 CB          4.9531  -18.6866  -44.2292 C.3       6 UNK        -0.1800 
     44 N           3.6086  -17.4787  -42.5796 N.am      6 UNK        -0.5000 
     45 C           3.3992  -17.9111  -41.3302 C.2       5 UNK         0.5000 
     46 O           3.1200  -19.0781  -41.0530 O.2       5 UNK        -0.5000 
     47 CA          3.5259  -16.8796  -40.1879 C.3       5 UNK         0.1400 
     48 CB          4.8365  -17.0962  -39.4151 C.3       5 UNK        -0.1800 
     49 N           3.4748  -15.4866  -40.6375 N.am      5 UNK        -0.5000 
     50 C           2.3808  -14.8626  -41.0948 C.2       4 UNK         0.5000 
     51 O           1.2668  -15.3848  -41.1380 O.2       4 UNK        -0.5000 
     52 CA          2.5697  -13.4255  -41.6248 C.3       4 UNK         0.1400 
     53 CB          2.2200  -12.4000  -40.5367 C.3       4 UNK        -0.1800 
     54 N           3.9127  -13.1331  -42.1403 N.am      4 UNK        -0.5000 
     55 C           4.5168  -13.7783  -43.1466 C.2       3 UNK         0.5000 
     56 O           4.0273  -14.7512  -43.7195 O.2       3 UNK        -0.5000 
     57 CA          5.8706  -13.2104  -43.6077 C.3       3 UNK         0.1400 
     58 CB          6.6403  -14.1901  -44.5121 C.3       3 UNK        -0.1800 
     59 N           5.6457  -11.9679  -44.3403 N.am      3 UNK        -0.5000 
     60 C           5.4883  -10.7586  -43.7857 C.2       2 UNK         0.5000 
     61 O           5.6224  -10.5346  -42.5819 O.2       2 UNK        -0.5000 
     62 CA          5.0561   -9.6268  -44.7369 C.3       2 UNK         0.1400 
     63 CB          6.2746   -9.0112  -45.4416 C.3       2 UNK        -0.1800 
     64 N           4.0941  -10.0935  -45.7407 N.am      2 UNK        -0.5000 
     65 C           2.8304  -10.4423  -45.4607 C.2       1 UNK         0.5000 
     66 O           2.3235  -10.3394  -44.3409 O.2       1 UNK        -0.5000 
     67 C          -1.5922  -22.4591  -48.5169 C.2       11 UNK         0.5000 
     68 O          -1.4316  -23.6035  -48.9412 O.2       11 UNK        -0.5000 
     69 N          -2.7854  -21.8500  -48.4665 N.am      12 UNK        -0.5000 
     70 CA         -4.0533  -22.4702  -48.8547 C.3       12 UNK         0.1400 
     71 CB         -5.1633  -21.4098  -48.8560 C.3       12 UNK        -0.1800 
     72 C          -4.4355  -23.6589  -47.9537 C.2       12 UNK         0.5000 
     73 O          -4.8992  -24.6791  -48.4626 O.2       12 UNK        -0.5000 
     74 N          -4.2047  -23.5269  -46.6391 N.am      13 UNK        -0.5000 
     75 CA         -4.4162  -24.5895  -45.6545 C.3       13 UNK         0.1400 
     76 CB         -4.3123  -24.0164  -44.2337 C.3       13 UNK        -0.1800 
     77 C          -3.4500  -25.7740  -45.8403 C.2       13 UNK         0.5000 
     78 O          -3.8840  -26.9220  -45.7504 O.2       13 UNK        -0.5000 
     79 N          -2.1741  -25.4815  -46.1308 N.am      14 UNK        -0.5000 
     80 CA         -1.1341  -26.4700  -46.4267 C.3       14 UNK         0.1400 
     81 CB          0.2380  -25.7801  -46.4633 C.3       14 UNK        -0.1800 
     82 C          -1.3961  -27.2330  -47.7380 C.2       14 UNK         0.5000 
     83 O          -1.1939  -28.4469  -47.7868 O.2       14 UNK        -0.5000 
     84 N          -1.8755  -26.5155  -48.7634 N.am      15 UNK        -0.5000 
     85 CA         -2.3314  -27.0797  -50.0364 C.3       15 UNK         0.1400 
     86 CB         -2.4484  -25.9439  -51.0611 C.3       15 UNK        -0.1800 
     87 C          -3.6725  -27.8351  -49.9231 C.2       15 UNK         0.5000 
     88 O          -3.9835  -28.6461  -50.7960 O.2       15 UNK        -0.5000 
     89 N          -4.4308  -27.5476  -48.8562 N.am      16 UNK        -0.5000 
     90 CA         -5.7554  -28.0648  -48.5118 C.3       16 UNK         0.1400 
     91 CB         -5.7011  -29.5819  -48.2357 C.3       16 UNK        -0.1800 
     92 C          -6.8383  -27.6638  -49.5341 C.2       16 UNK         0.5000 
     93 O          -7.7283  -28.4632  -49.8332 O.2       16 UNK        -0.5000 
     94 N          -6.7554  -26.4289  -50.0455 N.am      17 UNK        -0.5000 
     95 CA         -7.6982  -25.8658  -51.0053 C.3       17 UNK         0.1400 
     96 CB         -7.4104  -26.4025  -52.4200 C.3       17 UNK        -0.1800 
     97 C          -7.6047  -24.3372  -50.9819 C.2       17 UNK         0.5000 
     98 O          -6.5063  -23.7917  -51.0922 O.2       17 UNK        -0.5000 
     99 N          -8.7617  -23.6672  -50.9063 N.am      18 UNK        -0.5000 
    100 CA        -8.8833  -22.2062  -50.9750 C.3       18 UNK         0.1400 
    101 CB       -10.3052  -21.8031  -50.5553 C.3       18 UNK        -0.1800 
    102 C         -8.5472  -21.6311  -52.3666 C.2       18 UNK         0.5000 
    103 O         -8.1830  -20.4601  -52.4698 O.2       18 UNK        -0.5000 
    104 N         -8.6666  -22.4693  -53.4053 N.am      19 UNK        -0.5000 
    105 CA        -8.3301  -22.1555  -54.7943 C.3       19 UNK         0.1400 
    106 CB        -9.0905  -23.1307  -55.7081 C.3       19 UNK        -0.1800 
    107 C         -6.8160  -22.2060  -55.0906 C.2       19 UNK         0.5000 
    108 O         -6.4107  -21.7997  -56.1811 O.2       19 UNK        -0.5000 
    109 N         -6.0127  -22.7177  -54.1463 N.am      20 UNK        -0.5000 
    110 CA        -4.5555  -22.7950  -54.2357 C.3       20 UNK         0.1400 
    111 CB        -4.0761  -24.0305  -53.4524 C.3       20 UNK        -0.1800 
    112 C         -3.8948  -21.4768  -53.7741 C.2       20 UNK         0.5000 
    113 O         -4.4489  -20.3988  -54.0037 O.2       20 UNK        -0.5000 
    114 N         -2.7060  -21.5769  -53.1598 N.am      21 UNK        -0.5000 
    115 CA        -1.8325  -20.4796  -52.7328 C.3       21 UNK         0.1400 
    116 CB        -2.4858  -19.6532  -51.6018 C.3       21 UNK        -0.1800 
    117 C         -1.3730  -19.6446  -53.9452 C.2       21 UNK         0.5000 
    118 O         -0.4271  -20.0506  -54.6214 O.2       21 UNK        -0.5000 
    119 N         -2.0632  -18.5309  -54.2120 N.am      22 UNK        -0.5000 
    120 CA        -1.8668  -17.6647  -55.3872 C.3       22 UNK         0.1400 
    121 C         -3.0525  -17.7336  -56.3950 C.2       22 UNK         0.5000 
    122 N         -4.0794  -18.5479  -56.1785 N.am      22 UNK        -0.7600 
    123 O         -3.0355  -17.0448  -57.4118 O.2       22 UNK        -0.5000 
    124 C124       -1.5578  -16.1996  -54.9774 C.3       23 UNK        -0.0398 
    125 S125       -0.0153  -16.0555  -54.0130 S.3       23 UNK        -0.2404 
    126 C126       -0.6876  -15.9754  -52.3267 C.3       23 UNK        -0.0205 
    127 H127       -1.6678   -9.4433  -46.7026 H         1 UNK         0.0600 
    128 H128       -1.2870   -8.3274  -48.0169 H         1 UNK         0.0600 
    129 H129       -1.0813   -7.8183  -46.3373 H         1 UNK         0.0600 
    130 H130       -0.0930  -10.9898  -46.4040 H         1 UNK         0.3000 
    131 H131        2.5213  -10.8575  -47.5543 H         1 UNK         0.0600 
    132 H132        2.8883  -13.0244  -46.3228 H         1 UNK         0.0800 
    133 H133        1.3788  -12.8109  -45.4879 H         1 UNK         0.0800 
    134 H134        2.8946  -13.5798  -49.2530 H         1 UNK         0.0800 
    135 H135        3.0459  -14.6783  -47.8983 H         1 UNK         0.0800 
    136 H136        0.5132  -14.1796  -50.6615 H         1 UNK         0.1150 
    137 H137        0.5024  -18.3404  -51.6964 H         1 UNK         0.1150 
    138 H138        3.0409  -16.9249  -48.5523 H         1 UNK         0.1150 
    139 H139        2.2018  -19.8057  -50.7896 H         1 UNK         0.0800 
    140 H140        3.4890  -19.1099  -49.8442 H         1 UNK         0.0800 
    141 H141       -0.5062  -19.8696  -49.1643 H         1 UNK         0.0800 
    142 H142        0.3565  -21.1826  -49.9357 H         1 UNK         0.0800 
    143 H143        0.3881  -22.4308  -47.7418 H         1 UNK         0.0600 
    144 H144       -0.6380  -20.0354  -46.6282 H         1 UNK         0.3000 
    145 H145       -2.1106  -21.4700  -43.6980 H         1 UNK         0.0600 
    146 H146       -0.5909  -19.7560  -42.6875 H         1 UNK         0.0600 
    147 H147        0.2714  -21.2201  -43.1331 H         1 UNK         0.0600 
    148 H148        0.4139  -19.7869  -44.1352 H         1 UNK         0.0600 
    149 H149       -1.8055  -18.8235  -44.8776 H         1 UNK         0.3000 
    150 H150       -5.0120  -18.7832  -46.4301 H         1 UNK         0.0600 
    151 H151       -5.5466  -18.3173  -44.0331 H         1 UNK         0.0600 
    152 H152       -5.3677  -16.8290  -44.9484 H         1 UNK         0.0600 
    153 H153       -4.0739  -17.3669  -43.8766 H         1 UNK         0.0600 
    154 H154       -3.0300  -16.7608  -46.0408 H         1 UNK         0.3000 
    155 H155       -1.0277  -17.5098  -48.8909 H         1 UNK         0.0600 
    156 H156       -3.0843  -15.2957  -48.3594 H         1 UNK         0.0600 
    157 H157       -2.9702  -16.2762  -49.8168 H         1 UNK         0.0600 
    158 H158       -1.6891  -15.1434  -49.4181 H         1 UNK         0.0600 
    159 H159       -0.7016  -15.3468  -47.2552 H         1 UNK         0.3000 
    160 H160        1.3701  -15.4784  -45.9126 H         1 UNK         0.0600 
    161 H161       -0.8125  -15.9009  -43.7898 H         1 UNK         0.0600 
    162 H162       -0.8100  -14.6260  -45.0044 H         1 UNK         0.0600 
    163 H163        0.4188  -14.6420  -43.7573 H         1 UNK         0.0600 
    164 H164        1.3499  -17.0275  -43.4931 H         1 UNK         0.3000 
    165 H165        2.9652  -19.2085  -43.5956 H         1 UNK         0.0600 
    166 H166        5.5540  -17.8072  -44.4648 H         1 UNK         0.0600 
    167 H167        5.4675  -19.2450  -43.4471 H         1 UNK         0.0600 
    168 H168        4.9284  -19.3192  -45.1173 H         1 UNK         0.0600 
    169 H169        3.7871  -16.4919  -42.7430 H         1 UNK         0.3000 
    170 H170        2.6926  -17.0485  -39.5026 H         1 UNK         0.0600 
    171 H171        4.8999  -18.1144  -39.0290 H         1 UNK         0.0600 
    172 H172        5.7088  -16.9309  -40.0489 H         1 UNK         0.0600 
    173 H173        4.9078  -16.4223  -38.5612 H         1 UNK         0.0600 
    174 H174        4.3471  -14.9790  -40.6388 H         1 UNK         0.3000 
    175 H175        1.8715  -13.2901  -42.4525 H         1 UNK         0.0600 
    176 H176        2.9109  -12.4559  -39.6946 H         1 UNK         0.0600 
    177 H177        2.2497  -11.3834  -40.9301 H         1 UNK         0.0600 
    178 H178        1.2141  -12.5676  -40.1491 H         1 UNK         0.0600 
    179 H179        4.3722  -12.3151  -41.7605 H         1 UNK         0.3000 
    180 H180        6.4805  -13.0175  -42.7226 H         1 UNK         0.0600 
    181 H181        6.0936  -14.4122  -45.4297 H         1 UNK         0.0600 
    182 H182        6.8179  -15.1364  -43.9993 H         1 UNK         0.0600 
    183 H183        7.6127  -13.7850  -44.7922 H         1 UNK         0.0600 
    184 H184        5.4922  -12.0590  -45.3332 H         1 UNK         0.3000 
    185 H185        4.5800   -8.8481  -44.1370 H         1 UNK         0.0600 
    186 H186        5.9830   -8.1673  -46.0671 H         1 UNK         0.0600 
    187 H187        6.9986   -8.6405  -44.7146 H         1 UNK         0.0600 
    188 H188        6.7870   -9.7372  -46.0740 H         1 UNK         0.0600 
    189 H189        4.4343  -10.1781  -46.6880 H         1 UNK         0.3000 
    190 H190       -2.8320  -20.8820  -48.1577 H         1 UNK         0.3000 
    191 H191       -3.9463  -22.8488  -49.8735 H         1 UNK         0.0600 
    192 H192       -6.1236  -21.8545  -49.1154 H         1 UNK         0.0600 
    193 H193       -4.9595  -20.6261  -49.5858 H         1 UNK         0.0600 
    194 H194       -5.2725  -20.9389  -47.8790 H         1 UNK         0.0600 
    195 H195       -3.8774  -22.6354  -46.2841 H         1 UNK         0.3000 
    196 H196       -5.4316  -24.9685  -45.7887 H         1 UNK         0.0600 
    197 H197       -4.4970  -24.7895  -43.4869 H         1 UNK         0.0600 
    198 H198       -5.0468  -23.2273  -44.0724 H         1 UNK         0.0600 
    199 H199       -3.3247  -23.6003  -44.0368 H         1 UNK         0.0600 
    200 H200       -1.8806  -24.5077  -46.1154 H         1 UNK         0.3000 
    201 H201       -1.1252  -27.1995  -45.6143 H         1 UNK         0.0600 
    202 H202        0.4665  -25.3080  -45.5077 H         1 UNK         0.0600 
    203 H203        0.2816  -25.0106  -47.2345 H         1 UNK         0.0600 
    204 H204        1.0321  -26.4987  -46.6695 H         1 UNK         0.0600 
    205 H205       -1.9407  -25.5063  -48.6662 H         1 UNK         0.3000 
    206 H206       -1.5803  -27.7883  -50.3914 H         1 UNK         0.0600 
    207 H207       -1.4908  -25.4454  -51.2117 H         1 UNK         0.0600 
    208 H208       -2.7768  -26.3223  -52.0299 H         1 UNK         0.0600 
    209 H209       -3.1691  -25.1937  -50.7349 H         1 UNK         0.0600 
    210 H210       -4.0898  -26.8215  -48.2403 H         1 UNK         0.3000 
    211 H211       -6.0321  -27.5739  -47.5778 H         1 UNK         0.0600 
    212 H212       -5.4905  -30.1529  -49.1403 H         1 UNK         0.0600 
    213 H213       -6.6506  -29.9405  -47.8368 H         1 UNK         0.0600 
    214 H214       -4.9315  -29.8195  -47.5011 H         1 UNK         0.0600 
    215 H215       -6.0277  -25.7973  -49.7172 H         1 UNK         0.3000 
    216 H216       -8.7109  -26.1553  -50.7163 H         1 UNK         0.0600 
    217 H217       -6.3823  -26.2001  -52.7211 H         1 UNK         0.0600 
    218 H218       -8.0678  -25.9421  -53.1584 H         1 UNK         0.0600 
    219 H219       -7.5662  -27.4798  -52.4761 H         1 UNK         0.0600 
    220 H220       -9.6253  -24.1841  -50.8198 H         1 UNK         0.3000 
    221 H221       -8.1819  -21.7693  -50.2624 H         1 UNK         0.0600 
    222 H222      -11.0572  -22.2229  -51.2245 H         1 UNK         0.0600 
    223 H223      -10.5286  -22.1407  -49.5431 H         1 UNK         0.0600 
    224 H224      -10.4236  -20.7187  -50.5678 H         1 UNK         0.0600 
    225 H225       -8.9863  -23.4085  -53.2222 H         1 UNK         0.3000 
    226 H226       -8.6712  -21.1422  -55.0169 H         1 UNK         0.0600 
    227 H227      -10.1670  -23.0632  -55.5490 H         1 UNK         0.0600 
    228 H228       -8.9058  -22.9082  -56.7599 H         1 UNK         0.0600 
    229 H229       -8.7882  -24.1641  -55.5335 H         1 UNK         0.0600 
    230 H230       -6.4156  -22.9837  -53.2576 H         1 UNK         0.3000 
    231 H231       -4.2713  -22.9402  -55.2798 H         1 UNK         0.0600 
    232 H232       -3.0162  -24.2247  -53.6187 H         1 UNK         0.0600 
    233 H233       -4.6112  -24.9263  -53.7666 H         1 UNK         0.0600 
    234 H234       -4.2323  -23.9075  -52.3811 H         1 UNK         0.0600 
    235 H235       -2.3197  -22.5024  -53.0412 H         1 UNK         0.3000 
    236 H236       -0.9359  -20.9421  -52.3173 H         1 UNK         0.0600 
    237 H237       -2.7296  -20.2910  -50.7544 H         1 UNK         0.0600 
    238 H238       -1.8101  -18.8825  -51.2333 H         1 UNK         0.0600 
    239 H239       -3.4088  -19.1627  -51.9100 H         1 UNK         0.0600 
    240 H240       -2.8681  -18.3204  -53.6400 H         1 UNK         0.3000 
    241 H241       -1.0076  -18.0223  -55.9571 H         1 UNK         0.0600 
    242 H242       -4.1235  -19.1530  -55.3618 H         1 UNK         0.3800 
    243 H243       -4.8285  -18.5809  -56.8513 H         1 UNK         0.3800 
    244 H244       -1.4365  -15.5731  -55.8626 H         1 UNK         0.0800 
    245 H245       -2.3902  -15.7706  -54.4172 H         1 UNK         0.0800 
    246 H246       -1.4822  -16.7106  -52.2046 H         1 UNK         0.0800 
    247 H247       -1.1498  -14.9991  -52.1725 H         1 UNK         0.0800 
@<TRIPOS>BOND
     1    1    2 1    
     2    1  127 1    
     3    1  128 1    
     4    1  129 1    
     5    2    3 2    
     6    2    4 am   BACKBONE|DICT|INTERRES
     7    4    5 1    
     8    4  130 1    
     9    5    6 1    
    10    5   65 1    
    11    5  131 1    
    12    6    7 1    
    13    6  132 1    
    14    6  133 1    
    15    7    8 1    
    16    8    9 1    
    17    8  134 1    
    18    8  135 1    
    19    9   10 ar   
    20    9   14 ar   
    21   10   11 ar   
    22   10  136 1    
    23   11   12 ar   
    24   11  126 1    
    25   12   13 ar   
    26   12  137 1    
    27   13   14 ar   
    28   13   15 1    
    29   14  138 1    
    30   15   16 1    
    31   15  139 1    
    32   15  140 1    
    33   16   17 1    
    34   17   18 1    
    35   17  141 1    
    36   17  142 1    
    37   18   19 1    
    38   18   67 1    
    39   18  143 1    
    40   19   20 am   BACKBONE|DICT|INTERRES
    41   19  144 1    
    42   20   21 2    
    43   20   22 1    
    44   22   23 1    
    45   22   24 1    
    46   22  145 1    
    47   23  146 1    
    48   23  147 1    
    49   23  148 1    
    50   24   25 am   BACKBONE|DICT|INTERRES
    51   24  149 1    
    52   25   26 2    
    53   25   27 1    
    54   27   28 1    
    55   27   29 1    
    56   27  150 1    
    57   28  151 1    
    58   28  152 1    
    59   28  153 1    
    60   29   30 am   BACKBONE|DICT|INTERRES
    61   29  154 1    
    62   30   31 2    
    63   30   32 1    
    64   32   33 1    
    65   32   34 1    
    66   32  155 1    
    67   33  156 1    
    68   33  157 1    
    69   33  158 1    
    70   34   35 am   BACKBONE|DICT|INTERRES
    71   34  159 1    
    72   35   36 2    
    73   35   37 1    
    74   37   38 1    
    75   37   39 1    
    76   37  160 1    
    77   38  161 1    
    78   38  162 1    
    79   38  163 1    
    80   39   40 am   BACKBONE|DICT|INTERRES
    81   39  164 1    
    82   40   41 2    
    83   40   42 1    
    84   42   43 1    
    85   42   44 1    
    86   42  165 1    
    87   43  166 1    
    88   43  167 1    
    89   43  168 1    
    90   44   45 am   BACKBONE|DICT|INTERRES
    91   44  169 1    
    92   45   46 2    
    93   45   47 1    
    94   47   48 1    
    95   47   49 1    
    96   47  170 1    
    97   48  171 1    
    98   48  172 1    
    99   48  173 1    
   100   49   50 am   BACKBONE|DICT|INTERRES
   101   49  174 1    
   102   50   51 2    
   103   50   52 1    
   104   52   53 1    
   105   52   54 1    
   106   52  175 1    
   107   53  176 1    
   108   53  177 1    
   109   53  178 1    
   110   54   55 am   BACKBONE|DICT|INTERRES
   111   54  179 1    
   112   55   56 2    
   113   55   57 1    
   114   57   58 1    
   115   57   59 1    
   116   57  180 1    
   117   58  181 1    
   118   58  182 1    
   119   58  183 1    
   120   59   60 am   BACKBONE|DICT|INTERRES
   121   59  184 1    
   122   60   61 2    
   123   60   62 1    
   124   62   63 1    
   125   62   64 1    
   126   62  185 1    
   127   63  186 1    
   128   63  187 1    
   129   63  188 1    
   130   64   65 am   BACKBONE|DICT|INTERRES
   131   64  189 1    
   132   65   66 2    
   133   67   68 2    
   134   67   69 am   BACKBONE|DICT|INTERRES
   135   69   70 1    
   136   69  190 1    
   137   70   71 1    
   138   70   72 1    
   139   70  191 1    
   140   71  192 1    
   141   71  193 1    
   142   71  194 1    
   143   72   73 2    
   144   72   74 am   BACKBONE|DICT|INTERRES
   145   74   75 1    
   146   74  195 1    
   147   75   76 1    
   148   75   77 1    
   149   75  196 1    
   150   76  197 1    
   151   76  198 1    
   152   76  199 1    
   153   77   78 2    
   154   77   79 am   BACKBONE|DICT|INTERRES
   155   79   80 1    
   156   79  200 1    
   157   80   81 1    
   158   80   82 1    
   159   80  201 1    
   160   81  202 1    
   161   81  203 1    
   162   81  204 1    
   163   82   83 2    
   164   82   84 am   BACKBONE|DICT|INTERRES
   165   84   85 1    
   166   84  205 1    
   167   85   86 1    
   168   85   87 1    
   169   85  206 1    
   170   86  207 1    
   171   86  208 1    
   172   86  209 1    
   173   87   88 2    
   174   87   89 am   BACKBONE|DICT|INTERRES
   175   89   90 1    
   176   89  210 1    
   177   90   91 1    
   178   90   92 1    
   179   90  211 1    
   180   91  212 1    
   181   91  213 1    
   182   91  214 1    
   183   92   93 2    
   184   92   94 am   BACKBONE|DICT|INTERRES
   185   94   95 1    
   186   94  215 1    
   187   95   96 1    
   188   95   97 1    
   189   95  216 1    
   190   96  217 1    
   191   96  218 1    
   192   96  219 1    
   193   97   98 2    
   194   97   99 am   BACKBONE|DICT|INTERRES
   195   99  100 1    
   196   99  220 1    
   197  100  101 1    
   198  100  102 1    
   199  100  221 1    
   200  101  222 1    
   201  101  223 1    
   202  101  224 1    
   203  102  103 2    
   204  102  104 am   BACKBONE|DICT|INTERRES
   205  104  105 1    
   206  104  225 1    
   207  105  106 1    
   208  105  107 1    
   209  105  226 1    
   210  106  227 1    
   211  106  228 1    
   212  106  229 1    
   213  107  108 2    
   214  107  109 am   BACKBONE|DICT|INTERRES
   215  109  110 1    
   216  109  230 1    
   217  110  111 1    
   218  110  112 1    
   219  110  231 1    
   220  111  232 1    
   221  111  233 1    
   222  111  234 1    
   223  112  113 2    
   224  112  114 am   BACKBONE|DICT|INTERRES
   225  114  115 1    
   226  114  235 1    
   227  115  116 1    
   228  115  117 1    
   229  115  236 1    
   230  116  237 1    
   231  116  238 1    
   232  116  239 1    
   233  117  118 2    
   234  117  119 am   BACKBONE|DICT|INTERRES
   235  119  120 1    
   236  119  240 1    
   237  120  121 1    
   238  120  124 1    
   239  120  241 1    
   240  121  122 am   BACKBONE|DICT|INTERRES
   241  121  123 2    
   242  122  242 1    
   243  122  243 1    
   244  124  125 1    
   245  124  244 1    
   246  124  245 1    
   247  125  126 1    
   248  126  246 1    
   249  126  247 1    
@<TRIPOS>SUBSTRUCTURE
     1 UNK         1 GROUP             0       ****    0 ROOT    
