@<TRIPOS>MOLECULE
3R540
247   249    1
SMALL
USER_CHARGES


@<TRIPOS>ATOM
      1 CA         -0.9288  -13.6670  -45.7873 C.3       0 UNK        -0.1800 
      2 C           0.5011  -13.3866  -46.2245 C.2       0 UNK         0.5000 
      3 O           1.4374  -13.7482  -45.5129 O.2       0 UNK        -0.5000 
      4 N           0.6576  -12.7501  -47.3930 N.am      1 UNK        -0.5000 
      5 CA          1.9149  -12.3793  -48.0713 C.3       1 UNK         0.1400 
      6 C6          2.9587  -13.5223  -48.1972 C.3       23 UNK        -0.0398 
      7 S7          2.2369  -15.0229  -48.9405 S.3       23 UNK        -0.2404 
      8 C8          3.7197  -15.9413  -49.4361 C.3       23 UNK        -0.0205 
      9 C9          3.3349  -17.2967  -50.0058 C.ar      23 UNK        -0.0193 
     10 C10         2.8837  -17.3992  -51.3245 C.ar      23 UNK        -0.1150 
     11 C11         2.5280  -18.6410  -51.8553 C.ar      23 UNK        -0.0193 
     12 C12         2.6403  -19.7838  -51.0602 C.ar      23 UNK        -0.1150 
     13 C13         3.0696  -19.6994  -49.7294 C.ar      23 UNK        -0.0193 
     14 C14         3.4184  -18.4465  -49.2150 C.ar      23 UNK        -0.1150 
     15 C15         3.1697  -20.9159  -48.8056 C.3       23 UNK        -0.0205 
     16 S16         2.7966  -22.5381  -49.5572 S.3       23 UNK        -0.2404 
     17 C17         0.9777  -22.4733  -49.7223 C.3       23 UNK        -0.0398 
     18 CA          0.2959  -23.4016  -48.6940 C.3       11 UNK         0.1400 
     19 N           0.4395  -22.9171  -47.3199 N.am      11 UNK        -0.5000 
     20 C           0.2849  -23.6822  -46.2324 C.2       10 UNK         0.5000 
     21 O           0.0131  -24.8828  -46.2721 O.2       10 UNK        -0.5000 
     22 CA          0.4136  -22.9676  -44.8757 C.3       10 UNK         0.1400 
     23 CB          1.8902  -22.7474  -44.5137 C.3       10 UNK        -0.1800 
     24 N          -0.2880  -21.6831  -44.8607 N.am      10 UNK        -0.5000 
     25 C          -1.6207  -21.5548  -44.9368 C.2       9 UNK         0.5000 
     26 O          -2.3943  -22.5090  -44.9971 O.2       9 UNK        -0.5000 
     27 CA         -2.1886  -20.1255  -44.9993 C.3       9 UNK         0.1400 
     28 CB         -2.4866  -19.6021  -43.5866 C.3       9 UNK        -0.1800 
     29 N          -1.3184  -19.1802  -45.6998 N.am      9 UNK        -0.5000 
     30 C          -0.9535  -19.2763  -46.9877 C.2       8 UNK         0.5000 
     31 O          -1.2818  -20.2065  -47.7237 O.2       8 UNK        -0.5000 
     32 CA         -0.0523  -18.1595  -47.5450 C.3       8 UNK         0.1400 
     33 CB         -0.9167  -17.0913  -48.2330 C.3       8 UNK        -0.1800 
     34 N           0.7969  -17.5234  -46.5334 N.am      8 UNK        -0.5000 
     35 C           1.7342  -18.1522  -45.8087 C.2       7 UNK         0.5000 
     36 O           1.9741  -19.3569  -45.8911 O.2       7 UNK        -0.5000 
     37 CA          2.5022  -17.2963  -44.7889 C.3       7 UNK         0.1400 
     38 CB          3.6886  -16.5880  -45.4572 C.3       7 UNK        -0.1800 
     39 N           1.6574  -16.3043  -44.1196 N.am      7 UNK        -0.5000 
     40 C           0.6816  -16.6026  -43.2490 C.2       6 UNK         0.5000 
     41 O           0.3403  -17.7559  -42.9870 O.2       6 UNK        -0.5000 
     42 CA          0.0213  -15.4162  -42.5245 C.3       6 UNK         0.1400 
     43 CB         -0.8006  -15.8360  -41.2902 C.3       6 UNK        -0.1800 
     44 N           1.0600  -14.4658  -42.1370 N.am      6 UNK        -0.5000 
     45 C           0.9195  -13.1397  -42.0605 C.2       5 UNK         0.5000 
     46 O          -0.1514  -12.5492  -42.2209 O.2       5 UNK        -0.5000 
     47 CA          2.2133  -12.3637  -41.7623 C.3       5 UNK         0.1400 
     48 CB          3.1901  -12.4575  -42.9473 C.3       5 UNK        -0.1800 
     49 N           1.9366  -10.9517  -41.5040 N.am      5 UNK        -0.5000 
     50 C           2.1104  -10.3372  -40.3263 C.2       4 UNK         0.5000 
     51 O           2.4886  -10.9210  -39.3087 O.2       4 UNK        -0.5000 
     52 CA          1.8558   -8.8164  -40.2578 C.3       4 UNK         0.1400 
     53 CB          3.1126   -8.0772  -39.7656 C.3       4 UNK        -0.1800 
     54 N           1.4707   -8.2465  -41.5497 N.am      4 UNK        -0.5000 
     55 C           0.2181   -7.9634  -41.9275 C.2       3 UNK         0.5000 
     56 O          -0.7700   -8.1286  -41.2109 O.2       3 UNK        -0.5000 
     57 CA          0.0370   -7.4056  -43.3551 C.3       3 UNK         0.1400 
     58 CB         -0.0251   -5.8705  -43.3259 C.3       3 UNK        -0.1800 
     59 N           1.0760   -7.8233  -44.3062 N.am      3 UNK        -0.5000 
     60 C           1.2937   -9.0892  -44.6824 C.2       2 UNK         0.5000 
     61 O           0.6883  -10.0543  -44.2089 O.2       2 UNK        -0.5000 
     62 CA          2.3742   -9.3245  -45.7466 C.3       2 UNK         0.1400 
     63 CB          3.7858   -9.2903  -45.1318 C.3       2 UNK        -0.1800 
     64 N           2.0984  -10.6201  -46.3549 N.am      2 UNK        -0.5000 
     65 C           2.5458  -11.0772  -47.5274 C.2       1 UNK         0.5000 
     66 O           3.3823  -10.4830  -48.2095 O.2       1 UNK        -0.5000 
     67 C          -1.1807  -23.6617  -49.0453 C.2       11 UNK         0.5000 
     68 O          -1.4657  -24.6396  -49.7343 O.2       11 UNK        -0.5000 
     69 N          -2.0978  -22.8328  -48.5261 N.am      12 UNK        -0.5000 
     70 CA         -3.5424  -23.0354  -48.6373 C.3       12 UNK         0.1400 
     71 CB         -4.2868  -21.8094  -48.0903 C.3       12 UNK        -0.1800 
     72 C          -4.0072  -24.3212  -47.9299 C.2       12 UNK         0.5000 
     73 O          -4.7858  -25.0807  -48.5040 O.2       12 UNK        -0.5000 
     74 N          -3.4869  -24.5764  -46.7199 N.am      13 UNK        -0.5000 
     75 CA         -3.7245  -25.8049  -45.9594 C.3       13 UNK         0.1400 
     76 CB         -3.1190  -25.6782  -44.5537 C.3       13 UNK        -0.1800 
     77 C          -3.1906  -27.0572  -46.6780 C.2       13 UNK         0.5000 
     78 O          -3.9021  -28.0598  -46.7509 O.2       13 UNK        -0.5000 
     79 N          -1.9805  -26.9613  -47.2496 N.am      14 UNK        -0.5000 
     80 CA         -1.3685  -28.0056  -48.0785 C.3       14 UNK         0.1400 
     81 CB          0.0814  -27.6184  -48.4052 C.3       14 UNK        -0.1800 
     82 C          -2.1616  -28.2976  -49.3698 C.2       14 UNK         0.5000 
     83 O          -2.2114  -29.4476  -49.8065 O.2       14 UNK        -0.5000 
     84 N          -2.8067  -27.2634  -49.9249 N.am      15 UNK        -0.5000 
     85 CA         -3.7154  -27.3311  -51.0705 C.3       15 UNK         0.1400 
     86 CB         -3.6839  -25.9800  -51.8054 C.3       15 UNK        -0.1800 
     87 C          -5.1590  -27.7335  -50.6895 C.2       15 UNK         0.5000 
     88 O          -6.0482  -27.6294  -51.5344 O.2       15 UNK        -0.5000 
     89 N          -5.3785  -28.1819  -49.4436 N.am      16 UNK        -0.5000 
     90 CA         -6.6449  -28.6605  -48.8785 C.3       16 UNK         0.1400 
     91 CB         -7.1292  -29.9353  -49.6017 C.3       16 UNK        -0.1800 
     92 C          -7.7222  -27.5599  -48.7886 C.2       16 UNK         0.5000 
     93 O          -8.8857  -27.7981  -49.1170 O.2       16 UNK        -0.5000 
     94 N          -7.2991  -26.3741  -48.3303 N.am      17 UNK        -0.5000 
     95 CA         -8.0832  -25.1550  -48.1025 C.3       17 UNK         0.1400 
     96 CB         -9.2715  -25.4012  -47.1487 C.3       17 UNK        -0.1800 
     97 C          -8.4864  -24.4160  -49.3945 C.2       17 UNK         0.5000 
     98 O          -9.3400  -23.5280  -49.3451 O.2       17 UNK        -0.5000 
     99 N          -7.8421  -24.7527  -50.5190 N.am      18 UNK        -0.5000 
    100 CA        -7.8895  -23.9801  -51.7591 C.3       18 UNK         0.1400 
    101 CB        -7.4739  -24.8895  -52.9256 C.3       18 UNK        -0.1800 
    102 C         -6.9627  -22.7516  -51.6687 C.2       18 UNK         0.5000 
    103 O         -6.1142  -22.6787  -50.7787 O.2       18 UNK        -0.5000 
    104 N         -7.1145  -21.8148  -52.6135 N.am      19 UNK        -0.5000 
    105 CA        -6.3156  -20.5854  -52.6936 C.3       19 UNK         0.1400 
    106 CB        -6.9916  -19.6194  -53.6796 C.3       19 UNK        -0.1800 
    107 C         -4.8421  -20.8109  -53.0952 C.2       19 UNK         0.5000 
    108 O         -4.0296  -19.8985  -52.9333 O.2       19 UNK        -0.5000 
    109 N         -4.5335  -21.9928  -53.6569 N.am      20 UNK        -0.5000 
    110 CA        -3.2093  -22.4638  -54.0966 C.3       20 UNK         0.1400 
    111 CB        -2.2613  -22.5915  -52.8834 C.3       20 UNK        -0.1800 
    112 C         -2.5774  -21.6258  -55.2346 C.2       20 UNK         0.5000 
    113 O         -1.3870  -21.7775  -55.5089 O.2       20 UNK        -0.5000 
    114 N         -3.3838  -20.7533  -55.8622 N.am      21 UNK        -0.5000 
    115 CA        -3.0050  -19.6804  -56.7921 C.3       21 UNK         0.1400 
    116 CB        -2.3803  -20.2495  -58.0849 C.3       21 UNK        -0.1800 
    117 C         -2.1370  -18.5792  -56.1344 C.2       21 UNK         0.5000 
    118 O         -1.4350  -17.8543  -56.8431 O.2       21 UNK        -0.5000 
    119 N         -2.2105  -18.4614  -54.8002 N.am      22 UNK        -0.5000 
    120 CA        -1.4296  -17.5190  -53.9780 C.3       22 UNK         0.1400 
    121 C         -2.2656  -16.3120  -53.4583 C.2       22 UNK         0.5000 
    122 N         -3.5536  -16.2095  -53.7647 N.am      22 UNK        -0.7600 
    123 O         -1.7321  -15.4364  -52.7807 O.2       22 UNK        -0.5000 
    124 C124       -0.7121  -18.2477  -52.8091 C.3       23 UNK        -0.0398 
    125 S125        0.4058  -19.5670  -53.3987 S.3       23 UNK        -0.2404 
    126 C126        2.0358  -18.7590  -53.2912 C.3       23 UNK        -0.0205 
    127 H127       -1.6539  -13.3276  -46.5277 H         1 UNK         0.0600 
    128 H128       -1.1384  -13.1542  -44.8486 H         1 UNK         0.0600 
    129 H129       -1.0738  -14.7368  -45.6389 H         1 UNK         0.0600 
    130 H130       -0.1739  -12.4842  -47.9020 H         1 UNK         0.3000 
    131 H131        1.6071  -12.1309  -49.0885 H         1 UNK         0.0600 
    132 H132        3.3873  -13.7710  -47.2261 H         1 UNK         0.0800 
    133 H133        3.7929  -13.1992  -48.8227 H         1 UNK         0.0800 
    134 H134        4.2739  -15.3687  -50.1814 H         1 UNK         0.0800 
    135 H135        4.3813  -16.0607  -48.5768 H         1 UNK         0.0800 
    136 H136        2.8060  -16.5089  -51.9329 H         1 UNK         0.1150 
    137 H137        2.3713  -20.7338  -51.4961 H         1 UNK         0.1150 
    138 H138        3.7528  -18.3665  -48.1903 H         1 UNK         0.1150 
    139 H139        4.1824  -20.9601  -48.4027 H         1 UNK         0.0800 
    140 H140        2.5072  -20.7712  -47.9536 H         1 UNK         0.0800 
    141 H141        0.7361  -22.7834  -50.7409 H         1 UNK         0.0800 
    142 H142        0.6170  -21.4478  -49.6228 H         1 UNK         0.0800 
    143 H143        0.7948  -24.3716  -48.7532 H         1 UNK         0.0600 
    144 H144        0.6147  -21.9305  -47.1997 H         1 UNK         0.3000 
    145 H145       -0.0336  -23.6105  -44.1144 H         1 UNK         0.0600 
    146 H146        2.4336  -23.6931  -44.4999 H         1 UNK         0.0600 
    147 H147        2.3889  -22.0922  -45.2294 H         1 UNK         0.0600 
    148 H148        1.9907  -22.3000  -43.5246 H         1 UNK         0.0600 
    149 H149        0.2821  -20.8477  -44.8474 H         1 UNK         0.3000 
    150 H150       -3.1312  -20.1648  -45.5472 H         1 UNK         0.0600 
    151 H151       -2.9058  -18.5960  -43.6145 H         1 UNK         0.0600 
    152 H152       -1.5884  -19.5765  -42.9689 H         1 UNK         0.0600 
    153 H153       -3.2108  -20.2421  -43.0807 H         1 UNK         0.0600 
    154 H154       -0.9596  -18.4093  -45.1549 H         1 UNK         0.3000 
    155 H155        0.6004  -18.6093  -48.2960 H         1 UNK         0.0600 
    156 H156       -1.5623  -17.5397  -48.9896 H         1 UNK         0.0600 
    157 H157       -0.3049  -16.3473  -48.7403 H         1 UNK         0.0600 
    158 H158       -1.5580  -16.5705  -47.5206 H         1 UNK         0.0600 
    159 H159        0.6866  -16.5286  -46.4058 H         1 UNK         0.3000 
    160 H160        2.8979  -17.9703  -44.0260 H         1 UNK         0.0600 
    161 H161        4.3543  -17.3057  -45.9382 H         1 UNK         0.0600 
    162 H162        4.2793  -16.0327  -44.7285 H         1 UNK         0.0600 
    163 H163        3.3534  -15.8868  -46.2200 H         1 UNK         0.0600 
    164 H164        1.8155  -15.3304  -44.3644 H         1 UNK         0.3000 
    165 H165       -0.6536  -14.9472  -43.2411 H         1 UNK         0.0600 
    166 H166       -1.2718  -14.9740  -40.8178 H         1 UNK         0.0600 
    167 H167       -1.5973  -16.5284  -41.5658 H         1 UNK         0.0600 
    168 H168       -0.1772  -16.3289  -40.5431 H         1 UNK         0.0600 
    169 H169        1.9767  -14.8689  -41.9968 H         1 UNK         0.3000 
    170 H170        2.6841  -12.8302  -40.8943 H         1 UNK         0.0600 
    171 H171        4.1101  -11.9096  -42.7433 H         1 UNK         0.0600 
    172 H172        3.4715  -13.4902  -43.1552 H         1 UNK         0.0600 
    173 H173        2.7505  -12.0522  -43.8587 H         1 UNK         0.0600 
    174 H174        1.5044  -10.4472  -42.2698 H         1 UNK         0.3000 
    175 H175        1.0626   -8.6567  -39.5245 H         1 UNK         0.0600 
    176 H176        3.9578   -8.2275  -40.4387 H         1 UNK         0.0600 
    177 H177        2.9329   -7.0048  -39.6870 H         1 UNK         0.0600 
    178 H178        3.4139   -8.4259  -38.7767 H         1 UNK         0.0600 
    179 H179        2.2171   -8.0803  -42.2092 H         1 UNK         0.3000 
    180 H180       -0.9204   -7.7773  -43.7268 H         1 UNK         0.0600 
    181 H181       -0.2494   -5.4648  -44.3128 H         1 UNK         0.0600 
    182 H182        0.9173   -5.4363  -42.9890 H         1 UNK         0.0600 
    183 H183       -0.8071   -5.5234  -42.6489 H         1 UNK         0.0600 
    184 H184        1.6194   -7.0841  -44.7295 H         1 UNK         0.3000 
    185 H185        2.2856   -8.5495  -46.5109 H         1 UNK         0.0600 
    186 H186        3.9037  -10.0318  -44.3430 H         1 UNK         0.0600 
    187 H187        4.5529   -9.4782  -45.8831 H         1 UNK         0.0600 
    188 H188        3.9974   -8.3137  -44.6952 H         1 UNK         0.0600 
    189 H189        1.4057  -11.1624  -45.8508 H         1 UNK         0.3000 
    190 H190       -1.7881  -22.0020  -48.0289 H         1 UNK         0.3000 
    191 H191       -3.7776  -23.1337  -49.6983 H         1 UNK         0.0600 
    192 H192       -4.1067  -21.6713  -47.0254 H         1 UNK         0.0600 
    193 H193       -5.3634  -21.9174  -48.2275 H         1 UNK         0.0600 
    194 H194       -3.9824  -20.8993  -48.6074 H         1 UNK         0.0600 
    195 H195       -2.8968  -23.8777  -46.2774 H         1 UNK         0.3000 
    196 H196       -4.8048  -25.9228  -45.8509 H         1 UNK         0.0600 
    197 H197       -3.2864  -26.5855  -43.9721 H         1 UNK         0.0600 
    198 H198       -3.5715  -24.8525  -44.0043 H         1 UNK         0.0600 
    199 H199       -2.0434  -25.5044  -44.5905 H         1 UNK         0.0600 
    200 H200       -1.4380  -26.1160  -47.1060 H         1 UNK         0.3000 
    201 H201       -1.3488  -28.9246  -47.4893 H         1 UNK         0.0600 
    202 H202        0.6596  -27.4471  -47.4969 H         1 UNK         0.0600 
    203 H203        0.1299  -26.7129  -49.0094 H         1 UNK         0.0600 
    204 H204        0.5796  -28.4114  -48.9642 H         1 UNK         0.0600 
    205 H205       -2.6602  -26.3400  -49.5318 H         1 UNK         0.3000 
    206 H206       -3.3469  -28.0920  -51.7612 H         1 UNK         0.0600 
    207 H207       -4.2317  -26.0318  -52.7462 H         1 UNK         0.0600 
    208 H208       -4.1269  -25.1839  -51.2058 H         1 UNK         0.0600 
    209 H209       -2.6622  -25.6882  -52.0486 H         1 UNK         0.0600 
    210 H210       -4.5969  -28.1854  -48.7994 H         1 UNK         0.3000 
    211 H211       -6.4226  -28.9414  -47.8481 H         1 UNK         0.0600 
    212 H212       -7.4320  -29.7317  -50.6291 H         1 UNK         0.0600 
    213 H213       -7.9881  -30.3708  -49.0899 H         1 UNK         0.0600 
    214 H214       -6.3480  -30.6951  -49.6260 H         1 UNK         0.0600 
    215 H215       -6.2983  -26.2459  -48.2044 H         1 UNK         0.3000 
    216 H216       -7.4030  -24.4746  -47.5882 H         1 UNK         0.0600 
    217 H217       -9.7178  -24.4581  -46.8316 H         1 UNK         0.0600 
    218 H218       -8.9537  -25.9262  -46.2480 H         1 UNK         0.0600 
    219 H219      -10.0598  -25.9872  -47.6215 H         1 UNK         0.0600 
    220 H220       -7.1337  -25.4709  -50.4626 H         1 UNK         0.3000 
    221 H221       -8.9117  -23.6359  -51.9299 H         1 UNK         0.0600 
    222 H222       -6.4342  -25.2029  -52.8386 H         1 UNK         0.0600 
    223 H223       -8.0899  -25.7884  -52.9640 H         1 UNK         0.0600 
    224 H224       -7.5846  -24.3806  -53.8836 H         1 UNK         0.0600 
    225 H225       -7.8285  -21.9352  -53.3178 H         1 UNK         0.3000 
    226 H226       -6.3107  -20.1170  -51.7070 H         1 UNK         0.0600 
    227 H227       -8.0082  -19.3824  -53.3647 H         1 UNK         0.0600 
    228 H228       -6.4464  -18.6764  -53.7418 H         1 UNK         0.0600 
    229 H229       -7.0402  -20.0380  -54.6856 H         1 UNK         0.0600 
    230 H230       -5.2873  -22.6547  -53.7726 H         1 UNK         0.3000 
    231 H231       -3.3622  -23.4646  -54.5045 H         1 UNK         0.0600 
    232 H232       -1.9762  -21.6155  -52.4871 H         1 UNK         0.0600 
    233 H233       -2.7251  -23.1553  -52.0734 H         1 UNK         0.0600 
    234 H234       -1.3424  -23.1124  -53.1554 H         1 UNK         0.0600 
    235 H235       -4.3478  -20.7397  -55.5628 H         1 UNK         0.3000 
    236 H236       -3.9377  -19.1893  -57.0739 H         1 UNK         0.0600 
    237 H237       -1.3901  -20.6698  -57.9072 H         1 UNK         0.0600 
    238 H238       -3.0058  -21.0322  -58.5157 H         1 UNK         0.0600 
    239 H239       -2.2710  -19.4702  -58.8413 H         1 UNK         0.0600 
    240 H240       -2.8197  -19.0850  -54.2784 H         1 UNK         0.3000 
    241 H241       -0.6492  -17.0702  -54.5958 H         1 UNK         0.0600 
    242 H242       -4.0830  -15.4188  -53.4297 H         1 UNK         0.3800 
    243 H243       -4.0028  -16.9174  -54.3242 H         1 UNK         0.3800 
    244 H244       -1.4458  -18.7016  -52.1398 H         1 UNK         0.0800 
    245 H245       -0.1420  -17.5435  -52.1992 H         1 UNK         0.0800 
    246 H246        1.9865  -17.7822  -53.7751 H         1 UNK         0.0800 
    247 H247        2.7569  -19.3488  -53.8587 H         1 UNK         0.0800 
@<TRIPOS>BOND
     1    1    2 1    
     2    1  127 1    
     3    1  128 1    
     4    1  129 1    
     5    2    3 2    
     6    2    4 am   BACKBONE|DICT|INTERRES
     7    4    5 1    
     8    4  130 1    
     9    5    6 1    
    10    5   65 1    
    11    5  131 1    
    12    6    7 1    
    13    6  132 1    
    14    6  133 1    
    15    7    8 1    
    16    8    9 1    
    17    8  134 1    
    18    8  135 1    
    19    9   10 ar   
    20    9   14 ar   
    21   10   11 ar   
    22   10  136 1    
    23   11   12 ar   
    24   11  126 1    
    25   12   13 ar   
    26   12  137 1    
    27   13   14 ar   
    28   13   15 1    
    29   14  138 1    
    30   15   16 1    
    31   15  139 1    
    32   15  140 1    
    33   16   17 1    
    34   17   18 1    
    35   17  141 1    
    36   17  142 1    
    37   18   19 1    
    38   18   67 1    
    39   18  143 1    
    40   19   20 am   BACKBONE|DICT|INTERRES
    41   19  144 1    
    42   20   21 2    
    43   20   22 1    
    44   22   23 1    
    45   22   24 1    
    46   22  145 1    
    47   23  146 1    
    48   23  147 1    
    49   23  148 1    
    50   24   25 am   BACKBONE|DICT|INTERRES
    51   24  149 1    
    52   25   26 2    
    53   25   27 1    
    54   27   28 1    
    55   27   29 1    
    56   27  150 1    
    57   28  151 1    
    58   28  152 1    
    59   28  153 1    
    60   29   30 am   BACKBONE|DICT|INTERRES
    61   29  154 1    
    62   30   31 2    
    63   30   32 1    
    64   32   33 1    
    65   32   34 1    
    66   32  155 1    
    67   33  156 1    
    68   33  157 1    
    69   33  158 1    
    70   34   35 am   BACKBONE|DICT|INTERRES
    71   34  159 1    
    72   35   36 2    
    73   35   37 1    
    74   37   38 1    
    75   37   39 1    
    76   37  160 1    
    77   38  161 1    
    78   38  162 1    
    79   38  163 1    
    80   39   40 am   BACKBONE|DICT|INTERRES
    81   39  164 1    
    82   40   41 2    
    83   40   42 1    
    84   42   43 1    
    85   42   44 1    
    86   42  165 1    
    87   43  166 1    
    88   43  167 1    
    89   43  168 1    
    90   44   45 am   BACKBONE|DICT|INTERRES
    91   44  169 1    
    92   45   46 2    
    93   45   47 1    
    94   47   48 1    
    95   47   49 1    
    96   47  170 1    
    97   48  171 1    
    98   48  172 1    
    99   48  173 1    
   100   49   50 am   BACKBONE|DICT|INTERRES
   101   49  174 1    
   102   50   51 2    
   103   50   52 1    
   104   52   53 1    
   105   52   54 1    
   106   52  175 1    
   107   53  176 1    
   108   53  177 1    
   109   53  178 1    
   110   54   55 am   BACKBONE|DICT|INTERRES
   111   54  179 1    
   112   55   56 2    
   113   55   57 1    
   114   57   58 1    
   115   57   59 1    
   116   57  180 1    
   117   58  181 1    
   118   58  182 1    
   119   58  183 1    
   120   59   60 am   BACKBONE|DICT|INTERRES
   121   59  184 1    
   122   60   61 2    
   123   60   62 1    
   124   62   63 1    
   125   62   64 1    
   126   62  185 1    
   127   63  186 1    
   128   63  187 1    
   129   63  188 1    
   130   64   65 am   BACKBONE|DICT|INTERRES
   131   64  189 1    
   132   65   66 2    
   133   67   68 2    
   134   67   69 am   BACKBONE|DICT|INTERRES
   135   69   70 1    
   136   69  190 1    
   137   70   71 1    
   138   70   72 1    
   139   70  191 1    
   140   71  192 1    
   141   71  193 1    
   142   71  194 1    
   143   72   73 2    
   144   72   74 am   BACKBONE|DICT|INTERRES
   145   74   75 1    
   146   74  195 1    
   147   75   76 1    
   148   75   77 1    
   149   75  196 1    
   150   76  197 1    
   151   76  198 1    
   152   76  199 1    
   153   77   78 2    
   154   77   79 am   BACKBONE|DICT|INTERRES
   155   79   80 1    
   156   79  200 1    
   157   80   81 1    
   158   80   82 1    
   159   80  201 1    
   160   81  202 1    
   161   81  203 1    
   162   81  204 1    
   163   82   83 2    
   164   82   84 am   BACKBONE|DICT|INTERRES
   165   84   85 1    
   166   84  205 1    
   167   85   86 1    
   168   85   87 1    
   169   85  206 1    
   170   86  207 1    
   171   86  208 1    
   172   86  209 1    
   173   87   88 2    
   174   87   89 am   BACKBONE|DICT|INTERRES
   175   89   90 1    
   176   89  210 1    
   177   90   91 1    
   178   90   92 1    
   179   90  211 1    
   180   91  212 1    
   181   91  213 1    
   182   91  214 1    
   183   92   93 2    
   184   92   94 am   BACKBONE|DICT|INTERRES
   185   94   95 1    
   186   94  215 1    
   187   95   96 1    
   188   95   97 1    
   189   95  216 1    
   190   96  217 1    
   191   96  218 1    
   192   96  219 1    
   193   97   98 2    
   194   97   99 am   BACKBONE|DICT|INTERRES
   195   99  100 1    
   196   99  220 1    
   197  100  101 1    
   198  100  102 1    
   199  100  221 1    
   200  101  222 1    
   201  101  223 1    
   202  101  224 1    
   203  102  103 2    
   204  102  104 am   BACKBONE|DICT|INTERRES
   205  104  105 1    
   206  104  225 1    
   207  105  106 1    
   208  105  107 1    
   209  105  226 1    
   210  106  227 1    
   211  106  228 1    
   212  106  229 1    
   213  107  108 2    
   214  107  109 am   BACKBONE|DICT|INTERRES
   215  109  110 1    
   216  109  230 1    
   217  110  111 1    
   218  110  112 1    
   219  110  231 1    
   220  111  232 1    
   221  111  233 1    
   222  111  234 1    
   223  112  113 2    
   224  112  114 am   BACKBONE|DICT|INTERRES
   225  114  115 1    
   226  114  235 1    
   227  115  116 1    
   228  115  117 1    
   229  115  236 1    
   230  116  237 1    
   231  116  238 1    
   232  116  239 1    
   233  117  118 2    
   234  117  119 am   BACKBONE|DICT|INTERRES
   235  119  120 1    
   236  119  240 1    
   237  120  121 1    
   238  120  124 1    
   239  120  241 1    
   240  121  122 am   BACKBONE|DICT|INTERRES
   241  121  123 2    
   242  122  242 1    
   243  122  243 1    
   244  124  125 1    
   245  124  244 1    
   246  124  245 1    
   247  125  126 1    
   248  126  246 1    
   249  126  247 1    
@<TRIPOS>SUBSTRUCTURE
     1 UNK         1 GROUP             0       ****    0 ROOT    
