@<TRIPOS>MOLECULE
3R540
247   249    1
SMALL
USER_CHARGES


@<TRIPOS>ATOM
      1 CA          5.1654  -10.4376  -51.1927 C.3       0 UNK        -0.1800 
      2 C           4.7526  -10.9830  -49.8325 C.2       0 UNK         0.5000 
      3 O           5.3342  -10.6005  -48.8164 O.2       0 UNK        -0.5000 
      4 N           3.7599  -11.8797  -49.8109 N.am      1 UNK        -0.5000 
      5 CA          3.1733  -12.4561  -48.5980 C.3       1 UNK         0.1400 
      6 C6          2.4290  -13.7835  -48.9090 C.3       23 UNK        -0.0398 
      7 S7          0.9833  -13.5977  -50.0121 S.3       23 UNK        -0.2404 
      8 C8          0.2338  -15.2532  -49.9142 C.3       23 UNK        -0.0205 
      9 C9          0.9208  -16.2487  -50.8373 C.ar      23 UNK        -0.0193 
     10 C10         0.7995  -16.1083  -52.2224 C.ar      23 UNK        -0.1150 
     11 C11         1.3994  -17.0268  -53.0864 C.ar      23 UNK        -0.0193 
     12 C12         2.1048  -18.1072  -52.5508 C.ar      23 UNK        -0.1150 
     13 C13         2.2134  -18.2835  -51.1681 C.ar      23 UNK        -0.0193 
     14 C14         1.6402  -17.3282  -50.3158 C.ar      23 UNK        -0.1150 
     15 C15         2.9550  -19.5223  -50.6576 C.3       23 UNK        -0.0205 
     16 S16         2.5959  -20.0247  -48.9380 S.3       23 UNK        -0.2404 
     17 C17         0.7881  -20.2658  -48.9726 C.3       23 UNK        -0.0398 
     18 CA          0.3182  -21.5979  -48.3405 C.3       11 UNK         0.1400 
     19 N           0.6540  -21.7110  -46.9133 N.am      11 UNK        -0.5000 
     20 C           0.4153  -22.7906  -46.1516 C.2       10 UNK         0.5000 
     21 O          -0.0589  -23.8408  -46.5852 O.2       10 UNK        -0.5000 
     22 CA          0.6975  -22.6669  -44.6421 C.3       10 UNK         0.1400 
     23 CB          2.1866  -22.8809  -44.3326 C.3       10 UNK        -0.1800 
     24 N           0.2437  -21.3913  -44.0849 N.am      10 UNK        -0.5000 
     25 C          -1.0420  -21.0181  -44.0031 C.2       9 UNK         0.5000 
     26 O          -1.9809  -21.7361  -44.3430 O.2       9 UNK        -0.5000 
     27 CA         -1.3331  -19.5863  -43.5140 C.3       9 UNK         0.1400 
     28 CB         -1.3005  -19.5060  -41.9812 C.3       9 UNK        -0.1800 
     29 N          -0.4122  -18.6035  -44.0832 N.am      9 UNK        -0.5000 
     30 C          -0.3089  -18.3391  -45.3935 C.2       8 UNK         0.5000 
     31 O          -1.0333  -18.8390  -46.2542 O.2       8 UNK        -0.5000 
     32 CA          0.8351  -17.4052  -45.8207 C.3       8 UNK         0.1400 
     33 CB          0.4069  -15.9379  -45.7090 C.3       8 UNK        -0.1800 
     34 N           2.0585  -17.6258  -45.0467 N.am      8 UNK        -0.5000 
     35 C           2.7736  -18.7598  -45.0816 C.2       7 UNK         0.5000 
     36 O           2.4681  -19.7357  -45.7616 O.2       7 UNK        -0.5000 
     37 CA          3.9962  -18.8415  -44.1524 C.3       7 UNK         0.1400 
     38 CB          5.1529  -17.9855  -44.6906 C.3       7 UNK        -0.1800 
     39 N           3.6735  -18.4280  -42.7885 N.am      7 UNK        -0.5000 
     40 C           2.8025  -19.0574  -41.9858 C.2       6 UNK         0.5000 
     41 O           2.2354  -20.1084  -42.2818 O.2       6 UNK        -0.5000 
     42 CA          2.4752  -18.3669  -40.6479 C.3       6 UNK         0.1400 
     43 CB          3.4111  -18.8685  -39.5384 C.3       6 UNK        -0.1800 
     44 N           2.5545  -16.9051  -40.7269 N.am      6 UNK        -0.5000 
     45 C           1.7627  -16.1425  -41.4924 C.2       5 UNK         0.5000 
     46 O           0.8598  -16.5907  -42.2038 O.2       5 UNK        -0.5000 
     47 CA          2.1016  -14.6432  -41.5274 C.3       5 UNK         0.1400 
     48 CB          3.0527  -14.3466  -42.6981 C.3       5 UNK        -0.1800 
     49 N           0.9038  -13.8154  -41.6549 N.am      5 UNK        -0.5000 
     50 C           0.0332  -13.5966  -40.6579 C.2       4 UNK         0.5000 
     51 O           0.1684  -14.0695  -39.5280 O.2       4 UNK        -0.5000 
     52 CA         -1.1727  -12.6745  -40.9358 C.3       4 UNK         0.1400 
     53 CB         -0.9623  -11.3041  -40.2721 C.3       4 UNK        -0.1800 
     54 N          -1.4357  -12.4648  -42.3583 N.am      4 UNK        -0.5000 
     55 C          -2.0167  -13.3570  -43.1699 C.2       3 UNK         0.5000 
     56 O          -2.4615  -14.4394  -42.7876 O.2       3 UNK        -0.5000 
     57 CA         -2.1155  -12.9814  -44.6632 C.3       3 UNK         0.1400 
     58 CB         -3.5364  -12.5050  -45.0021 C.3       3 UNK        -0.1800 
     59 N          -1.1547  -11.9673  -45.1201 N.am      3 UNK        -0.5000 
     60 C           0.1771  -12.0991  -45.0863 C.2       2 UNK         0.5000 
     61 O           0.7586  -13.0372  -44.5407 O.2       2 UNK        -0.5000 
     62 CA          1.0108  -11.0108  -45.7674 C.3       2 UNK         0.1400 
     63 CB          1.7130  -10.1248  -44.7264 C.3       2 UNK        -0.1800 
     64 N           2.0072  -11.6994  -46.5802 N.am      2 UNK        -0.5000 
     65 C           2.2690  -11.4362  -47.8638 C.2       1 UNK         0.5000 
     66 O           1.8004  -10.4676  -48.4697 O.2       1 UNK        -0.5000 
     67 C          -1.1945  -21.7782  -48.5859 C.2       11 UNK         0.5000 
     68 O          -1.5793  -22.4962  -49.5082 O.2       11 UNK        -0.5000 
     69 N          -2.0218  -21.1450  -47.7415 N.am      12 UNK        -0.5000 
     70 CA         -3.4752  -21.2848  -47.7586 C.3       12 UNK         0.1400 
     71 CB         -4.1167  -20.2418  -46.8321 C.3       12 UNK        -0.1800 
     72 C          -3.9279  -22.7088  -47.3981 C.2       12 UNK         0.5000 
     73 O          -4.7202  -23.2928  -48.1363 O.2       12 UNK        -0.5000 
     74 N          -3.3946  -23.2611  -46.2987 N.am      13 UNK        -0.5000 
     75 CA         -3.6933  -24.6093  -45.8065 C.3       13 UNK         0.1400 
     76 CB         -2.9647  -24.8509  -44.4769 C.3       13 UNK        -0.1800 
     77 C          -3.3583  -25.7216  -46.8162 C.2       13 UNK         0.5000 
     78 O          -4.1342  -26.6685  -46.9492 O.2       13 UNK        -0.5000 
     79 N          -2.2534  -25.5562  -47.5574 N.am      14 UNK        -0.5000 
     80 CA         -1.8273  -26.4402  -48.6469 C.3       14 UNK         0.1400 
     81 CB         -0.4410  -25.9970  -49.1394 C.3       14 UNK        -0.1800 
     82 C          -2.8205  -26.5121  -49.8269 C.2       14 UNK         0.5000 
     83 O          -2.8117  -27.5018  -50.5597 O.2       14 UNK        -0.5000 
     84 N          -3.6640  -25.4836  -49.9764 N.am      15 UNK        -0.5000 
     85 CA         -4.7274  -25.3871  -50.9746 C.3       15 UNK         0.1400 
     86 CB         -4.5389  -24.0704  -51.7412 C.3       15 UNK        -0.1800 
     87 C          -6.1278  -25.4655  -50.3339 C.2       15 UNK         0.5000 
     88 O          -7.1077  -25.1098  -50.9895 O.2       15 UNK        -0.5000 
     89 N          -6.2098  -25.8900  -49.0617 N.am      16 UNK        -0.5000 
     90 CA         -7.4246  -26.0096  -48.2425 C.3       16 UNK         0.1400 
     91 CB         -8.2934  -27.1799  -48.7476 C.3       16 UNK        -0.1800 
     92 C          -8.2218  -24.6901  -48.1111 C.2       16 UNK         0.5000 
     93 O          -9.4481  -24.7176  -47.9962 O.2       16 UNK        -0.5000 
     94 N          -7.5028  -23.5591  -48.1573 N.am      17 UNK        -0.5000 
     95 CA         -7.9786  -22.1729  -48.1512 C.3       17 UNK         0.1400 
     96 CB         -8.7002  -21.8409  -46.8291 C.3       17 UNK        -0.1800 
     97 C          -8.7989  -21.7661  -49.3963 C.2       17 UNK         0.5000 
     98 O          -9.4061  -20.6939  -49.3888 O.2       17 UNK        -0.5000 
     99 N          -8.7880  -22.5882  -50.4569 N.am      18 UNK        -0.5000 
    100 CA        -9.4406  -22.2904  -51.7364 C.3       18 UNK         0.1400 
    101 CB        -9.7505  -23.6092  -52.4613 C.3       18 UNK        -0.1800 
    102 C         -8.5889  -21.3693  -52.6333 C.2       18 UNK         0.5000 
    103 O         -9.1208  -20.7652  -53.5656 O.2       18 UNK        -0.5000 
    104 N         -7.2895  -21.2793  -52.3351 N.am      19 UNK        -0.5000 
    105 CA        -6.2811  -20.4606  -52.9960 C.3       19 UNK         0.1400 
    106 CB        -5.8728  -21.1074  -54.3370 C.3       19 UNK        -0.1800 
    107 C         -5.0930  -20.3143  -52.0279 C.2       19 UNK         0.5000 
    108 O         -5.2103  -20.6972  -50.8615 O.2       19 UNK        -0.5000 
    109 N         -3.9660  -19.7964  -52.5298 N.am      20 UNK        -0.5000 
    110 CA        -2.6852  -19.7126  -51.8191 C.3       20 UNK         0.1400 
    111 CB        -2.2080  -18.2497  -51.8079 C.3       20 UNK        -0.1800 
    112 C         -1.6410  -20.6590  -52.4477 C.2       20 UNK         0.5000 
    113 O         -0.4455  -20.3789  -52.3884 O.2       20 UNK        -0.5000 
    114 N         -2.1104  -21.7449  -53.0810 N.am      21 UNK        -0.5000 
    115 CA        -1.3620  -22.8336  -53.7317 C.3       21 UNK         0.1400 
    116 CB        -0.4441  -23.5565  -52.7260 C.3       21 UNK        -0.1800 
    117 C         -0.5960  -22.4464  -55.0152 C.2       21 UNK         0.5000 
    118 O         -0.3708  -23.3155  -55.8584 O.2       21 UNK        -0.5000 
    119 N         -0.2361  -21.1682  -55.1677 N.am      22 UNK        -0.5000 
    120 CA         0.4229  -20.5945  -56.3509 C.3       22 UNK         0.1400 
    121 C         -0.4758  -20.4467  -57.6164 C.2       22 UNK         0.5000 
    122 N         -1.7853  -20.6500  -57.5351 N.am      22 UNK        -0.7600 
    123 O          0.0293  -20.1560  -58.6976 O.2       22 UNK        -0.5000 
    124 C124        1.1580  -19.2757  -56.0019 C.3       23 UNK        -0.0398 
    125 S125        0.0700  -17.9622  -55.3402 S.3       23 UNK        -0.2404 
    126 C126        1.2931  -16.8391  -54.5931 C.3       23 UNK        -0.0205 
    127 H127        5.0324   -9.3561  -51.2190 H         1 UNK         0.0600 
    128 H128        4.5752  -10.8724  -51.9998 H         1 UNK         0.0600 
    129 H129        6.2158  -10.6581  -51.3829 H         1 UNK         0.0600 
    130 H130        3.2926  -12.1264  -50.6718 H         1 UNK         0.3000 
    131 H131        3.9956  -12.6986  -47.9211 H         1 UNK         0.0600 
    132 H132        2.1020  -14.2540  -47.9815 H         1 UNK         0.0800 
    133 H133        3.1193  -14.4922  -49.3691 H         1 UNK         0.0800 
    134 H134        0.2383  -15.6037  -48.8812 H         1 UNK         0.0800 
    135 H135       -0.8156  -15.1778  -50.2028 H         1 UNK         0.0800 
    136 H136        0.2403  -15.2757  -52.6258 H         1 UNK         0.1150 
    137 H137        2.5619  -18.8270  -53.2130 H         1 UNK         0.1150 
    138 H138        1.7306  -17.4304  -49.2450 H         1 UNK         0.1150 
    139 H139        2.7277  -20.3703  -51.3060 H         1 UNK         0.0800 
    140 H140        4.0270  -19.3432  -50.7468 H         1 UNK         0.0800 
    141 H141        0.4598  -20.2132  -50.0102 H         1 UNK         0.0800 
    142 H142        0.3238  -19.4168  -48.4708 H         1 UNK         0.0800 
    143 H143        0.8267  -22.4148  -48.8570 H         1 UNK         0.0600 
    144 H144        1.1165  -20.9100  -46.4908 H         1 UNK         0.3000 
    145 H145        0.1410  -23.4597  -44.1386 H         1 UNK         0.0600 
    146 H146        2.5226  -23.8528  -44.6959 H         1 UNK         0.0600 
    147 H147        2.8144  -22.1233  -44.8000 H         1 UNK         0.0600 
    148 H148        2.3732  -22.8523  -43.2589 H         1 UNK         0.0600 
    149 H149        0.9626  -20.7599  -43.7478 H         1 UNK         0.3000 
    150 H150       -2.3398  -19.3214  -43.8436 H         1 UNK         0.0600 
    151 H151       -1.5165  -18.4954  -41.6334 H         1 UNK         0.0600 
    152 H152       -0.3305  -19.7981  -41.5812 H         1 UNK         0.0600 
    153 H153       -2.0470  -20.1693  -41.5427 H         1 UNK         0.0600 
    154 H154        0.1887  -18.1023  -43.4372 H         1 UNK         0.3000 
    155 H155        1.0622  -17.6137  -46.8678 H         1 UNK         0.0600 
    156 H156       -0.4607  -15.7343  -46.3374 H         1 UNK         0.0600 
    157 H157        1.2052  -15.2695  -46.0279 H         1 UNK         0.0600 
    158 H158        0.1387  -15.6742  -44.6851 H         1 UNK         0.0600 
    159 H159        2.3327  -16.8925  -44.4113 H         1 UNK         0.3000 
    160 H160        4.3252  -19.8825  -44.1222 H         1 UNK         0.0600 
    161 H161        5.4122  -18.2784  -45.7090 H         1 UNK         0.0600 
    162 H162        6.0486  -18.1065  -44.0810 H         1 UNK         0.0600 
    163 H163        4.9000  -16.9247  -44.7084 H         1 UNK         0.0600 
    164 H164        4.1003  -17.5766  -42.4562 H         1 UNK         0.3000 
    165 H165        1.4514  -18.6333  -40.3783 H         1 UNK         0.0600 
    166 H166        3.1400  -18.4440  -38.5716 H         1 UNK         0.0600 
    167 H167        3.3550  -19.9537  -39.4424 H         1 UNK         0.0600 
    168 H168        4.4514  -18.6101  -39.7402 H         1 UNK         0.0600 
    169 H169        3.2773  -16.4647  -40.1757 H         1 UNK         0.3000 
    170 H170        2.6072  -14.3707  -40.5984 H         1 UNK         0.0600 
    171 H171        3.2730  -13.2812  -42.7691 H         1 UNK         0.0600 
    172 H172        4.0028  -14.8670  -42.5725 H         1 UNK         0.0600 
    173 H173        2.6306  -14.6643  -43.6520 H         1 UNK         0.0600 
    174 H174        0.7076  -13.4507  -42.5813 H         1 UNK         0.3000 
    175 H175       -2.0510  -13.1402  -40.4838 H         1 UNK         0.0600 
    176 H176       -0.0976  -10.7847  -40.6873 H         1 UNK         0.0600 
    177 H177       -1.8348  -10.6636  -40.4032 H         1 UNK         0.0600 
    178 H178       -0.7976  -11.4095  -39.1989 H         1 UNK         0.0600 
    179 H179       -1.1007  -11.6023  -42.7609 H         1 UNK         0.3000 
    180 H180       -1.9201  -13.8931  -45.2312 H         1 UNK         0.0600 
    181 H181       -3.6536  -12.3409  -46.0735 H         1 UNK         0.0600 
    182 H182       -3.7802  -11.5736  -44.4895 H         1 UNK         0.0600 
    183 H183       -4.2799  -13.2466  -44.7066 H         1 UNK         0.0600 
    184 H184       -1.5512  -11.1546  -45.5699 H         1 UNK         0.3000 
    185 H185        0.3562  -10.3934  -46.3863 H         1 UNK         0.0600 
    186 H186        2.3601  -10.7081  -44.0696 H         1 UNK         0.0600 
    187 H187        2.3263   -9.3641  -45.2096 H         1 UNK         0.0600 
    188 H188        0.9859   -9.6080  -44.0990 H         1 UNK         0.0600 
    189 H189        2.3839  -12.5328  -46.1479 H         1 UNK         0.3000 
    190 H190       -1.6302  -20.5258  -47.0373 H         1 UNK         0.3000 
    191 H191       -3.8132  -21.0819  -48.7742 H         1 UNK         0.0600 
    192 H192       -3.7974  -20.3656  -45.7975 H         1 UNK         0.0600 
    193 H193       -5.2044  -20.3185  -46.8524 H         1 UNK         0.0600 
    194 H194       -3.8559  -19.2296  -47.1420 H         1 UNK         0.0600 
    195 H195       -2.7684  -22.7019  -45.7233 H         1 UNK         0.3000 
    196 H196       -4.7677  -24.6538  -45.6169 H         1 UNK         0.0600 
    197 H197       -3.1888  -25.8425  -44.0818 H         1 UNK         0.0600 
    198 H198       -3.2689  -24.1250  -43.7227 H         1 UNK         0.0600 
    199 H199       -1.8833  -24.7801  -44.5942 H         1 UNK         0.0600 
    200 H200       -1.6443  -24.7695  -47.3504 H         1 UNK         0.3000 
    201 H201       -1.7378  -27.4483  -48.2375 H         1 UNK         0.0600 
    202 H202        0.2947  -26.0389  -48.3361 H         1 UNK         0.0600 
    203 H203       -0.4589  -24.9766  -49.5231 H         1 UNK         0.0600 
    204 H204       -0.0831  -26.6435  -49.9416 H         1 UNK         0.0600 
    205 H205       -3.6144  -24.7143  -49.3179 H         1 UNK         0.3000 
    206 H206       -4.6631  -26.2094  -51.6894 H         1 UNK         0.0600 
    207 H207       -5.3057  -23.9336  -52.5043 H         1 UNK         0.0600 
    208 H208       -4.5768  -23.2160  -51.0664 H         1 UNK         0.0600 
    209 H209       -3.5735  -24.0571  -52.2422 H         1 UNK         0.0600 
    210 H210       -5.3488  -26.1410  -48.5893 H         1 UNK         0.3000 
    211 H211       -7.0871  -26.2581  -47.2355 H         1 UNK         0.0600 
    212 H212       -8.7130  -26.9750  -49.7331 H         1 UNK         0.0600 
    213 H213       -9.1263  -27.3722  -48.0703 H         1 UNK         0.0600 
    214 H214       -7.7136  -28.1004  -48.8145 H         1 UNK         0.0600 
    215 H215       -6.4917  -23.6492  -48.2496 H         1 UNK         0.3000 
    216 H216       -7.0770  -21.5599  -48.1896 H         1 UNK         0.0600 
    217 H217       -8.9040  -20.7724  -46.7513 H         1 UNK         0.0600 
    218 H218       -8.0905  -22.1156  -45.9683 H         1 UNK         0.0600 
    219 H219       -9.6548  -22.3607  -46.7458 H         1 UNK         0.0600 
    220 H220       -8.2651  -23.4566  -50.4085 H         1 UNK         0.3000 
    221 H221      -10.3879  -21.7828  -51.5430 H         1 UNK         0.0600 
    222 H222       -8.8398  -24.1337  -52.7516 H         1 UNK         0.0600 
    223 H223      -10.3381  -24.2784  -51.8325 H         1 UNK         0.0600 
    224 H224      -10.3251  -23.4274  -53.3703 H         1 UNK         0.0600 
    225 H225       -6.9488  -21.7485  -51.5052 H         1 UNK         0.3000 
    226 H226       -6.6918  -19.4653  -53.1761 H         1 UNK         0.0600 
    227 H227       -6.7362  -21.2527  -54.9863 H         1 UNK         0.0600 
    228 H228       -5.1701  -20.4816  -54.8876 H         1 UNK         0.0600 
    229 H229       -5.4053  -22.0812  -54.1885 H         1 UNK         0.0600 
    230 H230       -3.9542  -19.4965  -53.4946 H         1 UNK         0.3000 
    231 H231       -2.7997  -20.0310  -50.7815 H         1 UNK         0.0600 
    232 H232       -1.9933  -17.8870  -52.8138 H         1 UNK         0.0600 
    233 H233       -2.9565  -17.5930  -51.3647 H         1 UNK         0.0600 
    234 H234       -1.2964  -18.1424  -51.2191 H         1 UNK         0.0600 
    235 H235       -3.1127  -21.8562  -53.0932 H         1 UNK         0.3000 
    236 H236       -2.1173  -23.5526  -54.0515 H         1 UNK         0.0600 
    237 H237        0.3532  -22.9089  -52.3607 H         1 UNK         0.0600 
    238 H238       -1.0084  -23.9109  -51.8632 H         1 UNK         0.0600 
    239 H239        0.0279  -24.4266  -53.1836 H         1 UNK         0.0600 
    240 H240       -0.3965  -20.5357  -54.3915 H         1 UNK         0.3000 
    241 H241        1.1969  -21.3059  -56.6454 H         1 UNK         0.0600 
    242 H242       -2.3548  -20.5576  -58.3616 H         1 UNK         0.3800 
    243 H243       -2.2104  -20.8895  -56.6550 H         1 UNK         0.3800 
    244 H244        1.9336  -19.4926  -55.2685 H         1 UNK         0.0800 
    245 H245        1.6839  -18.8854  -56.8750 H         1 UNK         0.0800 
    246 H246        1.0008  -15.8131  -54.8218 H         1 UNK         0.0800 
    247 H247        2.2716  -16.9795  -55.0546 H         1 UNK         0.0800 
@<TRIPOS>BOND
     1    1    2 1    
     2    1  127 1    
     3    1  128 1    
     4    1  129 1    
     5    2    3 2    
     6    2    4 am   BACKBONE|DICT|INTERRES
     7    4    5 1    
     8    4  130 1    
     9    5    6 1    
    10    5   65 1    
    11    5  131 1    
    12    6    7 1    
    13    6  132 1    
    14    6  133 1    
    15    7    8 1    
    16    8    9 1    
    17    8  134 1    
    18    8  135 1    
    19    9   10 ar   
    20    9   14 ar   
    21   10   11 ar   
    22   10  136 1    
    23   11   12 ar   
    24   11  126 1    
    25   12   13 ar   
    26   12  137 1    
    27   13   14 ar   
    28   13   15 1    
    29   14  138 1    
    30   15   16 1    
    31   15  139 1    
    32   15  140 1    
    33   16   17 1    
    34   17   18 1    
    35   17  141 1    
    36   17  142 1    
    37   18   19 1    
    38   18   67 1    
    39   18  143 1    
    40   19   20 am   BACKBONE|DICT|INTERRES
    41   19  144 1    
    42   20   21 2    
    43   20   22 1    
    44   22   23 1    
    45   22   24 1    
    46   22  145 1    
    47   23  146 1    
    48   23  147 1    
    49   23  148 1    
    50   24   25 am   BACKBONE|DICT|INTERRES
    51   24  149 1    
    52   25   26 2    
    53   25   27 1    
    54   27   28 1    
    55   27   29 1    
    56   27  150 1    
    57   28  151 1    
    58   28  152 1    
    59   28  153 1    
    60   29   30 am   BACKBONE|DICT|INTERRES
    61   29  154 1    
    62   30   31 2    
    63   30   32 1    
    64   32   33 1    
    65   32   34 1    
    66   32  155 1    
    67   33  156 1    
    68   33  157 1    
    69   33  158 1    
    70   34   35 am   BACKBONE|DICT|INTERRES
    71   34  159 1    
    72   35   36 2    
    73   35   37 1    
    74   37   38 1    
    75   37   39 1    
    76   37  160 1    
    77   38  161 1    
    78   38  162 1    
    79   38  163 1    
    80   39   40 am   BACKBONE|DICT|INTERRES
    81   39  164 1    
    82   40   41 2    
    83   40   42 1    
    84   42   43 1    
    85   42   44 1    
    86   42  165 1    
    87   43  166 1    
    88   43  167 1    
    89   43  168 1    
    90   44   45 am   BACKBONE|DICT|INTERRES
    91   44  169 1    
    92   45   46 2    
    93   45   47 1    
    94   47   48 1    
    95   47   49 1    
    96   47  170 1    
    97   48  171 1    
    98   48  172 1    
    99   48  173 1    
   100   49   50 am   BACKBONE|DICT|INTERRES
   101   49  174 1    
   102   50   51 2    
   103   50   52 1    
   104   52   53 1    
   105   52   54 1    
   106   52  175 1    
   107   53  176 1    
   108   53  177 1    
   109   53  178 1    
   110   54   55 am   BACKBONE|DICT|INTERRES
   111   54  179 1    
   112   55   56 2    
   113   55   57 1    
   114   57   58 1    
   115   57   59 1    
   116   57  180 1    
   117   58  181 1    
   118   58  182 1    
   119   58  183 1    
   120   59   60 am   BACKBONE|DICT|INTERRES
   121   59  184 1    
   122   60   61 2    
   123   60   62 1    
   124   62   63 1    
   125   62   64 1    
   126   62  185 1    
   127   63  186 1    
   128   63  187 1    
   129   63  188 1    
   130   64   65 am   BACKBONE|DICT|INTERRES
   131   64  189 1    
   132   65   66 2    
   133   67   68 2    
   134   67   69 am   BACKBONE|DICT|INTERRES
   135   69   70 1    
   136   69  190 1    
   137   70   71 1    
   138   70   72 1    
   139   70  191 1    
   140   71  192 1    
   141   71  193 1    
   142   71  194 1    
   143   72   73 2    
   144   72   74 am   BACKBONE|DICT|INTERRES
   145   74   75 1    
   146   74  195 1    
   147   75   76 1    
   148   75   77 1    
   149   75  196 1    
   150   76  197 1    
   151   76  198 1    
   152   76  199 1    
   153   77   78 2    
   154   77   79 am   BACKBONE|DICT|INTERRES
   155   79   80 1    
   156   79  200 1    
   157   80   81 1    
   158   80   82 1    
   159   80  201 1    
   160   81  202 1    
   161   81  203 1    
   162   81  204 1    
   163   82   83 2    
   164   82   84 am   BACKBONE|DICT|INTERRES
   165   84   85 1    
   166   84  205 1    
   167   85   86 1    
   168   85   87 1    
   169   85  206 1    
   170   86  207 1    
   171   86  208 1    
   172   86  209 1    
   173   87   88 2    
   174   87   89 am   BACKBONE|DICT|INTERRES
   175   89   90 1    
   176   89  210 1    
   177   90   91 1    
   178   90   92 1    
   179   90  211 1    
   180   91  212 1    
   181   91  213 1    
   182   91  214 1    
   183   92   93 2    
   184   92   94 am   BACKBONE|DICT|INTERRES
   185   94   95 1    
   186   94  215 1    
   187   95   96 1    
   188   95   97 1    
   189   95  216 1    
   190   96  217 1    
   191   96  218 1    
   192   96  219 1    
   193   97   98 2    
   194   97   99 am   BACKBONE|DICT|INTERRES
   195   99  100 1    
   196   99  220 1    
   197  100  101 1    
   198  100  102 1    
   199  100  221 1    
   200  101  222 1    
   201  101  223 1    
   202  101  224 1    
   203  102  103 2    
   204  102  104 am   BACKBONE|DICT|INTERRES
   205  104  105 1    
   206  104  225 1    
   207  105  106 1    
   208  105  107 1    
   209  105  226 1    
   210  106  227 1    
   211  106  228 1    
   212  106  229 1    
   213  107  108 2    
   214  107  109 am   BACKBONE|DICT|INTERRES
   215  109  110 1    
   216  109  230 1    
   217  110  111 1    
   218  110  112 1    
   219  110  231 1    
   220  111  232 1    
   221  111  233 1    
   222  111  234 1    
   223  112  113 2    
   224  112  114 am   BACKBONE|DICT|INTERRES
   225  114  115 1    
   226  114  235 1    
   227  115  116 1    
   228  115  117 1    
   229  115  236 1    
   230  116  237 1    
   231  116  238 1    
   232  116  239 1    
   233  117  118 2    
   234  117  119 am   BACKBONE|DICT|INTERRES
   235  119  120 1    
   236  119  240 1    
   237  120  121 1    
   238  120  124 1    
   239  120  241 1    
   240  121  122 am   BACKBONE|DICT|INTERRES
   241  121  123 2    
   242  122  242 1    
   243  122  243 1    
   244  124  125 1    
   245  124  244 1    
   246  124  245 1    
   247  125  126 1    
   248  126  246 1    
   249  126  247 1    
@<TRIPOS>SUBSTRUCTURE
     1 UNK         1 GROUP             0       ****    0 ROOT    
