@<TRIPOS>MOLECULE
3R540
247   249    1
SMALL
USER_CHARGES


@<TRIPOS>ATOM
      1 CA         -5.4100  -16.1659  -44.3014 C.3       0 UNK        -0.1800 
      2 C          -3.9030  -15.9670  -44.3658 C.2       0 UNK         0.5000 
      3 O          -3.3773  -15.0447  -43.7436 O.2       0 UNK        -0.5000 
      4 N          -3.2004  -16.8438  -45.0956 N.am      1 UNK        -0.5000 
      5 CA         -1.7500  -16.7896  -45.3434 C.3       1 UNK         0.1400 
      6 C6         -1.3139  -17.7733  -46.4577 C.3       23 UNK        -0.0398 
      7 S7         -2.2063  -17.4902  -48.0282 S.3       23 UNK        -0.2404 
      8 C8         -0.9620  -16.6146  -49.0326 C.3       23 UNK        -0.0205 
      9 C9         -0.1603  -17.5807  -49.8919 C.ar      23 UNK        -0.0193 
     10 C10        -0.4554  -17.7343  -51.2501 C.ar      23 UNK        -0.1150 
     11 C11         0.2596  -18.6449  -52.0347 C.ar      23 UNK        -0.0193 
     12 C12         1.2542  -19.4308  -51.4422 C.ar      23 UNK        -0.1150 
     13 C13         1.5641  -19.2777  -50.0884 C.ar      23 UNK        -0.0193 
     14 C14         0.8737  -18.3304  -49.3287 C.ar      23 UNK        -0.1150 
     15 C15         2.6269  -20.1446  -49.4285 C.3       23 UNK        -0.0205 
     16 S16         1.9665  -21.7486  -48.8574 S.3       23 UNK        -0.2404 
     17 C17         0.4795  -21.2473  -47.9277 C.3       23 UNK        -0.0398 
     18 CA         -0.2425  -22.4438  -47.2743 C.3       11 UNK         0.1400 
     19 N           0.4677  -22.9610  -46.1026 N.am      11 UNK        -0.5000 
     20 C           0.2032  -24.1368  -45.5158 C.2       10 UNK         0.5000 
     21 O          -0.6396  -24.9320  -45.9299 O.2       10 UNK        -0.5000 
     22 CA          0.9679  -24.4445  -44.2147 C.3       10 UNK         0.1400 
     23 CB          2.3725  -24.9827  -44.5244 C.3       10 UNK        -0.1800 
     24 N           1.0753  -23.2725  -43.3428 N.am      10 UNK        -0.5000 
     25 C           0.0308  -22.6633  -42.7628 C.2       9 UNK         0.5000 
     26 O          -1.1250  -23.0766  -42.8429 O.2       9 UNK        -0.5000 
     27 CA          0.3093  -21.3400  -42.0226 C.3       9 UNK         0.1400 
     28 CB          0.5384  -21.5858  -40.5252 C.3       9 UNK        -0.1800 
     29 N           1.4385  -20.5842  -42.5722 N.am      9 UNK        -0.5000 
     30 C           1.4810  -20.0844  -43.8135 C.2       8 UNK         0.5000 
     31 O           0.5510  -20.1824  -44.6177 O.2       8 UNK        -0.5000 
     32 CA          2.7765  -19.3603  -44.1992 C.3       8 UNK         0.1400 
     33 CB          2.9563  -19.2440  -45.7210 C.3       8 UNK        -0.1800 
     34 N           2.7527  -18.0203  -43.6316 N.am      8 UNK        -0.5000 
     35 C           3.6947  -17.4863  -42.8479 C.2       7 UNK         0.5000 
     36 O           4.6660  -18.1158  -42.4238 O.2       7 UNK        -0.5000 
     37 CA          3.5225  -15.9906  -42.5018 C.3       7 UNK         0.1400 
     38 CB          4.7978  -15.3563  -41.9099 C.3       7 UNK        -0.1800 
     39 N           3.0303  -15.1870  -43.6273 N.am      7 UNK        -0.5000 
     40 C           3.5836  -15.0501  -44.8429 C.2       6 UNK         0.5000 
     41 O           4.6308  -15.5994  -45.1872 O.2       6 UNK        -0.5000 
     42 CA          2.8703  -14.1240  -45.8428 C.3       6 UNK         0.1400 
     43 CB          1.7838  -14.8719  -46.6327 C.3       6 UNK        -0.1800 
     44 N           2.2885  -12.9506  -45.1876 N.am      6 UNK        -0.5000 
     45 C           2.4013  -11.6927  -45.6375 C.2       5 UNK         0.5000 
     46 O           2.9609  -11.3919  -46.6931 O.2       5 UNK        -0.5000 
     47 CA          1.7976  -10.5670  -44.7690 C.3       5 UNK         0.1400 
     48 CB          0.4056  -10.1778  -45.2903 C.3       5 UNK        -0.1800 
     49 N           1.6883  -10.9105  -43.3507 N.am      5 UNK        -0.5000 
     50 C           2.7176  -11.1582  -42.5299 C.2       4 UNK         0.5000 
     51 O           3.8957  -11.0009  -42.8519 O.2       4 UNK        -0.5000 
     52 CA          2.3879  -11.6955  -41.1201 C.3       4 UNK         0.1400 
     53 CB          2.6492  -10.6123  -40.0617 C.3       4 UNK        -0.1800 
     54 N           1.0290  -12.2218  -40.9246 N.am      4 UNK        -0.5000 
     55 C           0.4417  -13.2029  -41.6227 C.2       3 UNK         0.5000 
     56 O           0.9196  -13.7008  -42.6451 O.2       3 UNK        -0.5000 
     57 CA         -0.9339  -13.6694  -41.1146 C.3       3 UNK         0.1400 
     58 CB         -2.0412  -12.7714  -41.6858 C.3       3 UNK        -0.1800 
     59 N          -1.2067  -15.0568  -41.4880 N.am      3 UNK        -0.5000 
     60 C          -0.5318  -16.1228  -41.0289 C.2       2 UNK         0.5000 
     61 O           0.3357  -16.0577  -40.1571 O.2       2 UNK        -0.5000 
     62 CA         -0.8767  -17.4965  -41.6396 C.3       2 UNK         0.1400 
     63 CB         -1.8189  -18.2731  -40.7066 C.3       2 UNK        -0.1800 
     64 N          -1.4999  -17.3958  -42.9583 N.am      2 UNK        -0.5000 
     65 C          -0.8848  -16.9847  -44.0759 C.2       1 UNK         0.5000 
     66 O           0.3201  -16.7450  -44.1288 O.2       1 UNK        -0.5000 
     67 C          -1.6965  -22.0669  -46.9357 C.2       11 UNK         0.5000 
     68 O          -2.5735  -22.2689  -47.7746 O.2       11 UNK        -0.5000 
     69 N          -1.9368  -21.5539  -45.7203 N.am      12 UNK        -0.5000 
     70 CA         -3.2764  -21.2523  -45.2127 C.3       12 UNK         0.1400 
     71 CB         -3.1735  -20.4468  -43.9108 C.3       12 UNK        -0.1800 
     72 C          -4.1167  -22.5253  -45.0077 C.2       12 UNK         0.5000 
     73 O          -5.2817  -22.5491  -45.4028 O.2       12 UNK        -0.5000 
     74 N          -3.4968  -23.5705  -44.4408 N.am      13 UNK        -0.5000 
     75 CA         -4.0901  -24.8957  -44.2512 C.3       13 UNK         0.1400 
     76 CB         -3.1634  -25.7495  -43.3724 C.3       13 UNK        -0.1800 
     77 C          -4.3944  -25.6097  -45.5819 C.2       13 UNK         0.5000 
     78 O          -5.4472  -26.2358  -45.7086 O.2       13 UNK        -0.5000 
     79 N          -3.4861  -25.4752  -46.5585 N.am      14 UNK        -0.5000 
     80 CA         -3.6520  -25.9733  -47.9267 C.3       14 UNK         0.1400 
     81 CB         -2.2802  -25.9858  -48.6190 C.3       14 UNK        -0.1800 
     82 C          -4.6572  -25.1539  -48.7629 C.2       14 UNK         0.5000 
     83 O          -5.1242  -25.6484  -49.7894 O.2       14 UNK        -0.5000 
     84 N          -4.9475  -23.9210  -48.3210 N.am      15 UNK        -0.5000 
     85 CA         -5.7544  -22.8907  -48.9795 C.3       15 UNK         0.1400 
     86 CB         -7.2307  -23.3255  -49.0780 C.3       15 UNK        -0.1800 
     87 C          -5.1482  -22.4651  -50.3325 C.2       15 UNK         0.5000 
     88 O          -5.8679  -22.3363  -51.3231 O.2       15 UNK        -0.5000 
     89 N          -3.8226  -22.2626  -50.3451 N.am      16 UNK        -0.5000 
     90 CA         -2.9928  -22.0175  -51.5293 C.3       16 UNK         0.1400 
     91 CB         -1.5346  -21.8419  -51.0844 C.3       16 UNK        -0.1800 
     92 C          -3.4287  -20.8104  -52.3787 C.2       16 UNK         0.5000 
     93 O          -3.3584  -20.8755  -53.6070 O.2       16 UNK        -0.5000 
     94 N          -3.8871  -19.7434  -51.7114 N.am      17 UNK        -0.5000 
     95 CA         -4.3964  -18.5287  -52.3462 C.3       17 UNK         0.1400 
     96 CB         -4.5003  -17.4140  -51.2946 C.3       17 UNK        -0.1800 
     97 C          -5.7530  -18.7450  -53.0429 C.2       17 UNK         0.5000 
     98 O          -5.9727  -18.1950  -54.1219 O.2       17 UNK        -0.5000 
     99 N          -6.6275  -19.5539  -52.4280 N.am      18 UNK        -0.5000 
    100 CA        -7.9481  -19.9034  -52.9574 C.3       18 UNK         0.1400 
    101 CB        -8.8430  -20.4036  -51.8139 C.3       18 UNK        -0.1800 
    102 C         -7.8555  -20.9547  -54.0764 C.2       18 UNK         0.5000 
    103 O         -8.5902  -20.8671  -55.0605 O.2       18 UNK        -0.5000 
    104 N         -6.9269  -21.9077  -53.9187 N.am      19 UNK        -0.5000 
    105 CA        -6.5777  -22.9262  -54.9103 C.3       19 UNK         0.1400 
    106 CB        -5.7189  -24.0013  -54.2256 C.3       19 UNK        -0.1800 
    107 C         -5.8357  -22.3553  -56.1360 C.2       19 UNK         0.5000 
    108 O         -5.7686  -23.0301  -57.1640 O.2       19 UNK        -0.5000 
    109 N         -5.2876  -21.1386  -55.9954 N.am      20 UNK        -0.5000 
    110 CA        -4.4738  -20.4013  -56.9639 C.3       20 UNK         0.1400 
    111 CB        -5.2935  -20.0355  -58.2185 C.3       20 UNK        -0.1800 
    112 C         -3.1533  -21.1286  -57.2853 C.2       20 UNK         0.5000 
    113 O         -2.7139  -21.1485  -58.4369 O.2       20 UNK        -0.5000 
    114 N         -2.5240  -21.6946  -56.2447 N.am      21 UNK        -0.5000 
    115 CA        -1.2625  -22.4404  -56.3188 C.3       21 UNK         0.1400 
    116 CB        -0.9881  -23.0863  -54.9530 C.3       21 UNK        -0.1800 
    117 C         -0.0643  -21.5757  -56.7606 C.2       21 UNK         0.5000 
    118 O          0.9060  -22.1045  -57.3040 O.2       21 UNK        -0.5000 
    119 N         -0.1767  -20.2611  -56.5420 N.am      22 UNK        -0.5000 
    120 CA         0.7373  -19.2254  -57.0399 C.3       22 UNK         0.1400 
    121 C          0.5528  -18.8881  -58.5517 C.2       22 UNK         0.5000 
    122 N         -0.4470  -19.4136  -59.2518 N.am      22 UNK        -0.7600 
    123 O          1.3467  -18.1356  -59.1097 O.2       22 UNK        -0.5000 
    124 C124        0.6431  -17.9476  -56.1669 C.3       23 UNK        -0.0398 
    125 S125        1.3714  -18.1668  -54.5088 S.3       23 UNK        -0.2404 
    126 C126       -0.0350  -18.7730  -53.5216 C.3       23 UNK        -0.0205 
    127 H127       -5.9203  -15.2871  -44.6954 H         1 UNK         0.0600 
    128 H128       -5.7298  -17.0333  -44.8793 H         1 UNK         0.0600 
    129 H129       -5.7253  -16.3100  -43.2681 H         1 UNK         0.0600 
    130 H130       -3.6939  -17.5660  -45.6000 H         1 UNK         0.3000 
    131 H131       -1.5305  -15.7797  -45.6963 H         1 UNK         0.0600 
    132 H132       -0.2409  -17.6950  -46.6293 H         1 UNK         0.0800 
    133 H133       -1.4898  -18.8037  -46.1489 H         1 UNK         0.0800 
    134 H134       -0.2968  -16.0327  -48.3941 H         1 UNK         0.0800 
    135 H135       -1.4773  -15.8916  -49.6666 H         1 UNK         0.0800 
    136 H136       -1.2392  -17.1406  -51.6983 H         1 UNK         0.1150 
    137 H137        1.7937  -20.1532  -52.0386 H         1 UNK         0.1150 
    138 H138        1.1208  -18.2071  -48.2862 H         1 UNK         0.1150 
    139 H139        3.0730  -19.6159  -48.5860 H         1 UNK         0.0800 
    140 H140        3.4403  -20.3287  -50.1318 H         1 UNK         0.0800 
    141 H141       -0.1884  -20.7497  -48.6293 H         1 UNK         0.0800 
    142 H142        0.7455  -20.4959  -47.1858 H         1 UNK         0.0800 
    143 H143       -0.2957  -23.2473  -48.0118 H         1 UNK         0.0600 
    144 H144        1.1425  -22.3429  -45.6782 H         1 UNK         0.3000 
    145 H145        0.4149  -25.2182  -43.6777 H         1 UNK         0.0600 
    146 H146        2.3190  -25.8669  -45.1611 H         1 UNK         0.0600 
    147 H147        2.8937  -25.2722  -43.6117 H         1 UNK         0.0600 
    148 H148        2.9851  -24.2428  -45.0412 H         1 UNK         0.0600 
    149 H149        1.9948  -22.8761  -43.2183 H         1 UNK         0.3000 
    150 H150       -0.5813  -20.7206  -42.1330 H         1 UNK         0.0600 
    151 H151        1.4387  -22.1750  -40.3466 H         1 UNK         0.0600 
    152 H152       -0.3012  -22.1261  -40.0855 H         1 UNK         0.0600 
    153 H153        0.6372  -20.6454  -39.9824 H         1 UNK         0.0600 
    154 H154        2.2329  -20.4474  -41.9634 H         1 UNK         0.3000 
    155 H155        3.6120  -19.9418  -43.8044 H         1 UNK         0.0600 
    156 H156        2.1521  -18.6672  -46.1780 H         1 UNK         0.0600 
    157 H157        2.9735  -20.2297  -46.1862 H         1 UNK         0.0600 
    158 H158        3.8971  -18.7513  -45.9675 H         1 UNK         0.0600 
    159 H159        1.9439  -17.4508  -43.8820 H         1 UNK         0.3000 
    160 H160        2.7461  -15.9448  -41.7369 H         1 UNK         0.0600 
    161 H161        5.6369  -15.4148  -42.6038 H         1 UNK         0.0600 
    162 H162        5.0961  -15.8614  -40.9906 H         1 UNK         0.0600 
    163 H163        4.6393  -14.3063  -41.6657 H         1 UNK         0.0600 
    164 H164        2.1448  -14.7212  -43.4399 H         1 UNK         0.3000 
    165 H165        3.6376  -13.8081  -46.5528 H         1 UNK         0.0600 
    166 H166        2.1561  -15.8208  -47.0218 H         1 UNK         0.0600 
    167 H167        0.9142  -15.0845  -46.0134 H         1 UNK         0.0600 
    168 H168        1.4457  -14.2803  -47.4834 H         1 UNK         0.0600 
    169 H169        1.8176  -13.1078  -44.3024 H         1 UNK         0.3000 
    170 H170        2.4531   -9.6980  -44.8549 H         1 UNK         0.0600 
    171 H171       -0.0013   -9.3314  -44.7368 H         1 UNK         0.0600 
    172 H172       -0.3001  -11.0056  -45.2073 H         1 UNK         0.0600 
    173 H173        0.4487   -9.8870  -46.3408 H         1 UNK         0.0600 
    174 H174        0.7576  -11.0750  -42.9976 H         1 UNK         0.3000 
    175 H175        3.0764  -12.5217  -40.9347 H         1 UNK         0.0600 
    176 H176        3.6633  -10.2184  -40.1431 H         1 UNK         0.0600 
    177 H177        1.9615   -9.7726  -40.1699 H         1 UNK         0.0600 
    178 H178        2.5396  -11.0100  -39.0526 H         1 UNK         0.0600 
    179 H179        0.5360  -11.8507  -40.1250 H         1 UNK         0.3000 
    180 H180       -0.9491  -13.6013  -40.0249 H         1 UNK         0.0600 
    181 H181       -2.0489  -12.7889  -42.7766 H         1 UNK         0.0600 
    182 H182       -1.9077  -11.7346  -41.3750 H         1 UNK         0.0600 
    183 H183       -3.0252  -13.0895  -41.3405 H         1 UNK         0.0600 
    184 H184       -1.8819  -15.1912  -42.2319 H         1 UNK         0.3000 
    185 H185        0.0535  -18.0588  -41.7422 H         1 UNK         0.0600 
    186 H186       -1.3510  -18.4447  -39.7363 H         1 UNK         0.0600 
    187 H187       -2.7478  -17.7288  -40.5315 H         1 UNK         0.0600 
    188 H188       -2.0790  -19.2477  -41.1180 H         1 UNK         0.0600 
    189 H189       -2.4963  -17.5481  -42.9997 H         1 UNK         0.3000 
    190 H190       -1.1524  -21.3682  -45.1066 H         1 UNK         0.3000 
    191 H191       -3.7793  -20.6298  -45.9561 H         1 UNK         0.0600 
    192 H192       -2.4914  -19.6092  -44.0273 H         1 UNK         0.0600 
    193 H193       -4.1460  -20.0450  -43.6245 H         1 UNK         0.0600 
    194 H194       -2.8157  -21.0540  -43.0801 H         1 UNK         0.0600 
    195 H195       -2.5533  -23.4423  -44.0856 H         1 UNK         0.3000 
    196 H196       -5.0356  -24.7651  -43.7208 H         1 UNK         0.0600 
    197 H197       -3.5928  -26.7361  -43.1945 H         1 UNK         0.0600 
    198 H198       -3.0038  -25.2833  -42.4000 H         1 UNK         0.0600 
    199 H199       -2.1875  -25.8939  -43.8367 H         1 UNK         0.0600 
    200 H200       -2.6062  -25.0150  -46.3470 H         1 UNK         0.3000 
    201 H201       -4.0210  -26.9998  -47.8784 H         1 UNK         0.0600 
    202 H202       -2.3530  -26.3973  -49.6265 H         1 UNK         0.0600 
    203 H203       -1.5649  -26.5976  -48.0691 H         1 UNK         0.0600 
    204 H204       -1.8665  -24.9807  -48.7050 H         1 UNK         0.0600 
    205 H205       -4.4714  -23.6136  -47.4834 H         1 UNK         0.3000 
    206 H206       -5.7109  -22.0128  -48.3334 H         1 UNK         0.0600 
    207 H207       -7.6093  -23.6529  -48.1097 H         1 UNK         0.0600 
    208 H208       -7.8582  -22.4973  -49.4062 H         1 UNK         0.0600 
    209 H209       -7.3688  -24.1424  -49.7868 H         1 UNK         0.0600 
    210 H210       -3.3280  -22.3529  -49.4599 H         1 UNK         0.3000 
    211 H211       -3.0563  -22.9062  -52.1596 H         1 UNK         0.0600 
    212 H212       -0.8662  -21.7439  -51.9392 H         1 UNK         0.0600 
    213 H213       -1.1888  -22.6925  -50.4970 H         1 UNK         0.0600 
    214 H214       -1.4173  -20.9416  -50.4821 H         1 UNK         0.0600 
    215 H215       -3.8993  -19.7759  -50.7027 H         1 UNK         0.3000 
    216 H216       -3.6772  -18.2138  -53.1056 H         1 UNK         0.0600 
    217 H217       -3.5303  -17.2034  -50.8457 H         1 UNK         0.0600 
    218 H218       -5.1889  -17.6785  -50.4913 H         1 UNK         0.0600 
    219 H219       -4.8580  -16.4861  -51.7426 H         1 UNK         0.0600 
    220 H220       -6.3416  -20.0243  -51.5813 H         1 UNK         0.3000 
    221 H221       -8.4056  -19.0044  -53.3763 H         1 UNK         0.0600 
    222 H222       -8.4562  -21.3221  -51.3731 H         1 UNK         0.0600 
    223 H223       -8.9279  -19.6590  -51.0223 H         1 UNK         0.0600 
    224 H224       -9.8512  -20.6136  -52.1731 H         1 UNK         0.0600 
    225 H225       -6.4232  -21.9492  -53.0349 H         1 UNK         0.3000 
    226 H226       -7.4994  -23.3913  -55.2655 H         1 UNK         0.0600 
    227 H227       -6.2420  -24.4452  -53.3781 H         1 UNK         0.0600 
    228 H228       -5.4749  -24.8085  -54.9173 H         1 UNK         0.0600 
    229 H229       -4.7791  -23.5878  -53.8583 H         1 UNK         0.0600 
    230 H230       -5.3759  -20.7023  -55.0881 H         1 UNK         0.3000 
    231 H231       -4.1937  -19.4684  -56.4726 H         1 UNK         0.0600 
    232 H232       -5.5568  -20.9161  -58.8048 H         1 UNK         0.0600 
    233 H233       -4.7300  -19.3670  -58.8704 H         1 UNK         0.0600 
    234 H234       -6.2170  -19.5229  -57.9489 H         1 UNK         0.0600 
    235 H235       -2.9265  -21.5734  -55.3183 H         1 UNK         0.3000 
    236 H236       -1.3869  -23.2344  -57.0578 H         1 UNK         0.0600 
    237 H237       -0.0879  -23.7013  -54.9843 H         1 UNK         0.0600 
    238 H238       -0.8435  -22.3316  -54.1809 H         1 UNK         0.0600 
    239 H239       -1.8128  -23.7295  -54.6451 H         1 UNK         0.0600 
    240 H240       -1.0199  -19.9335  -56.0970 H         1 UNK         0.3000 
    241 H241        1.7551  -19.6114  -56.9554 H         1 UNK         0.0600 
    242 H242       -1.1185  -20.0503  -58.8362 H         1 UNK         0.3800 
    243 H243       -0.5334  -19.1797  -60.2281 H         1 UNK         0.3800 
    244 H244        1.1913  -17.1250  -56.6298 H         1 UNK         0.0800 
    245 H245       -0.3891  -17.6044  -56.0823 H         1 UNK         0.0800 
    246 H246       -0.9365  -18.2166  -53.7819 H         1 UNK         0.0800 
    247 H247       -0.2310  -19.8186  -53.7611 H         1 UNK         0.0800 
@<TRIPOS>BOND
     1    1    2 1    
     2    1  127 1    
     3    1  128 1    
     4    1  129 1    
     5    2    3 2    
     6    2    4 am   BACKBONE|DICT|INTERRES
     7    4    5 1    
     8    4  130 1    
     9    5    6 1    
    10    5   65 1    
    11    5  131 1    
    12    6    7 1    
    13    6  132 1    
    14    6  133 1    
    15    7    8 1    
    16    8    9 1    
    17    8  134 1    
    18    8  135 1    
    19    9   10 ar   
    20    9   14 ar   
    21   10   11 ar   
    22   10  136 1    
    23   11   12 ar   
    24   11  126 1    
    25   12   13 ar   
    26   12  137 1    
    27   13   14 ar   
    28   13   15 1    
    29   14  138 1    
    30   15   16 1    
    31   15  139 1    
    32   15  140 1    
    33   16   17 1    
    34   17   18 1    
    35   17  141 1    
    36   17  142 1    
    37   18   19 1    
    38   18   67 1    
    39   18  143 1    
    40   19   20 am   BACKBONE|DICT|INTERRES
    41   19  144 1    
    42   20   21 2    
    43   20   22 1    
    44   22   23 1    
    45   22   24 1    
    46   22  145 1    
    47   23  146 1    
    48   23  147 1    
    49   23  148 1    
    50   24   25 am   BACKBONE|DICT|INTERRES
    51   24  149 1    
    52   25   26 2    
    53   25   27 1    
    54   27   28 1    
    55   27   29 1    
    56   27  150 1    
    57   28  151 1    
    58   28  152 1    
    59   28  153 1    
    60   29   30 am   BACKBONE|DICT|INTERRES
    61   29  154 1    
    62   30   31 2    
    63   30   32 1    
    64   32   33 1    
    65   32   34 1    
    66   32  155 1    
    67   33  156 1    
    68   33  157 1    
    69   33  158 1    
    70   34   35 am   BACKBONE|DICT|INTERRES
    71   34  159 1    
    72   35   36 2    
    73   35   37 1    
    74   37   38 1    
    75   37   39 1    
    76   37  160 1    
    77   38  161 1    
    78   38  162 1    
    79   38  163 1    
    80   39   40 am   BACKBONE|DICT|INTERRES
    81   39  164 1    
    82   40   41 2    
    83   40   42 1    
    84   42   43 1    
    85   42   44 1    
    86   42  165 1    
    87   43  166 1    
    88   43  167 1    
    89   43  168 1    
    90   44   45 am   BACKBONE|DICT|INTERRES
    91   44  169 1    
    92   45   46 2    
    93   45   47 1    
    94   47   48 1    
    95   47   49 1    
    96   47  170 1    
    97   48  171 1    
    98   48  172 1    
    99   48  173 1    
   100   49   50 am   BACKBONE|DICT|INTERRES
   101   49  174 1    
   102   50   51 2    
   103   50   52 1    
   104   52   53 1    
   105   52   54 1    
   106   52  175 1    
   107   53  176 1    
   108   53  177 1    
   109   53  178 1    
   110   54   55 am   BACKBONE|DICT|INTERRES
   111   54  179 1    
   112   55   56 2    
   113   55   57 1    
   114   57   58 1    
   115   57   59 1    
   116   57  180 1    
   117   58  181 1    
   118   58  182 1    
   119   58  183 1    
   120   59   60 am   BACKBONE|DICT|INTERRES
   121   59  184 1    
   122   60   61 2    
   123   60   62 1    
   124   62   63 1    
   125   62   64 1    
   126   62  185 1    
   127   63  186 1    
   128   63  187 1    
   129   63  188 1    
   130   64   65 am   BACKBONE|DICT|INTERRES
   131   64  189 1    
   132   65   66 2    
   133   67   68 2    
   134   67   69 am   BACKBONE|DICT|INTERRES
   135   69   70 1    
   136   69  190 1    
   137   70   71 1    
   138   70   72 1    
   139   70  191 1    
   140   71  192 1    
   141   71  193 1    
   142   71  194 1    
   143   72   73 2    
   144   72   74 am   BACKBONE|DICT|INTERRES
   145   74   75 1    
   146   74  195 1    
   147   75   76 1    
   148   75   77 1    
   149   75  196 1    
   150   76  197 1    
   151   76  198 1    
   152   76  199 1    
   153   77   78 2    
   154   77   79 am   BACKBONE|DICT|INTERRES
   155   79   80 1    
   156   79  200 1    
   157   80   81 1    
   158   80   82 1    
   159   80  201 1    
   160   81  202 1    
   161   81  203 1    
   162   81  204 1    
   163   82   83 2    
   164   82   84 am   BACKBONE|DICT|INTERRES
   165   84   85 1    
   166   84  205 1    
   167   85   86 1    
   168   85   87 1    
   169   85  206 1    
   170   86  207 1    
   171   86  208 1    
   172   86  209 1    
   173   87   88 2    
   174   87   89 am   BACKBONE|DICT|INTERRES
   175   89   90 1    
   176   89  210 1    
   177   90   91 1    
   178   90   92 1    
   179   90  211 1    
   180   91  212 1    
   181   91  213 1    
   182   91  214 1    
   183   92   93 2    
   184   92   94 am   BACKBONE|DICT|INTERRES
   185   94   95 1    
   186   94  215 1    
   187   95   96 1    
   188   95   97 1    
   189   95  216 1    
   190   96  217 1    
   191   96  218 1    
   192   96  219 1    
   193   97   98 2    
   194   97   99 am   BACKBONE|DICT|INTERRES
   195   99  100 1    
   196   99  220 1    
   197  100  101 1    
   198  100  102 1    
   199  100  221 1    
   200  101  222 1    
   201  101  223 1    
   202  101  224 1    
   203  102  103 2    
   204  102  104 am   BACKBONE|DICT|INTERRES
   205  104  105 1    
   206  104  225 1    
   207  105  106 1    
   208  105  107 1    
   209  105  226 1    
   210  106  227 1    
   211  106  228 1    
   212  106  229 1    
   213  107  108 2    
   214  107  109 am   BACKBONE|DICT|INTERRES
   215  109  110 1    
   216  109  230 1    
   217  110  111 1    
   218  110  112 1    
   219  110  231 1    
   220  111  232 1    
   221  111  233 1    
   222  111  234 1    
   223  112  113 2    
   224  112  114 am   BACKBONE|DICT|INTERRES
   225  114  115 1    
   226  114  235 1    
   227  115  116 1    
   228  115  117 1    
   229  115  236 1    
   230  116  237 1    
   231  116  238 1    
   232  116  239 1    
   233  117  118 2    
   234  117  119 am   BACKBONE|DICT|INTERRES
   235  119  120 1    
   236  119  240 1    
   237  120  121 1    
   238  120  124 1    
   239  120  241 1    
   240  121  122 am   BACKBONE|DICT|INTERRES
   241  121  123 2    
   242  122  242 1    
   243  122  243 1    
   244  124  125 1    
   245  124  244 1    
   246  124  245 1    
   247  125  126 1    
   248  126  246 1    
   249  126  247 1    
@<TRIPOS>SUBSTRUCTURE
     1 UNK         1 GROUP             0       ****    0 ROOT    
