@<TRIPOS>MOLECULE
3R540
247   249    1
SMALL
USER_CHARGES


@<TRIPOS>ATOM
      1 CA         -1.3935  -13.0874  -45.4027 C.3       0 UNK        -0.1800 
      2 C          -0.9165  -12.4044  -46.6745 C.2       0 UNK         0.5000 
      3 O          -1.3089  -11.2672  -46.9337 O.2       0 UNK        -0.5000 
      4 N          -0.0560  -13.0824  -47.4492 N.am      1 UNK        -0.5000 
      5 CA          0.4715  -12.6497  -48.7555 C.3       1 UNK         0.1400 
      6 C6          1.4242  -13.7025  -49.3726 C.3       23 UNK        -0.0398 
      7 S7          0.6673  -15.3507  -49.5690 S.3       23 UNK        -0.2404 
      8 C8          1.9400  -16.1266  -50.6100 C.3       23 UNK        -0.0205 
      9 C9          1.5998  -17.5675  -50.9533 C.ar      23 UNK        -0.0193 
     10 C10         0.7632  -17.8520  -52.0350 C.ar      23 UNK        -0.1150 
     11 C11         0.5011  -19.1751  -52.4027 C.ar      23 UNK        -0.0193 
     12 C12         1.0582  -20.2198  -51.6589 C.ar      23 UNK        -0.1150 
     13 C13         1.8870  -19.9481  -50.5658 C.ar      23 UNK        -0.0193 
     14 C14         2.1573  -18.6193  -50.2218 C.ar      23 UNK        -0.1150 
     15 C15         2.5259  -21.0874  -49.7830 C.3       23 UNK        -0.0205 
     16 S16         2.0761  -21.0547  -48.0198 S.3       23 UNK        -0.2404 
     17 C17         0.3127  -21.5198  -48.0629 C.3       23 UNK        -0.0398 
     18 CA          0.0227  -22.7346  -47.1515 C.3       11 UNK         0.1400 
     19 N           0.2716  -22.4447  -45.7329 N.am      11 UNK        -0.5000 
     20 C           0.2778  -23.3640  -44.7576 C.2       10 UNK         0.5000 
     21 O           0.1102  -24.5656  -44.9562 O.2       10 UNK        -0.5000 
     22 CA          0.4331  -22.8584  -43.3121 C.3       10 UNK         0.1400 
     23 CB          1.9026  -22.5635  -42.9769 C.3       10 UNK        -0.1800 
     24 N          -0.3953  -21.6821  -43.0449 N.am      10 UNK        -0.5000 
     25 C          -1.7362  -21.6942  -43.0574 C.2       9 UNK         0.5000 
     26 O          -2.4045  -22.7126  -43.2333 O.2       9 UNK        -0.5000 
     27 CA         -2.4558  -20.3436  -42.8902 C.3       9 UNK         0.1400 
     28 CB         -2.5943  -19.9844  -41.4038 C.3       9 UNK        -0.1800 
     29 N          -1.7950  -19.2518  -43.6069 N.am      9 UNK        -0.5000 
     30 C          -1.6443  -19.1949  -44.9383 C.2       8 UNK         0.5000 
     31 O          -2.0968  -20.0369  -45.7126 O.2       8 UNK        -0.5000 
     32 CA         -0.7892  -18.0425  -45.4977 C.3       8 UNK         0.1400 
     33 CB         -1.6105  -16.7546  -45.6371 C.3       8 UNK        -0.1800 
     34 N           0.4105  -17.7886  -44.6975 N.am      8 UNK        -0.5000 
     35 C           1.3876  -18.6888  -44.5155 C.2       7 UNK         0.5000 
     36 O           1.3913  -19.8053  -45.0306 O.2       7 UNK        -0.5000 
     37 CA          2.5099  -18.3050  -43.5403 C.3       7 UNK         0.1400 
     38 CB          3.5304  -17.3698  -44.2074 C.3       7 UNK        -0.1800 
     39 N           1.9690  -17.6853  -42.3309 N.am      7 UNK        -0.5000 
     40 C           1.3065  -18.3591  -41.3789 C.2       6 UNK         0.5000 
     41 O           1.1246  -19.5762  -41.4075 O.2       6 UNK        -0.5000 
     42 CA          0.7208  -17.5350  -40.2164 C.3       6 UNK         0.1400 
     43 CB          1.7669  -17.3476  -39.1076 C.3       6 UNK        -0.1800 
     44 N           0.2220  -16.2246  -40.6363 N.am      6 UNK        -0.5000 
     45 C          -0.8233  -16.0365  -41.4537 C.2       5 UNK         0.5000 
     46 O          -1.5002  -16.9515  -41.9187 O.2       5 UNK        -0.5000 
     47 CA         -1.1313  -14.5857  -41.8665 C.3       5 UNK         0.1400 
     48 CB         -2.0786  -13.9233  -40.8563 C.3       5 UNK        -0.1800 
     49 N           0.0603  -13.7488  -42.0326 N.am      5 UNK        -0.5000 
     50 C           1.0786  -14.0029  -42.8637 C.2       4 UNK         0.5000 
     51 O           1.1405  -15.0098  -43.5728 O.2       4 UNK        -0.5000 
     52 CA          2.1814  -12.9298  -42.9329 C.3       4 UNK         0.1400 
     53 CB          3.4334  -13.4254  -43.6785 C.3       4 UNK        -0.1800 
     54 N           1.6906  -11.7244  -43.5975 N.am      4 UNK        -0.5000 
     55 C           0.8993  -10.7847  -43.0631 C.2       3 UNK         0.5000 
     56 O           0.5083  -10.8221  -41.8952 O.2       3 UNK        -0.5000 
     57 CA          0.4249   -9.6416  -43.9899 C.3       3 UNK         0.1400 
     58 CB          0.6310   -8.2530  -43.3511 C.3       3 UNK        -0.1800 
     59 N           0.9708   -9.6974  -45.3561 N.am      3 UNK        -0.5000 
     60 C           2.2336   -9.4782  -45.7585 C.2       2 UNK         0.5000 
     61 O           3.1490   -9.1491  -45.0041 O.2       2 UNK        -0.5000 
     62 CA          2.5167   -9.7594  -47.2454 C.3       2 UNK         0.1400 
     63 CB          4.0181   -9.8046  -47.5851 C.3       2 UNK        -0.1800 
     64 N           1.8970  -11.0336  -47.6028 N.am      2 UNK        -0.5000 
     65 C           1.1818  -11.2783  -48.7054 C.2       1 UNK         0.5000 
     66 O           1.0471  -10.4799  -49.6335 O.2       1 UNK        -0.5000 
     67 C          -1.4041  -23.2716  -47.3916 C.2       11 UNK         0.5000 
     68 O          -1.5796  -24.1913  -48.1958 O.2       11 UNK        -0.5000 
     69 N          -2.3913  -22.7147  -46.6748 N.am      12 UNK        -0.5000 
     70 CA         -3.7799  -23.1704  -46.6743 C.3       12 UNK         0.1400 
     71 CB         -4.6704  -22.1709  -45.9232 C.3       12 UNK        -0.1800 
     72 C          -3.9318  -24.5929  -46.1090 C.2       12 UNK         0.5000 
     73 O          -4.6095  -25.4179  -46.7214 O.2       12 UNK        -0.5000 
     74 N          -3.2662  -24.8699  -44.9808 N.am      13 UNK        -0.5000 
     75 CA         -3.2209  -26.1928  -44.3580 C.3       13 UNK         0.1400 
     76 CB         -2.5673  -26.0828  -42.9720 C.3       13 UNK        -0.1800 
     77 C          -2.4933  -27.2389  -45.2242 C.2       13 UNK         0.5000 
     78 O          -2.9388  -28.3853  -45.2897 O.2       13 UNK        -0.5000 
     79 N          -1.3931  -26.8270  -45.8683 N.am      14 UNK        -0.5000 
     80 CA         -0.5576  -27.6763  -46.7120 C.3       14 UNK         0.1400 
     81 CB          0.7890  -26.9835  -46.9749 C.3       14 UNK        -0.1800 
     82 C          -1.2283  -28.0704  -48.0380 C.2       14 UNK         0.5000 
     83 O          -1.2497  -29.2582  -48.3656 O.2       14 UNK        -0.5000 
     84 N          -1.7283  -27.0819  -48.7935 N.am      15 UNK        -0.5000 
     85 CA         -2.1783  -27.2820  -50.1738 C.3       15 UNK         0.1400 
     86 CB         -0.9550  -27.3476  -51.1143 C.3       15 UNK        -0.1800 
     87 C          -3.2049  -26.2286  -50.6237 C.2       15 UNK         0.5000 
     88 O          -3.2083  -25.8518  -51.7975 O.2       15 UNK        -0.5000 
     89 N          -4.0473  -25.7468  -49.6951 N.am      16 UNK        -0.5000 
     90 CA         -5.1461  -24.7895  -49.9170 C.3       16 UNK         0.1400 
     91 CB         -6.2448  -25.4328  -50.7894 C.3       16 UNK        -0.1800 
     92 C          -4.7020  -23.4205  -50.4807 C.2       16 UNK         0.5000 
     93 O          -5.5361  -22.6904  -51.0179 O.2       16 UNK        -0.5000 
     94 N          -3.3963  -23.1134  -50.3848 N.am      17 UNK        -0.5000 
     95 CA         -2.6911  -22.0237  -51.0702 C.3       17 UNK         0.1400 
     96 CB         -2.9837  -20.6737  -50.3882 C.3       17 UNK        -0.1800 
     97 C          -2.9713  -22.0259  -52.5903 C.2       17 UNK         0.5000 
     98 O          -3.2612  -20.9809  -53.1734 O.2       17 UNK        -0.5000 
     99 N          -2.9504  -23.2330  -53.1775 N.am      18 UNK        -0.5000 
    100 CA        -3.3884  -23.6128  -54.5238 C.3       18 UNK         0.1400 
    101 CB        -2.6595  -22.8191  -55.6251 C.3       18 UNK        -0.1800 
    102 C         -4.9187  -23.5386  -54.6795 C.2       18 UNK         0.5000 
    103 O         -5.5516  -24.5586  -54.9545 O.2       18 UNK        -0.5000 
    104 N         -5.4813  -22.3432  -54.4830 N.am      19 UNK        -0.5000 
    105 CA        -6.9077  -22.0405  -54.5434 C.3       19 UNK         0.1400 
    106 CB        -7.3960  -22.0352  -56.0074 C.3       19 UNK        -0.1800 
    107 C         -7.1547  -20.7062  -53.8220 C.2       19 UNK         0.5000 
    108 O         -7.6846  -19.7686  -54.4189 O.2       19 UNK        -0.5000 
    109 N         -6.6956  -20.6241  -52.5649 N.am      20 UNK        -0.5000 
    110 CA        -6.6862  -19.4673  -51.6558 C.3       20 UNK         0.1400 
    111 CB        -8.1042  -18.9065  -51.4306 C.3       20 UNK        -0.1800 
    112 C         -5.6909  -18.3489  -52.0366 C.2       20 UNK         0.5000 
    113 O         -5.2997  -17.5744  -51.1627 O.2       20 UNK        -0.5000 
    114 N         -5.2766  -18.2920  -53.3041 N.am      21 UNK        -0.5000 
    115 CA        -4.2663  -17.4053  -53.8604 C.3       21 UNK         0.1400 
    116 CB        -4.8806  -16.0235  -54.1477 C.3       21 UNK        -0.1800 
    117 C         -3.7158  -18.0511  -55.1410 C.2       21 UNK         0.5000 
    118 O         -4.3507  -18.9509  -55.7001 O.2       21 UNK        -0.5000 
    119 N         -2.5497  -17.5740  -55.5846 N.am      22 UNK        -0.5000 
    120 CA        -1.8176  -18.0961  -56.7501 C.3       22 UNK         0.1400 
    121 C         -1.1064  -16.9968  -57.5926 C.2       22 UNK         0.5000 
    122 N         -1.3840  -15.7149  -57.3822 N.am      22 UNK        -0.7600 
    123 O         -0.3079  -17.3054  -58.4733 O.2       22 UNK        -0.5000 
    124 C124       -0.8995  -19.2906  -56.3707 C.3       23 UNK        -0.0398 
    125 S125        0.3992  -18.8838  -55.1524 S.3       23 UNK        -0.2404 
    126 C126       -0.3735  -19.4687  -53.6106 C.3       23 UNK        -0.0205 
    127 H127       -1.3638  -12.3939  -44.5627 H         1 UNK         0.0600 
    128 H128       -0.7691  -13.9430  -45.1545 H         1 UNK         0.0600 
    129 H129       -2.4195  -13.4342  -45.5238 H         1 UNK         0.0600 
    130 H130        0.2140  -14.0167  -47.1759 H         1 UNK         0.3000 
    131 H131       -0.3872  -12.5391  -49.4209 H         1 UNK         0.0600 
    132 H132        1.7617  -13.3670  -50.3554 H         1 UNK         0.0800 
    133 H133        2.3221  -13.8138  -48.7615 H         1 UNK         0.0800 
    134 H134        2.9020  -16.0810  -50.0970 H         1 UNK         0.0800 
    135 H135        2.0561  -15.5520  -51.5303 H         1 UNK         0.0800 
    136 H136        0.3370  -17.0419  -52.6103 H         1 UNK         0.1150 
    137 H137        0.8605  -21.2442  -51.9414 H         1 UNK         0.1150 
    138 H138        2.8104  -18.4062  -49.3870 H         1 UNK         0.1150 
    139 H139        2.2599  -22.0576  -50.2056 H         1 UNK         0.0800 
    140 H140        3.6101  -21.0036  -49.8682 H         1 UNK         0.0800 
    141 H141        0.0294  -21.7379  -49.0938 H         1 UNK         0.0800 
    142 H142       -0.2810  -20.6560  -47.7598 H         1 UNK         0.0800 
    143 H143        0.7064  -23.5356  -47.4401 H         1 UNK         0.0600 
    144 H144        0.4761  -21.4776  -45.4950 H         1 UNK         0.3000 
    145 H145        0.0960  -23.6564  -42.6472 H         1 UNK         0.0600 
    146 H146        2.0150  -22.2549  -41.9375 H         1 UNK         0.0600 
    147 H147        2.5186  -23.4519  -43.1210 H         1 UNK         0.0600 
    148 H148        2.3156  -21.7757  -43.6056 H         1 UNK         0.0600 
    149 H149        0.0898  -20.8126  -42.8578 H         1 UNK         0.3000 
    150 H150       -3.4598  -20.4498  -43.3053 H         1 UNK         0.0600 
    151 H151       -3.0970  -20.7813  -40.8543 H         1 UNK         0.0600 
    152 H152       -3.1837  -19.0771  -41.2709 H         1 UNK         0.0600 
    153 H153       -1.6228  -19.8246  -40.9360 H         1 UNK         0.0600 
    154 H154       -1.4494  -18.4823  -43.0397 H         1 UNK         0.3000 
    155 H155       -0.4621  -18.3385  -46.4969 H         1 UNK         0.0600 
    156 H156       -1.8747  -16.3349  -44.6664 H         1 UNK         0.0600 
    157 H157       -2.5379  -16.9379  -46.1813 H         1 UNK         0.0600 
    158 H158       -1.0540  -16.0036  -46.1962 H         1 UNK         0.0600 
    159 H159        0.4901  -16.8852  -44.2436 H         1 UNK         0.3000 
    160 H160        3.0331  -19.2196  -43.2525 H         1 UNK         0.0600 
    161 H161        3.0691  -16.4525  -44.5720 H         1 UNK         0.0600 
    162 H162        3.9981  -17.8584  -45.0630 H         1 UNK         0.0600 
    163 H163        4.3260  -17.0943  -43.5151 H         1 UNK         0.0600 
    164 H164        2.0052  -16.6767  -42.2839 H         1 UNK         0.3000 
    165 H165       -0.1181  -18.0976  -39.8015 H         1 UNK         0.0600 
    166 H166        1.3401  -16.8356  -38.2450 H         1 UNK         0.0600 
    167 H167        2.1425  -18.3107  -38.7593 H         1 UNK         0.0600 
    168 H168        2.6229  -16.7671  -39.4541 H         1 UNK         0.0600 
    169 H169        0.7241  -15.4144  -40.3043 H         1 UNK         0.3000 
    170 H170       -1.6404  -14.6254  -42.8310 H         1 UNK         0.0600 
    171 H171       -2.9876  -14.5126  -40.7278 H         1 UNK         0.0600 
    172 H172       -1.6123  -13.8190  -39.8758 H         1 UNK         0.0600 
    173 H173       -2.3805  -12.9309  -41.1918 H         1 UNK         0.0600 
    174 H174        0.0675  -12.8624  -41.5405 H         1 UNK         0.3000 
    175 H175        2.4737  -12.6815  -41.9104 H         1 UNK         0.0600 
    176 H176        3.2139  -13.6829  -44.7155 H         1 UNK         0.0600 
    177 H177        4.2162  -12.6666  -43.6809 H         1 UNK         0.0600 
    178 H178        3.8461  -14.3142  -43.1996 H         1 UNK         0.0600 
    179 H179        1.9701  -11.6019  -44.5564 H         1 UNK         0.3000 
    180 H180       -0.6505   -9.7867  -44.1033 H         1 UNK         0.0600 
    181 H181        1.6784   -8.0616  -43.1173 H         1 UNK         0.0600 
    182 H182        0.0721   -8.1668  -42.4186 H         1 UNK         0.0600 
    183 H183        0.2821   -7.4588  -44.0110 H         1 UNK         0.0600 
    184 H184        0.3016   -9.9814  -46.0634 H         1 UNK         0.3000 
    185 H185        2.0576   -8.9447  -47.8093 H         1 UNK         0.0600 
    186 H186        4.5024   -8.8562  -47.3498 H         1 UNK         0.0600 
    187 H187        4.5331  -10.5873  -47.0267 H         1 UNK         0.0600 
    188 H188        4.1746   -9.9933  -48.6473 H         1 UNK         0.0600 
    189 H189        1.9458  -11.7625  -46.9070 H         1 UNK         0.3000 
    190 H190       -2.1796  -21.9071  -46.0947 H         1 UNK         0.3000 
    191 H191       -4.1157  -23.1851  -47.7081 H         1 UNK         0.0600 
    192 H192       -4.3958  -22.0917  -44.8724 H         1 UNK         0.0600 
    193 H193       -5.7169  -22.4749  -45.9654 H         1 UNK         0.0600 
    194 H194       -4.6031  -21.1758  -46.3633 H         1 UNK         0.0600 
    195 H195       -2.7685  -24.1223  -44.5048 H         1 UNK         0.3000 
    196 H196       -4.2493  -26.5334  -44.2209 H         1 UNK         0.0600 
    197 H197       -2.5401  -27.0528  -42.4742 H         1 UNK         0.0600 
    198 H198       -3.1230  -25.4012  -42.3278 H         1 UNK         0.0600 
    199 H199       -1.5420  -25.7175  -43.0380 H         1 UNK         0.0600 
    200 H200       -1.0512  -25.8858  -45.6943 H         1 UNK         0.3000 
    201 H201       -0.3527  -28.5963  -46.1602 H         1 UNK         0.0600 
    202 H202        1.3285  -26.8066  -46.0445 H         1 UNK         0.0600 
    203 H203        0.6582  -26.0229  -47.4737 H         1 UNK         0.0600 
    204 H204        1.4292  -27.5986  -47.6086 H         1 UNK         0.0600 
    205 H205       -1.6753  -26.1198  -48.4672 H         1 UNK         0.3000 
    206 H206       -2.7051  -28.2363  -50.2376 H         1 UNK         0.0600 
    207 H207       -0.2706  -28.1458  -50.8273 H         1 UNK         0.0600 
    208 H208       -1.2551  -27.5450  -52.1441 H         1 UNK         0.0600 
    209 H209       -0.3975  -26.4103  -51.1058 H         1 UNK         0.0600 
    210 H210       -3.9612  -26.0809  -48.7423 H         1 UNK         0.3000 
    211 H211       -5.5929  -24.5847  -48.9453 H         1 UNK         0.0600 
    212 H212       -5.9103  -25.5851  -51.8163 H         1 UNK         0.0600 
    213 H213       -7.1346  -24.8034  -50.8284 H         1 UNK         0.0600 
    214 H214       -6.5519  -26.3987  -50.3887 H         1 UNK         0.0600 
    215 H215       -2.8048  -23.7653  -49.8821 H         1 UNK         0.3000 
    216 H216       -1.6248  -22.2243  -50.9595 H         1 UNK         0.0600 
    217 H217       -2.4113  -19.8680  -50.8497 H         1 UNK         0.0600 
    218 H218       -2.7148  -20.7004  -49.3320 H         1 UNK         0.0600 
    219 H219       -4.0375  -20.4094  -50.4565 H         1 UNK         0.0600 
    220 H220       -2.7936  -24.0336  -52.5722 H         1 UNK         0.3000 
    221 H221       -3.1051  -24.6607  -54.6353 H         1 UNK         0.0600 
    222 H222       -2.9951  -21.7835  -55.6681 H         1 UNK         0.0600 
    223 H223       -1.5806  -22.8209  -55.4702 H         1 UNK         0.0600 
    224 H224       -2.8511  -23.2577  -56.6048 H         1 UNK         0.0600 
    225 H225       -4.8699  -21.5767  -54.2129 H         1 UNK         0.3000 
    226 H226       -7.4553  -22.8084  -53.9932 H         1 UNK         0.0600 
    227 H227       -7.2696  -23.0109  -56.4760 H         1 UNK         0.0600 
    228 H228       -8.4565  -21.7874  -56.0654 H         1 UNK         0.0600 
    229 H229       -6.8518  -21.3036  -56.6061 H         1 UNK         0.0600 
    230 H230       -6.2547  -21.4532  -52.1673 H         1 UNK         0.3000 
    231 H231       -6.3448  -19.8624  -50.6982 H         1 UNK         0.0600 
    232 H232       -8.7974  -19.6928  -51.1321 H         1 UNK         0.0600 
    233 H233       -8.5020  -18.4265  -52.3248 H         1 UNK         0.0600 
    234 H234       -8.1017  -18.1574  -50.6380 H         1 UNK         0.0600 
    235 H235       -5.6403  -18.9650  -53.9687 H         1 UNK         0.3000 
    236 H236       -3.4471  -17.3066  -53.1451 H         1 UNK         0.0600 
    237 H237       -4.1404  -15.3425  -54.5687 H         1 UNK         0.0600 
    238 H238       -5.7060  -16.0933  -54.8574 H         1 UNK         0.0600 
    239 H239       -5.2616  -15.5615  -53.2368 H         1 UNK         0.0600 
    240 H240       -2.0783  -16.8448  -55.0693 H         1 UNK         0.3000 
    241 H241       -2.5574  -18.4894  -57.4498 H         1 UNK         0.0600 
    242 H242       -0.9208  -15.0158  -57.9420 H         1 UNK         0.3800 
    243 H243       -2.0850  -15.4316  -56.7172 H         1 UNK         0.3800 
    244 H244       -1.5076  -20.1026  -55.9760 H         1 UNK         0.0800 
    245 H245       -0.4184  -19.6993  -57.2606 H         1 UNK         0.0800 
    246 H246       -0.5641  -20.5390  -53.6978 H         1 UNK         0.0800 
    247 H247       -1.3420  -18.9891  -53.4708 H         1 UNK         0.0800 
@<TRIPOS>BOND
     1    1    2 1    
     2    1  127 1    
     3    1  128 1    
     4    1  129 1    
     5    2    3 2    
     6    2    4 am   BACKBONE|DICT|INTERRES
     7    4    5 1    
     8    4  130 1    
     9    5    6 1    
    10    5   65 1    
    11    5  131 1    
    12    6    7 1    
    13    6  132 1    
    14    6  133 1    
    15    7    8 1    
    16    8    9 1    
    17    8  134 1    
    18    8  135 1    
    19    9   10 ar   
    20    9   14 ar   
    21   10   11 ar   
    22   10  136 1    
    23   11   12 ar   
    24   11  126 1    
    25   12   13 ar   
    26   12  137 1    
    27   13   14 ar   
    28   13   15 1    
    29   14  138 1    
    30   15   16 1    
    31   15  139 1    
    32   15  140 1    
    33   16   17 1    
    34   17   18 1    
    35   17  141 1    
    36   17  142 1    
    37   18   19 1    
    38   18   67 1    
    39   18  143 1    
    40   19   20 am   BACKBONE|DICT|INTERRES
    41   19  144 1    
    42   20   21 2    
    43   20   22 1    
    44   22   23 1    
    45   22   24 1    
    46   22  145 1    
    47   23  146 1    
    48   23  147 1    
    49   23  148 1    
    50   24   25 am   BACKBONE|DICT|INTERRES
    51   24  149 1    
    52   25   26 2    
    53   25   27 1    
    54   27   28 1    
    55   27   29 1    
    56   27  150 1    
    57   28  151 1    
    58   28  152 1    
    59   28  153 1    
    60   29   30 am   BACKBONE|DICT|INTERRES
    61   29  154 1    
    62   30   31 2    
    63   30   32 1    
    64   32   33 1    
    65   32   34 1    
    66   32  155 1    
    67   33  156 1    
    68   33  157 1    
    69   33  158 1    
    70   34   35 am   BACKBONE|DICT|INTERRES
    71   34  159 1    
    72   35   36 2    
    73   35   37 1    
    74   37   38 1    
    75   37   39 1    
    76   37  160 1    
    77   38  161 1    
    78   38  162 1    
    79   38  163 1    
    80   39   40 am   BACKBONE|DICT|INTERRES
    81   39  164 1    
    82   40   41 2    
    83   40   42 1    
    84   42   43 1    
    85   42   44 1    
    86   42  165 1    
    87   43  166 1    
    88   43  167 1    
    89   43  168 1    
    90   44   45 am   BACKBONE|DICT|INTERRES
    91   44  169 1    
    92   45   46 2    
    93   45   47 1    
    94   47   48 1    
    95   47   49 1    
    96   47  170 1    
    97   48  171 1    
    98   48  172 1    
    99   48  173 1    
   100   49   50 am   BACKBONE|DICT|INTERRES
   101   49  174 1    
   102   50   51 2    
   103   50   52 1    
   104   52   53 1    
   105   52   54 1    
   106   52  175 1    
   107   53  176 1    
   108   53  177 1    
   109   53  178 1    
   110   54   55 am   BACKBONE|DICT|INTERRES
   111   54  179 1    
   112   55   56 2    
   113   55   57 1    
   114   57   58 1    
   115   57   59 1    
   116   57  180 1    
   117   58  181 1    
   118   58  182 1    
   119   58  183 1    
   120   59   60 am   BACKBONE|DICT|INTERRES
   121   59  184 1    
   122   60   61 2    
   123   60   62 1    
   124   62   63 1    
   125   62   64 1    
   126   62  185 1    
   127   63  186 1    
   128   63  187 1    
   129   63  188 1    
   130   64   65 am   BACKBONE|DICT|INTERRES
   131   64  189 1    
   132   65   66 2    
   133   67   68 2    
   134   67   69 am   BACKBONE|DICT|INTERRES
   135   69   70 1    
   136   69  190 1    
   137   70   71 1    
   138   70   72 1    
   139   70  191 1    
   140   71  192 1    
   141   71  193 1    
   142   71  194 1    
   143   72   73 2    
   144   72   74 am   BACKBONE|DICT|INTERRES
   145   74   75 1    
   146   74  195 1    
   147   75   76 1    
   148   75   77 1    
   149   75  196 1    
   150   76  197 1    
   151   76  198 1    
   152   76  199 1    
   153   77   78 2    
   154   77   79 am   BACKBONE|DICT|INTERRES
   155   79   80 1    
   156   79  200 1    
   157   80   81 1    
   158   80   82 1    
   159   80  201 1    
   160   81  202 1    
   161   81  203 1    
   162   81  204 1    
   163   82   83 2    
   164   82   84 am   BACKBONE|DICT|INTERRES
   165   84   85 1    
   166   84  205 1    
   167   85   86 1    
   168   85   87 1    
   169   85  206 1    
   170   86  207 1    
   171   86  208 1    
   172   86  209 1    
   173   87   88 2    
   174   87   89 am   BACKBONE|DICT|INTERRES
   175   89   90 1    
   176   89  210 1    
   177   90   91 1    
   178   90   92 1    
   179   90  211 1    
   180   91  212 1    
   181   91  213 1    
   182   91  214 1    
   183   92   93 2    
   184   92   94 am   BACKBONE|DICT|INTERRES
   185   94   95 1    
   186   94  215 1    
   187   95   96 1    
   188   95   97 1    
   189   95  216 1    
   190   96  217 1    
   191   96  218 1    
   192   96  219 1    
   193   97   98 2    
   194   97   99 am   BACKBONE|DICT|INTERRES
   195   99  100 1    
   196   99  220 1    
   197  100  101 1    
   198  100  102 1    
   199  100  221 1    
   200  101  222 1    
   201  101  223 1    
   202  101  224 1    
   203  102  103 2    
   204  102  104 am   BACKBONE|DICT|INTERRES
   205  104  105 1    
   206  104  225 1    
   207  105  106 1    
   208  105  107 1    
   209  105  226 1    
   210  106  227 1    
   211  106  228 1    
   212  106  229 1    
   213  107  108 2    
   214  107  109 am   BACKBONE|DICT|INTERRES
   215  109  110 1    
   216  109  230 1    
   217  110  111 1    
   218  110  112 1    
   219  110  231 1    
   220  111  232 1    
   221  111  233 1    
   222  111  234 1    
   223  112  113 2    
   224  112  114 am   BACKBONE|DICT|INTERRES
   225  114  115 1    
   226  114  235 1    
   227  115  116 1    
   228  115  117 1    
   229  115  236 1    
   230  116  237 1    
   231  116  238 1    
   232  116  239 1    
   233  117  118 2    
   234  117  119 am   BACKBONE|DICT|INTERRES
   235  119  120 1    
   236  119  240 1    
   237  120  121 1    
   238  120  124 1    
   239  120  241 1    
   240  121  122 am   BACKBONE|DICT|INTERRES
   241  121  123 2    
   242  122  242 1    
   243  122  243 1    
   244  124  125 1    
   245  124  244 1    
   246  124  245 1    
   247  125  126 1    
   248  126  246 1    
   249  126  247 1    
@<TRIPOS>SUBSTRUCTURE
     1 UNK         1 GROUP             0       ****    0 ROOT    
