@<TRIPOS>MOLECULE
3R540
247   249    1
SMALL
USER_CHARGES


@<TRIPOS>ATOM
      1 CA          7.0111   -9.6978  -49.8545 C.3       0 UNK        -0.1800 
      2 C           5.9764  -10.6142  -49.2161 C.2       0 UNK         0.5000 
      3 O           5.7046  -10.4921  -48.0213 O.2       0 UNK        -0.5000 
      4 N           5.4071  -11.5348  -50.0040 N.am      1 UNK        -0.5000 
      5 CA          4.3435  -12.4523  -49.5854 C.3       1 UNK         0.1400 
      6 C6          4.2117  -13.6373  -50.5743 C.3       23 UNK        -0.0398 
      7 S7          3.3377  -15.0660  -49.8487 S.3       23 UNK        -0.2404 
      8 C8          2.6050  -15.8075  -51.3395 C.3       23 UNK        -0.0205 
      9 C9          1.7307  -17.0001  -50.9871 C.ar      23 UNK        -0.0193 
     10 C10         0.3373  -16.9047  -51.0638 C.ar      23 UNK        -0.1150 
     11 C11        -0.4697  -17.9923  -50.7128 C.ar      23 UNK        -0.0193 
     12 C12         0.1308  -19.1865  -50.3066 C.ar      23 UNK        -0.1150 
     13 C13         1.5203  -19.2940  -50.2277 C.ar      23 UNK        -0.0193 
     14 C14         2.3171  -18.2005  -50.5746 C.ar      23 UNK        -0.1150 
     15 C15         2.1496  -20.5917  -49.7569 C.3       23 UNK        -0.0205 
     16 S16         2.3731  -20.5951  -47.9507 S.3       23 UNK        -0.2404 
     17 C17         2.5421  -22.3893  -47.6525 C.3       23 UNK        -0.0398 
     18 CA          1.3338  -23.0400  -46.9358 C.3       11 UNK         0.1400 
     19 N           1.1617  -22.5439  -45.5683 N.am      11 UNK        -0.5000 
     20 C           0.4485  -23.1693  -44.6220 C.2       10 UNK         0.5000 
     21 O          -0.1769  -24.2077  -44.8358 O.2       10 UNK        -0.5000 
     22 CA          0.3803  -22.5195  -43.2262 C.3       10 UNK         0.1400 
     23 CB          0.3821  -23.5601  -42.0885 C.3       10 UNK        -0.1800 
     24 N           1.3938  -21.4859  -43.0037 N.am      10 UNK        -0.5000 
     25 C           2.7250  -21.6145  -42.9129 C.2       9 UNK         0.5000 
     26 O           3.3250  -22.6870  -42.9845 O.2       9 UNK        -0.5000 
     27 CA          3.5240  -20.3074  -42.7352 C.3       9 UNK         0.1400 
     28 CB          4.1009  -19.8572  -44.0868 C.3       9 UNK        -0.1800 
     29 N           2.7194  -19.2166  -42.1778 N.am      9 UNK        -0.5000 
     30 C           2.2747  -19.1589  -40.9145 C.2       8 UNK         0.5000 
     31 O           2.5820  -19.9730  -40.0430 O.2       8 UNK        -0.5000 
     32 CA          1.2850  -18.0260  -40.5826 C.3       8 UNK         0.1400 
     33 CB          2.0301  -16.7153  -40.2884 C.3       8 UNK        -0.1800 
     34 N           0.2983  -17.8091  -41.6450 N.am      8 UNK        -0.5000 
     35 C          -0.6529  -18.6903  -41.9903 C.2       7 UNK         0.5000 
     36 O          -0.8245  -19.7672  -41.4206 O.2       7 UNK        -0.5000 
     37 CA         -1.5418  -18.3325  -43.1943 C.3       7 UNK         0.1400 
     38 CB         -2.6915  -17.4087  -42.7669 C.3       7 UNK        -0.1800 
     39 N          -0.7842  -17.7112  -44.2788 N.am      7 UNK        -0.5000 
     40 C           0.1037  -18.3519  -45.0520 C.2       6 UNK         0.5000 
     41 O           0.3124  -19.5642  -44.9927 O.2       6 UNK        -0.5000 
     42 CA          0.9132  -17.4918  -46.0389 C.3       6 UNK         0.1400 
     43 CB          0.1323  -17.3000  -47.3395 C.3       6 UNK        -0.1800 
     44 N           1.2725  -16.1814  -45.5003 N.am      6 UNK        -0.5000 
     45 C           2.0797  -15.9835  -44.4506 C.2       5 UNK         0.5000 
     46 O           2.6360  -16.8910  -43.8343 O.2       5 UNK        -0.5000 
     47 CA          2.2472  -14.5306  -43.9765 C.3       5 UNK         0.1400 
     48 CB          3.2828  -13.7843  -44.8323 C.3       5 UNK        -0.1800 
     49 N           0.9759  -13.8065  -43.9902 N.am      5 UNK        -0.5000 
     50 C          -0.0398  -14.0496  -43.1494 C.2       4 UNK         0.5000 
     51 O           0.0024  -14.8914  -42.2526 O.2       4 UNK        -0.5000 
     52 CA         -1.3332  -13.2455  -43.3778 C.3       4 UNK         0.1400 
     53 CB         -1.2258  -11.8513  -42.7422 C.3       4 UNK        -0.1800 
     54 N          -1.6636  -13.1089  -44.7972 N.am      4 UNK        -0.5000 
     55 C          -2.0150  -14.1307  -45.5906 C.2       3 UNK         0.5000 
     56 O          -2.1473  -15.2868  -45.1934 O.2       3 UNK        -0.5000 
     57 CA         -2.1955  -13.8212  -47.0882 C.3       3 UNK         0.1400 
     58 CB         -3.6479  -13.4312  -47.3987 C.3       3 UNK        -0.1800 
     59 N          -1.2867  -12.7866  -47.5919 N.am      3 UNK        -0.5000 
     60 C           0.0475  -12.8973  -47.5925 C.2       2 UNK         0.5000 
     61 O           0.6532  -13.8644  -47.1218 O.2       2 UNK        -0.5000 
     62 CA          0.8391  -11.7189  -48.1717 C.3       2 UNK         0.1400 
     63 CB          0.9194  -10.5596  -47.1628 C.3       2 UNK        -0.1800 
     64 N           2.1799  -12.1959  -48.4791 N.am      2 UNK        -0.5000 
     65 C           3.0046  -11.7016  -49.4041 C.2       1 UNK         0.5000 
     66 O           2.7392  -10.7235  -50.1087 O.2       1 UNK        -0.5000 
     67 C           0.0230  -22.9570  -47.7486 C.2       11 UNK         0.5000 
     68 O          -0.2515  -23.8463  -48.5542 O.2       11 UNK        -0.5000 
     69 N          -0.7905  -21.9248  -47.4759 N.am      12 UNK        -0.5000 
     70 CA         -2.1303  -21.7480  -48.0377 C.3       12 UNK         0.1400 
     71 CB         -2.6470  -20.3474  -47.6706 C.3       12 UNK        -0.1800 
     72 C          -3.1123  -22.8344  -47.5594 C.2       12 UNK         0.5000 
     73 O          -3.9359  -23.3034  -48.3467 O.2       12 UNK        -0.5000 
     74 N          -2.9829  -23.2293  -46.2849 N.am      13 UNK        -0.5000 
     75 CA         -3.7593  -24.3009  -45.6647 C.3       13 UNK         0.1400 
     76 CB         -3.6548  -24.1988  -44.1350 C.3       13 UNK        -0.1800 
     77 C          -3.3148  -25.6866  -46.1611 C.2       13 UNK         0.5000 
     78 O          -4.1682  -26.5130  -46.4814 O.2       13 UNK        -0.5000 
     79 N          -1.9944  -25.9004  -46.2636 N.am      14 UNK        -0.5000 
     80 CA         -1.3763  -27.1274  -46.7761 C.3       14 UNK         0.1400 
     81 CB          0.1452  -27.0522  -46.5835 C.3       14 UNK        -0.1800 
     82 C          -1.7191  -27.4165  -48.2503 C.2       14 UNK         0.5000 
     83 O          -1.8389  -28.5828  -48.6268 O.2       14 UNK        -0.5000 
     84 N          -1.9082  -26.3540  -49.0461 N.am      15 UNK        -0.5000 
     85 CA         -2.3868  -26.4174  -50.4286 C.3       15 UNK         0.1400 
     86 CB         -2.1706  -25.0495  -51.0940 C.3       15 UNK        -0.1800 
     87 C          -3.8635  -26.8519  -50.5537 C.2       15 UNK         0.5000 
     88 O          -4.2721  -27.2697  -51.6369 O.2       15 UNK        -0.5000 
     89 N          -4.6331  -26.7362  -49.4589 N.am      16 UNK        -0.5000 
     90 CA         -6.0305  -27.1561  -49.2792 C.3       16 UNK         0.1400 
     91 CB         -6.1602  -28.6858  -49.4304 C.3       16 UNK        -0.1800 
     92 C          -7.0609  -26.3942  -50.1414 C.2       16 UNK         0.5000 
     93 O          -8.2182  -26.8114  -50.2143 O.2       16 UNK        -0.5000 
     94 N          -6.6407  -25.2865  -50.7618 N.am      17 UNK        -0.5000 
     95 CA         -7.4506  -24.4580  -51.6559 C.3       17 UNK         0.1400 
     96 CB         -7.4629  -25.0764  -53.0686 C.3       17 UNK        -0.1800 
     97 C          -6.9601  -22.9990  -51.6579 C.2       17 UNK         0.5000 
     98 O          -7.1128  -22.3056  -52.6651 O.2       17 UNK        -0.5000 
     99 N          -6.3312  -22.5634  -50.5520 N.am      18 UNK        -0.5000 
    100 CA        -5.7530  -21.2265  -50.3404 C.3       18 UNK         0.1400 
    101 CB        -6.8742  -20.1732  -50.2447 C.3       18 UNK        -0.1800 
    102 C         -4.6783  -20.8572  -51.3887 C.2       18 UNK         0.5000 
    103 O         -4.5499  -19.6901  -51.7674 O.2       18 UNK        -0.5000 
    104 N         -3.9858  -21.8866  -51.9023 N.am      19 UNK        -0.5000 
    105 CA        -3.0453  -21.8748  -53.0323 C.3       19 UNK         0.1400 
    106 CB        -1.7288  -21.1911  -52.6199 C.3       19 UNK        -0.1800 
    107 C         -3.6259  -21.2890  -54.3425 C.2       19 UNK         0.5000 
    108 O         -2.8590  -20.9016  -55.2249 O.2       19 UNK        -0.5000 
    109 N         -4.9646  -21.2151  -54.4351 N.am      20 UNK        -0.5000 
    110 CA        -5.7580  -20.5500  -55.4717 C.3       20 UNK         0.1400 
    111 CB        -5.6517  -21.3142  -56.8079 C.3       20 UNK        -0.1800 
    112 C         -5.4512  -19.0398  -55.6135 C.2       20 UNK         0.5000 
    113 O         -5.6200  -18.4897  -56.7039 O.2       20 UNK        -0.5000 
    114 N         -5.0019  -18.3939  -54.5256 N.am      21 UNK        -0.5000 
    115 CA        -4.5467  -17.0009  -54.5347 C.3       21 UNK         0.1400 
    116 CB        -3.0339  -16.9567  -54.8123 C.3       21 UNK        -0.1800 
    117 C         -4.8988  -16.2292  -53.2524 C.2       21 UNK         0.5000 
    118 O         -5.1564  -15.0277  -53.3388 O.2       21 UNK        -0.5000 
    119 N         -4.9176  -16.9046  -52.0962 N.am      22 UNK        -0.5000 
    120 CA        -5.2378  -16.3009  -50.7892 C.3       22 UNK         0.1400 
    121 C         -6.7594  -16.2991  -50.4546 C.2       22 UNK         0.5000 
    122 N         -7.6314  -16.8399  -51.2973 N.am      22 UNK        -0.7600 
    123 O         -7.1611  -15.7822  -49.4159 O.2       22 UNK        -0.5000 
    124 C124       -4.4026  -16.9387  -49.6474 C.3       23 UNK        -0.0398 
    125 S125       -2.6291  -16.5282  -49.7498 S.3       23 UNK        -0.2404 
    126 C126       -1.9867  -17.8908  -50.7676 C.3       23 UNK        -0.0205 
    127 H127        6.6935   -8.6584  -49.7709 H         1 UNK         0.0600 
    128 H128        7.9704   -9.8043  -49.3480 H         1 UNK         0.0600 
    129 H129        7.1574   -9.9245  -50.9109 H         1 UNK         0.0600 
    130 H130        5.6496  -11.5608  -50.9840 H         1 UNK         0.3000 
    131 H131        4.6384  -12.8551  -48.6133 H         1 UNK         0.0600 
    132 H132        5.2017  -13.9913  -50.8658 H         1 UNK         0.0800 
    133 H133        3.7216  -13.3208  -51.4970 H         1 UNK         0.0800 
    134 H134        3.3994  -16.1244  -52.0167 H         1 UNK         0.0800 
    135 H135        2.0222  -15.0538  -51.8715 H         1 UNK         0.0800 
    136 H136       -0.1239  -15.9784  -51.3763 H         1 UNK         0.1150 
    137 H137       -0.4820  -20.0314  -50.0288 H         1 UNK         0.1150 
    138 H138        3.3932  -18.2759  -50.5057 H         1 UNK         0.1150 
    139 H139        1.5163  -21.4286  -50.0561 H         1 UNK         0.0800 
    140 H140        3.1145  -20.7449  -50.2425 H         1 UNK         0.0800 
    141 H141        3.4401  -22.5401  -47.0519 H         1 UNK         0.0800 
    142 H142        2.7390  -22.9054  -48.5936 H         1 UNK         0.0800 
    143 H143        1.5701  -24.1025  -46.8510 H         1 UNK         0.0600 
    144 H144        1.5802  -21.6507  -45.3475 H         1 UNK         0.3000 
    145 H145       -0.5788  -22.0013  -43.1914 H         1 UNK         0.0600 
    146 H146        0.3238  -23.0758  -41.1136 H         1 UNK         0.0600 
    147 H147       -0.4753  -24.2293  -42.1684 H         1 UNK         0.0600 
    148 H148        1.2795  -24.1788  -42.1048 H         1 UNK         0.0600 
    149 H149        1.0285  -20.5433  -42.9782 H         1 UNK         0.3000 
    150 H150        4.3525  -20.5111  -42.0539 H         1 UNK         0.0600 
    151 H151        4.7275  -20.6346  -44.5258 H         1 UNK         0.0600 
    152 H152        4.7186  -18.9660  -43.9746 H         1 UNK         0.0600 
    153 H153        3.3116  -19.6276  -44.8041 H         1 UNK         0.0600 
    154 H154        2.4893  -18.4537  -42.8110 H         1 UNK         0.3000 
    155 H155        0.7437  -18.3144  -39.6792 H         1 UNK         0.0600 
    156 H156        2.5768  -16.3563  -41.1601 H         1 UNK         0.0600 
    157 H157        2.7510  -16.8492  -39.4811 H         1 UNK         0.0600 
    158 H158        1.3393  -15.9303  -39.9803 H         1 UNK         0.0600 
    159 H159        0.3389  -16.9170  -42.1263 H         1 UNK         0.3000 
    160 H160       -1.9775  -19.2594  -43.5736 H         1 UNK         0.0600 
    161 H161       -3.3760  -17.2250  -43.5952 H         1 UNK         0.0600 
    162 H162       -2.3248  -16.4436  -42.4163 H         1 UNK         0.0600 
    163 H163       -3.2721  -17.8545  -41.9584 H         1 UNK         0.0600 
    164 H164       -0.9664  -16.7284  -44.4546 H         1 UNK         0.3000 
    165 H165        1.8375  -18.0251  -46.2686 H         1 UNK         0.0600 
    166 H166        0.7122  -16.7395  -48.0730 H         1 UNK         0.0600 
    167 H167       -0.1075  -18.2660  -47.7786 H         1 UNK         0.0600 
    168 H168       -0.8065  -16.7723  -47.1757 H         1 UNK         0.0600 
    169 H169        0.8950  -15.3706  -45.9835 H         1 UNK         0.3000 
    170 H170        2.6140  -14.5538  -42.9482 H         1 UNK         0.0600 
    171 H171        4.2524  -14.2819  -44.7872 H         1 UNK         0.0600 
    172 H172        2.9901  -13.7384  -45.8808 H         1 UNK         0.0600 
    173 H173        3.4252  -12.7630  -44.4789 H         1 UNK         0.0600 
    174 H174        0.8377  -13.1474  -44.7414 H         1 UNK         0.3000 
    175 H175       -2.1492  -13.7818  -42.8886 H         1 UNK         0.0600 
    176 H176       -2.1647  -11.3045  -42.8310 H         1 UNK         0.0600 
    177 H177       -0.9932  -11.9248  -41.6790 H         1 UNK         0.0600 
    178 H178       -0.4427  -11.2527  -43.2092 H         1 UNK         0.0600 
    179 H179       -1.5785  -12.1892  -45.2036 H         1 UNK         0.3000 
    180 H180       -1.9691  -14.7396  -47.6288 H         1 UNK         0.0600 
    181 H181       -3.9257  -12.4927  -46.9179 H         1 UNK         0.0600 
    182 H182       -4.3403  -14.1987  -47.0497 H         1 UNK         0.0600 
    183 H183       -3.8047  -13.3217  -48.4721 H         1 UNK         0.0600 
    184 H184       -1.7149  -11.9600  -47.9832 H         1 UNK         0.3000 
    185 H185        0.3470  -11.3861  -49.0880 H         1 UNK         0.0600 
    186 H186        1.4021  -10.8681  -46.2345 H         1 UNK         0.0600 
    187 H187        1.4857   -9.7216  -47.5696 H         1 UNK         0.0600 
    188 H188       -0.0736  -10.1858  -46.9108 H         1 UNK         0.0600 
    189 H189        2.4164  -13.0586  -48.0031 H         1 UNK         0.3000 
    190 H190       -0.4774  -21.2369  -46.8037 H         1 UNK         0.3000 
    191 H191       -2.0601  -21.8185  -49.1253 H         1 UNK         0.0600 
    192 H192       -2.0094  -19.5696  -48.0873 H         1 UNK         0.0600 
    193 H193       -2.6846  -20.2009  -46.5903 H         1 UNK         0.0600 
    194 H194       -3.6509  -20.1780  -48.0584 H         1 UNK         0.0600 
    195 H195       -2.2538  -22.8157  -45.7245 H         1 UNK         0.3000 
    196 H196       -4.8079  -24.1677  -45.9399 H         1 UNK         0.0600 
    197 H197       -4.2603  -24.9673  -43.6530 H         1 UNK         0.0600 
    198 H198       -4.0135  -23.2329  -43.7791 H         1 UNK         0.0600 
    199 H199       -2.6301  -24.3250  -43.7856 H         1 UNK         0.0600 
    200 H200       -1.3574  -25.1891  -45.9137 H         1 UNK         0.3000 
    201 H201       -1.7549  -27.9602  -46.1801 H         1 UNK         0.0600 
    202 H202        0.4051  -26.8918  -45.5370 H         1 UNK         0.0600 
    203 H203        0.5821  -26.2423  -47.1673 H         1 UNK         0.0600 
    204 H204        0.6248  -27.9795  -46.8995 H         1 UNK         0.0600 
    205 H205       -1.7045  -25.4321  -48.6777 H         1 UNK         0.3000 
    206 H206       -1.7848  -27.1552  -50.9630 H         1 UNK         0.0600 
    207 H207       -1.1150  -24.7767  -51.0993 H         1 UNK         0.0600 
    208 H208       -2.5061  -25.0630  -52.1314 H         1 UNK         0.0600 
    209 H209       -2.7146  -24.2596  -50.5769 H         1 UNK         0.0600 
    210 H210       -4.1933  -26.3905  -48.6140 H         1 UNK         0.3000 
    211 H211       -6.2794  -26.9115  -48.2458 H         1 UNK         0.0600 
    212 H212       -5.9945  -29.0070  -50.4591 H         1 UNK         0.0600 
    213 H213       -7.1539  -29.0274  -49.1385 H         1 UNK         0.0600 
    214 H214       -5.4418  -29.2055  -48.7961 H         1 UNK         0.0600 
    215 H215       -5.6698  -25.0308  -50.6589 H         1 UNK         0.3000 
    216 H216       -8.4763  -24.4281  -51.2830 H         1 UNK         0.0600 
    217 H217       -8.0961  -24.5035  -53.7472 H         1 UNK         0.0600 
    218 H218       -7.8516  -26.0947  -53.0527 H         1 UNK         0.0600 
    219 H219       -6.4609  -25.1085  -53.4981 H         1 UNK         0.0600 
    220 H220       -6.2497  -23.1952  -49.7667 H         1 UNK         0.3000 
    221 H221       -5.2492  -21.2556  -49.3759 H         1 UNK         0.0600 
    222 H222       -7.3516  -19.9978  -51.2094 H         1 UNK         0.0600 
    223 H223       -7.6467  -20.4811  -49.5403 H         1 UNK         0.0600 
    224 H224       -6.4862  -19.2193  -49.8933 H         1 UNK         0.0600 
    225 H225       -4.1953  -22.7993  -51.5280 H         1 UNK         0.3000 
    226 H226       -2.8194  -22.9186  -53.2515 H         1 UNK         0.0600 
    227 H227       -1.3427  -21.6060  -51.6891 H         1 UNK         0.0600 
    228 H228       -0.9583  -21.3307  -53.3787 H         1 UNK         0.0600 
    229 H229       -1.8622  -20.1187  -52.4881 H         1 UNK         0.0600 
    230 H230       -5.5143  -21.5790  -53.6630 H         1 UNK         0.3000 
    231 H231       -6.7951  -20.6132  -55.1394 H         1 UNK         0.0600 
    232 H232       -5.8826  -22.3713  -56.6760 H         1 UNK         0.0600 
    233 H233       -4.6528  -21.2397  -57.2385 H         1 UNK         0.0600 
    234 H234       -6.3547  -20.9203  -57.5426 H         1 UNK         0.0600 
    235 H235       -4.8903  -18.9128  -53.6620 H         1 UNK         0.3000 
    236 H236       -5.0483  -16.4628  -55.3420 H         1 UNK         0.0600 
    237 H237       -2.6487  -15.9381  -54.7495 H         1 UNK         0.0600 
    238 H238       -2.4758  -17.5675  -54.1032 H         1 UNK         0.0600 
    239 H239       -2.8099  -17.3272  -55.8127 H         1 UNK         0.0600 
    240 H240       -4.7123  -17.8997  -52.0745 H         1 UNK         0.3000 
    241 H241       -4.9639  -15.2446  -50.8212 H         1 UNK         0.0600 
    242 H242       -8.6136  -16.8238  -51.0730 H         1 UNK         0.3800 
    243 H243       -7.3189  -17.2529  -52.1604 H         1 UNK         0.3800 
    244 H244       -4.7408  -16.5759  -48.6753 H         1 UNK         0.0800 
    245 H245       -4.5290  -18.0202  -49.6204 H         1 UNK         0.0800 
    246 H246       -2.2957  -17.7480  -51.8012 H         1 UNK         0.0800 
    247 H247       -2.4362  -18.8246  -50.4304 H         1 UNK         0.0800 
@<TRIPOS>BOND
     1    1    2 1    
     2    1  127 1    
     3    1  128 1    
     4    1  129 1    
     5    2    3 2    
     6    2    4 am   BACKBONE|DICT|INTERRES
     7    4    5 1    
     8    4  130 1    
     9    5    6 1    
    10    5   65 1    
    11    5  131 1    
    12    6    7 1    
    13    6  132 1    
    14    6  133 1    
    15    7    8 1    
    16    8    9 1    
    17    8  134 1    
    18    8  135 1    
    19    9   10 ar   
    20    9   14 ar   
    21   10   11 ar   
    22   10  136 1    
    23   11   12 ar   
    24   11  126 1    
    25   12   13 ar   
    26   12  137 1    
    27   13   14 ar   
    28   13   15 1    
    29   14  138 1    
    30   15   16 1    
    31   15  139 1    
    32   15  140 1    
    33   16   17 1    
    34   17   18 1    
    35   17  141 1    
    36   17  142 1    
    37   18   19 1    
    38   18   67 1    
    39   18  143 1    
    40   19   20 am   BACKBONE|DICT|INTERRES
    41   19  144 1    
    42   20   21 2    
    43   20   22 1    
    44   22   23 1    
    45   22   24 1    
    46   22  145 1    
    47   23  146 1    
    48   23  147 1    
    49   23  148 1    
    50   24   25 am   BACKBONE|DICT|INTERRES
    51   24  149 1    
    52   25   26 2    
    53   25   27 1    
    54   27   28 1    
    55   27   29 1    
    56   27  150 1    
    57   28  151 1    
    58   28  152 1    
    59   28  153 1    
    60   29   30 am   BACKBONE|DICT|INTERRES
    61   29  154 1    
    62   30   31 2    
    63   30   32 1    
    64   32   33 1    
    65   32   34 1    
    66   32  155 1    
    67   33  156 1    
    68   33  157 1    
    69   33  158 1    
    70   34   35 am   BACKBONE|DICT|INTERRES
    71   34  159 1    
    72   35   36 2    
    73   35   37 1    
    74   37   38 1    
    75   37   39 1    
    76   37  160 1    
    77   38  161 1    
    78   38  162 1    
    79   38  163 1    
    80   39   40 am   BACKBONE|DICT|INTERRES
    81   39  164 1    
    82   40   41 2    
    83   40   42 1    
    84   42   43 1    
    85   42   44 1    
    86   42  165 1    
    87   43  166 1    
    88   43  167 1    
    89   43  168 1    
    90   44   45 am   BACKBONE|DICT|INTERRES
    91   44  169 1    
    92   45   46 2    
    93   45   47 1    
    94   47   48 1    
    95   47   49 1    
    96   47  170 1    
    97   48  171 1    
    98   48  172 1    
    99   48  173 1    
   100   49   50 am   BACKBONE|DICT|INTERRES
   101   49  174 1    
   102   50   51 2    
   103   50   52 1    
   104   52   53 1    
   105   52   54 1    
   106   52  175 1    
   107   53  176 1    
   108   53  177 1    
   109   53  178 1    
   110   54   55 am   BACKBONE|DICT|INTERRES
   111   54  179 1    
   112   55   56 2    
   113   55   57 1    
   114   57   58 1    
   115   57   59 1    
   116   57  180 1    
   117   58  181 1    
   118   58  182 1    
   119   58  183 1    
   120   59   60 am   BACKBONE|DICT|INTERRES
   121   59  184 1    
   122   60   61 2    
   123   60   62 1    
   124   62   63 1    
   125   62   64 1    
   126   62  185 1    
   127   63  186 1    
   128   63  187 1    
   129   63  188 1    
   130   64   65 am   BACKBONE|DICT|INTERRES
   131   64  189 1    
   132   65   66 2    
   133   67   68 2    
   134   67   69 am   BACKBONE|DICT|INTERRES
   135   69   70 1    
   136   69  190 1    
   137   70   71 1    
   138   70   72 1    
   139   70  191 1    
   140   71  192 1    
   141   71  193 1    
   142   71  194 1    
   143   72   73 2    
   144   72   74 am   BACKBONE|DICT|INTERRES
   145   74   75 1    
   146   74  195 1    
   147   75   76 1    
   148   75   77 1    
   149   75  196 1    
   150   76  197 1    
   151   76  198 1    
   152   76  199 1    
   153   77   78 2    
   154   77   79 am   BACKBONE|DICT|INTERRES
   155   79   80 1    
   156   79  200 1    
   157   80   81 1    
   158   80   82 1    
   159   80  201 1    
   160   81  202 1    
   161   81  203 1    
   162   81  204 1    
   163   82   83 2    
   164   82   84 am   BACKBONE|DICT|INTERRES
   165   84   85 1    
   166   84  205 1    
   167   85   86 1    
   168   85   87 1    
   169   85  206 1    
   170   86  207 1    
   171   86  208 1    
   172   86  209 1    
   173   87   88 2    
   174   87   89 am   BACKBONE|DICT|INTERRES
   175   89   90 1    
   176   89  210 1    
   177   90   91 1    
   178   90   92 1    
   179   90  211 1    
   180   91  212 1    
   181   91  213 1    
   182   91  214 1    
   183   92   93 2    
   184   92   94 am   BACKBONE|DICT|INTERRES
   185   94   95 1    
   186   94  215 1    
   187   95   96 1    
   188   95   97 1    
   189   95  216 1    
   190   96  217 1    
   191   96  218 1    
   192   96  219 1    
   193   97   98 2    
   194   97   99 am   BACKBONE|DICT|INTERRES
   195   99  100 1    
   196   99  220 1    
   197  100  101 1    
   198  100  102 1    
   199  100  221 1    
   200  101  222 1    
   201  101  223 1    
   202  101  224 1    
   203  102  103 2    
   204  102  104 am   BACKBONE|DICT|INTERRES
   205  104  105 1    
   206  104  225 1    
   207  105  106 1    
   208  105  107 1    
   209  105  226 1    
   210  106  227 1    
   211  106  228 1    
   212  106  229 1    
   213  107  108 2    
   214  107  109 am   BACKBONE|DICT|INTERRES
   215  109  110 1    
   216  109  230 1    
   217  110  111 1    
   218  110  112 1    
   219  110  231 1    
   220  111  232 1    
   221  111  233 1    
   222  111  234 1    
   223  112  113 2    
   224  112  114 am   BACKBONE|DICT|INTERRES
   225  114  115 1    
   226  114  235 1    
   227  115  116 1    
   228  115  117 1    
   229  115  236 1    
   230  116  237 1    
   231  116  238 1    
   232  116  239 1    
   233  117  118 2    
   234  117  119 am   BACKBONE|DICT|INTERRES
   235  119  120 1    
   236  119  240 1    
   237  120  121 1    
   238  120  124 1    
   239  120  241 1    
   240  121  122 am   BACKBONE|DICT|INTERRES
   241  121  123 2    
   242  122  242 1    
   243  122  243 1    
   244  124  125 1    
   245  124  244 1    
   246  124  245 1    
   247  125  126 1    
   248  126  246 1    
   249  126  247 1    
@<TRIPOS>SUBSTRUCTURE
     1 UNK         1 GROUP             0       ****    0 ROOT    
