@<TRIPOS>MOLECULE
3R540
247   249    1
SMALL
USER_CHARGES


@<TRIPOS>ATOM
      1 CA         -6.4264  -13.8634  -49.1369 C.3       0 UNK        -0.1800 
      2 C          -4.9971  -14.3304  -49.3752 C.2       0 UNK         0.5000 
      3 O          -4.2628  -13.6926  -50.1297 O.2       0 UNK        -0.5000 
      4 N          -4.6082  -15.4443  -48.7440 N.am      1 UNK        -0.5000 
      5 CA         -3.2691  -16.0356  -48.8317 C.3       1 UNK         0.1400 
      6 C6         -3.2553  -17.4960  -48.3161 C.3       23 UNK        -0.0398 
      7 S7         -4.1884  -18.5806  -49.4548 S.3       23 UNK        -0.2404 
      8 C8         -2.9099  -19.4077  -50.4672 C.3       23 UNK        -0.0205 
      9 C9         -1.6618  -18.5772  -50.7222 C.ar      23 UNK        -0.0193 
     10 C10        -1.6691  -17.5389  -51.6537 C.ar      23 UNK        -0.1150 
     11 C11        -0.5184  -16.7780  -51.8756 C.ar      23 UNK        -0.0193 
     12 C12         0.6490  -17.0774  -51.1667 C.ar      23 UNK        -0.1150 
     13 C13         0.6763  -18.1183  -50.2329 C.ar      23 UNK        -0.0193 
     14 C14        -0.4888  -18.8624  -50.0213 C.ar      23 UNK        -0.1150 
     15 C15         1.9687  -18.3812  -49.4591 C.3       23 UNK        -0.0205 
     16 S16         2.1793  -20.0795  -48.8179 S.3       23 UNK        -0.2404 
     17 C17         1.3500  -19.9836  -47.1925 C.3       23 UNK        -0.0398 
     18 CA          0.8312  -21.3649  -46.7194 C.3       11 UNK         0.1400 
     19 N           0.8153  -21.4784  -45.2604 N.am      11 UNK        -0.5000 
     20 C           0.7822  -22.6409  -44.5941 C.2       10 UNK         0.5000 
     21 O           0.7936  -23.7447  -45.1403 O.2       10 UNK        -0.5000 
     22 CA          0.6801  -22.5478  -43.0603 C.3       10 UNK         0.1400 
     23 CB          2.0616  -22.2916  -42.4411 C.3       10 UNK        -0.1800 
     24 N          -0.2479  -21.5034  -42.6226 N.am      10 UNK        -0.5000 
     25 C          -1.5696  -21.5319  -42.8465 C.2       9 UNK         0.5000 
     26 O          -2.1441  -22.4592  -43.4134 O.2       9 UNK        -0.5000 
     27 CA         -2.3858  -20.3057  -42.4042 C.3       9 UNK         0.1400 
     28 CB         -2.8259  -20.4546  -40.9406 C.3       9 UNK        -0.1800 
     29 N          -1.6818  -19.0350  -42.5617 N.am      9 UNK        -0.5000 
     30 C          -1.1469  -18.5382  -43.6832 C.2       8 UNK         0.5000 
     31 O          -1.1580  -19.1333  -44.7614 O.2       8 UNK        -0.5000 
     32 CA         -0.4475  -17.1674  -43.5825 C.3       8 UNK         0.1400 
     33 CB         -1.4254  -16.0180  -43.8805 C.3       8 UNK        -0.1800 
     34 N           0.2925  -16.9310  -42.3342 N.am      8 UNK        -0.5000 
     35 C          -0.1541  -16.8505  -41.0705 C.2       7 UNK         0.5000 
     36 O          -1.3460  -16.9182  -40.7675 O.2       7 UNK        -0.5000 
     37 CA          0.8959  -16.6906  -39.9507 C.3       7 UNK         0.1400 
     38 CB          0.5587  -17.5448  -38.7107 C.3       7 UNK        -0.1800 
     39 N           2.2785  -16.9212  -40.3860 N.am      7 UNK        -0.5000 
     40 C           2.8394  -18.0625  -40.8196 C.2       6 UNK         0.5000 
     41 O           2.2335  -19.1324  -40.8953 O.2       6 UNK        -0.5000 
     42 CA          4.3095  -17.9793  -41.2868 C.3       6 UNK         0.1400 
     43 CB          4.5608  -18.8574  -42.5260 C.3       6 UNK        -0.1800 
     44 N           4.6778  -16.6000  -41.6125 N.am      6 UNK        -0.5000 
     45 C           5.4150  -15.7804  -40.8500 C.2       5 UNK         0.5000 
     46 O           5.9638  -16.1288  -39.8046 O.2       5 UNK        -0.5000 
     47 CA          5.5311  -14.3110  -41.3127 C.3       5 UNK         0.1400 
     48 CB          6.8375  -14.0971  -42.0919 C.3       5 UNK        -0.1800 
     49 N           4.4059  -13.8676  -42.1424 N.am      5 UNK        -0.5000 
     50 C           3.1329  -13.7683  -41.7314 C.2       4 UNK         0.5000 
     51 O           2.7826  -13.9495  -40.5659 O.2       4 UNK        -0.5000 
     52 CA          2.0612  -13.4900  -42.8074 C.3       4 UNK         0.1400 
     53 CB          1.6789  -12.0030  -42.8160 C.3       4 UNK        -0.1800 
     54 N           2.4498  -13.8934  -44.1642 N.am      4 UNK        -0.5000 
     55 C           2.7749  -15.1377  -44.5433 C.2       3 UNK         0.5000 
     56 O           2.7680  -16.1040  -43.7775 O.2       3 UNK        -0.5000 
     57 CA          3.2116  -15.2956  -46.0108 C.3       3 UNK         0.1400 
     58 CB          3.6140  -16.7399  -46.3716 C.3       3 UNK        -0.1800 
     59 N           2.2192  -14.7443  -46.9419 N.am      3 UNK        -0.5000 
     60 C           0.9902  -15.2143  -47.2053 C.2       2 UNK         0.5000 
     61 O           0.5346  -16.2548  -46.7294 O.2       2 UNK        -0.5000 
     62 CA          0.1380  -14.3708  -48.1774 C.3       2 UNK         0.1400 
     63 CB          0.9535  -13.8618  -49.3819 C.3       2 UNK        -0.1800 
     64 N          -1.0070  -15.1279  -48.6820 N.am      2 UNK        -0.5000 
     65 C          -2.2168  -15.1685  -48.1113 C.2       1 UNK         0.5000 
     66 O          -2.5171  -14.5616  -47.0799 O.2       1 UNK        -0.5000 
     67 C          -0.5490  -21.7149  -47.3082 C.2       11 UNK         0.5000 
     68 O          -0.6173  -22.4330  -48.3046 O.2       11 UNK        -0.5000 
     69 N          -1.6250  -21.2559  -46.6507 N.am      12 UNK        -0.5000 
     70 CA         -3.0094  -21.5828  -46.9943 C.3       12 UNK         0.1400 
     71 CB         -3.9760  -20.7878  -46.1069 C.3       12 UNK        -0.1800 
     72 C          -3.3036  -23.0908  -46.9176 C.2       12 UNK         0.5000 
     73 O          -3.9267  -23.6253  -47.8328 O.2       12 UNK        -0.5000 
     74 N          -2.8163  -23.7595  -45.8638 N.am      13 UNK        -0.5000 
     75 CA         -2.9245  -25.2075  -45.6797 C.3       13 UNK         0.1400 
     76 CB         -2.4228  -25.5892  -44.2790 C.3       13 UNK        -0.1800 
     77 C          -2.1769  -26.0093  -46.7606 C.2       13 UNK         0.5000 
     78 O          -2.7010  -27.0184  -47.2328 O.2       13 UNK        -0.5000 
     79 N          -0.9847  -25.5358  -47.1502 N.am      14 UNK        -0.5000 
     80 CA         -0.1704  -26.1259  -48.2139 C.3       14 UNK         0.1400 
     81 CB          1.2433  -25.5255  -48.1671 C.3       14 UNK        -0.1800 
     82 C          -0.7976  -25.9472  -49.6100 C.2       14 UNK         0.5000 
     83 O          -0.7842  -26.8837  -50.4096 O.2       14 UNK        -0.5000 
     84 N          -1.3442  -24.7532  -49.8703 N.am      15 UNK        -0.5000 
     85 CA         -1.9988  -24.3832  -51.1260 C.3       15 UNK         0.1400 
     86 CB         -2.1226  -22.8564  -51.1663 C.3       15 UNK        -0.1800 
     87 C          -3.3972  -25.0018  -51.3099 C.2       15 UNK         0.5000 
     88 O          -3.8658  -25.0907  -52.4450 O.2       15 UNK        -0.5000 
     89 N          -4.0422  -25.3733  -50.1942 N.am      16 UNK        -0.5000 
     90 CA         -5.4611  -25.7176  -50.0592 C.3       16 UNK         0.1400 
     91 CB         -5.8369  -26.9608  -50.8931 C.3       16 UNK        -0.1800 
     92 C          -6.3571  -24.4886  -50.3277 C.2       16 UNK         0.5000 
     93 O          -7.3253  -24.5698  -51.0862 O.2       16 UNK        -0.5000 
     94 N          -5.9942  -23.3710  -49.6809 N.am      17 UNK        -0.5000 
     95 CA         -6.6010  -22.0417  -49.7492 C.3       17 UNK         0.1400 
     96 CB         -7.9983  -22.0489  -49.0899 C.3       17 UNK        -0.1800 
     97 C          -6.5671  -21.4674  -51.1806 C.2       17 UNK         0.5000 
     98 O          -5.4790  -21.2941  -51.7281 O.2       17 UNK        -0.5000 
     99 N          -7.7406  -21.1456  -51.7428 N.am      18 UNK        -0.5000 
    100 CA        -8.0091  -20.6317  -53.0944 C.3       18 UNK         0.1400 
    101 CB        -7.4850  -21.6005  -54.1727 C.3       18 UNK        -0.1800 
    102 C         -7.5381  -19.1885  -53.3730 C.2       18 UNK         0.5000 
    103 O         -8.0437  -18.5793  -54.3157 O.2       18 UNK        -0.5000 
    104 N         -6.5939  -18.6620  -52.5796 N.am      19 UNK        -0.5000 
    105 CA        -6.0216  -17.3043  -52.5826 C.3       19 UNK         0.1400 
    106 CB        -7.1023  -16.2410  -52.3121 C.3       19 UNK        -0.1800 
    107 C         -5.1770  -16.9376  -53.8211 C.2       19 UNK         0.5000 
    108 O         -4.2446  -16.1470  -53.6917 O.2       19 UNK        -0.5000 
    109 N         -5.4895  -17.5174  -54.9842 N.am      20 UNK        -0.5000 
    110 CA        -4.7264  -17.3869  -56.2261 C.3       20 UNK         0.1400 
    111 CB        -5.6983  -17.5072  -57.4102 C.3       20 UNK        -0.1800 
    112 C         -3.6082  -18.4413  -56.3436 C.2       20 UNK         0.5000 
    113 O         -2.7131  -18.2849  -57.1755 O.2       20 UNK        -0.5000 
    114 N         -3.6734  -19.5014  -55.5259 N.am      21 UNK        -0.5000 
    115 CA        -2.7489  -20.6372  -55.5108 C.3       21 UNK         0.1400 
    116 CB        -3.4861  -21.8569  -54.9294 C.3       21 UNK        -0.1800 
    117 C         -1.4365  -20.3169  -54.7633 C.2       21 UNK         0.5000 
    118 O         -1.0732  -21.0148  -53.8169 O.2       21 UNK        -0.5000 
    119 N         -0.7525  -19.2543  -55.1982 N.am      22 UNK        -0.5000 
    120 CA         0.4766  -18.7282  -54.5801 C.3       22 UNK         0.1400 
    121 C          1.7702  -19.5361  -54.8955 C.2       22 UNK         0.5000 
    122 N          1.7426  -20.5257  -55.7800 N.am      22 UNK        -0.7600 
    123 O          2.8225  -19.2600  -54.3262 O.2       22 UNK        -0.5000 
    124 C124        0.6830  -17.2196  -54.8858 C.3       23 UNK        -0.0398 
    125 S125       -0.8002  -16.1962  -54.5838 S.3       23 UNK        -0.2404 
    126 C126       -0.5391  -15.6289  -52.8733 C.3       23 UNK        -0.0205 
    127 H127       -6.9768  -14.5522  -48.4955 H         1 UNK         0.0600 
    128 H128       -6.9591  -13.7842  -50.0845 H         1 UNK         0.0600 
    129 H129       -6.4259  -12.8823  -48.6621 H         1 UNK         0.0600 
    130 H130       -5.2523  -15.9138  -48.1248 H         1 UNK         0.3000 
    131 H131       -3.0024  -16.0413  -49.8890 H         1 UNK         0.0600 
    132 H132       -2.2417  -17.8758  -48.1853 H         1 UNK         0.0800 
    133 H133       -3.7127  -17.5520  -47.3273 H         1 UNK         0.0800 
    134 H134       -2.6284  -20.3303  -49.9677 H         1 UNK         0.0800 
    135 H135       -3.3449  -19.7048  -51.4223 H         1 UNK         0.0800 
    136 H136       -2.5722  -17.3190  -52.2018 H         1 UNK         0.1150 
    137 H137        1.5437  -16.4970  -51.3430 H         1 UNK         0.1150 
    138 H138       -0.4975  -19.6695  -49.3071 H         1 UNK         0.1150 
    139 H139        2.8200  -18.1728  -50.1088 H         1 UNK         0.0800 
    140 H140        2.0324  -17.6723  -48.6350 H         1 UNK         0.0800 
    141 H141        2.0994  -19.6177  -46.4907 H         1 UNK         0.0800 
    142 H142        0.5588  -19.2306  -47.1989 H         1 UNK         0.0800 
    143 H143        1.5309  -22.1233  -47.0789 H         1 UNK         0.0600 
    144 H144        0.7224  -20.6181  -44.7397 H         1 UNK         0.3000 
    145 H145        0.3109  -23.5070  -42.6909 H         1 UNK         0.0600 
    146 H146        2.0112  -22.2817  -41.3522 H         1 UNK         0.0600 
    147 H147        2.7696  -23.0701  -42.7280 H         1 UNK         0.0600 
    148 H148        2.4743  -21.3355  -42.7643 H         1 UNK         0.0600 
    149 H149        0.1495  -20.7048  -42.1477 H         1 UNK         0.3000 
    150 H150       -3.2812  -20.2587  -43.0248 H         1 UNK         0.0600 
    151 H151       -3.3749  -21.3850  -40.7892 H         1 UNK         0.0600 
    152 H152       -3.4830  -19.6377  -40.6416 H         1 UNK         0.0600 
    153 H153       -1.9713  -20.4615  -40.2627 H         1 UNK         0.0600 
    154 H154       -1.6430  -18.4343  -41.7421 H         1 UNK         0.3000 
    155 H155        0.3113  -17.1671  -44.3637 H         1 UNK         0.0600 
    156 H156       -0.9045  -15.0615  -43.9239 H         1 UNK         0.0600 
    157 H157       -2.2120  -15.9429  -43.1296 H         1 UNK         0.0600 
    158 H158       -1.9086  -16.1650  -44.8473 H         1 UNK         0.0600 
    159 H159        1.2944  -16.8590  -42.4708 H         1 UNK         0.3000 
    160 H160        0.8475  -15.6442  -39.6474 H         1 UNK         0.0600 
    161 H161        0.4925  -18.6058  -38.9529 H         1 UNK         0.0600 
    162 H162       -0.3995  -17.2504  -38.2810 H         1 UNK         0.0600 
    163 H163        1.3113  -17.4238  -37.9316 H         1 UNK         0.0600 
    164 H164        2.8555  -16.0888  -40.3855 H         1 UNK         0.3000 
    165 H165        4.9292  -18.3563  -40.4711 H         1 UNK         0.0600 
    166 H166        3.8945  -18.5951  -43.3488 H         1 UNK         0.0600 
    167 H167        5.5865  -18.7546  -42.8803 H         1 UNK         0.0600 
    168 H168        4.4044  -19.9117  -42.2969 H         1 UNK         0.0600 
    169 H169        4.2267  -16.2252  -42.4409 H         1 UNK         0.3000 
    170 H170        5.5572  -13.6853  -40.4181 H         1 UNK         0.0600 
    171 H171        7.7016  -14.3901  -41.4940 H         1 UNK         0.0600 
    172 H172        6.8593  -14.6853  -43.0103 H         1 UNK         0.0600 
    173 H173        6.9706  -13.0488  -42.3599 H         1 UNK         0.0600 
    174 H174        4.6067  -13.6895  -43.1150 H         1 UNK         0.3000 
    175 H175        1.1753  -14.0673  -42.5354 H         1 UNK         0.0600 
    176 H176        2.5187  -11.3734  -43.1127 H         1 UNK         0.0600 
    177 H177        0.8545  -11.8114  -43.5031 H         1 UNK         0.0600 
    178 H178        1.3568  -11.6761  -41.8263 H         1 UNK         0.0600 
    179 H179        2.4780  -13.1583  -44.8555 H         1 UNK         0.3000 
    180 H180        4.1063  -14.6818  -46.1250 H         1 UNK         0.0600 
    181 H181        2.7918  -17.4377  -46.2231 H         1 UNK         0.0600 
    182 H182        4.4400  -17.0803  -45.7461 H         1 UNK         0.0600 
    183 H183        3.9420  -16.8128  -47.4082 H         1 UNK         0.0600 
    184 H184        2.4976  -13.8901  -47.4039 H         1 UNK         0.3000 
    185 H185       -0.2227  -13.5015  -47.6239 H         1 UNK         0.0600 
    186 H186        0.3089  -13.3978  -50.1291 H         1 UNK         0.0600 
    187 H187        1.6791  -13.1061  -49.0800 H         1 UNK         0.0600 
    188 H188        1.5028  -14.6668  -49.8689 H         1 UNK         0.0600 
    189 H189       -0.8287  -15.7063  -49.4907 H         1 UNK         0.3000 
    190 H190       -1.4841  -20.6320  -45.8599 H         1 UNK         0.3000 
    191 H191       -3.1738  -21.2717  -48.0250 H         1 UNK         0.0600 
    192 H192       -3.7520  -19.7216  -46.1302 H         1 UNK         0.0600 
    193 H193       -5.0046  -20.9131  -46.4473 H         1 UNK         0.0600 
    194 H194       -3.9335  -21.1184  -45.0703 H         1 UNK         0.0600 
    195 H195       -2.3709  -23.2398  -45.1118 H         1 UNK         0.3000 
    196 H196       -3.9819  -25.4724  -45.7448 H         1 UNK         0.0600 
    197 H197       -2.4879  -26.6661  -44.1188 H         1 UNK         0.0600 
    198 H198       -3.0197  -25.1093  -43.5034 H         1 UNK         0.0600 
    199 H199       -1.3831  -25.2955  -44.1302 H         1 UNK         0.0600 
    200 H200       -0.6136  -24.7117  -46.6941 H         1 UNK         0.3000 
    201 H201       -0.0877  -27.1977  -48.0211 H         1 UNK         0.0600 
    202 H202        1.7150  -25.7037  -47.2005 H         1 UNK         0.0600 
    203 H203        1.2318  -24.4488  -48.3386 H         1 UNK         0.0600 
    204 H204        1.8825  -25.9725  -48.9293 H         1 UNK         0.0600 
    205 H205       -1.2476  -24.0129  -49.1795 H         1 UNK         0.3000 
    206 H206       -1.3710  -24.7057  -51.9590 H         1 UNK         0.0600 
    207 H207       -1.1503  -22.3691  -51.0883 H         1 UNK         0.0600 
    208 H208       -2.5818  -22.5220  -52.0959 H         1 UNK         0.0600 
    209 H209       -2.7504  -22.5036  -50.3486 H         1 UNK         0.0600 
    210 H210       -3.5631  -25.2030  -49.3184 H         1 UNK         0.3000 
    211 H211       -5.6066  -25.9766  -49.0094 H         1 UNK         0.0600 
    212 H212       -5.8038  -26.7638  -51.9646 H         1 UNK         0.0600 
    213 H213       -6.8490  -27.2913  -50.6574 H         1 UNK         0.0600 
    214 H214       -5.1656  -27.7935  -50.6829 H         1 UNK         0.0600 
    215 H215       -5.1752  -23.4366  -49.0783 H         1 UNK         0.3000 
    216 H216       -5.9624  -21.3890  -49.1519 H         1 UNK         0.0600 
    217 H217       -7.9381  -22.4094  -48.0628 H         1 UNK         0.0600 
    218 H218       -8.7032  -22.6897  -49.6206 H         1 UNK         0.0600 
    219 H219       -8.4212  -21.0443  -49.0484 H         1 UNK         0.0600 
    220 H220       -8.5676  -21.3053  -51.1848 H         1 UNK         0.3000 
    221 H221       -9.0963  -20.6098  -53.1822 H         1 UNK         0.0600 
    222 H222       -6.3969  -21.6520  -54.1796 H         1 UNK         0.0600 
    223 H223       -7.8661  -22.6095  -54.0145 H         1 UNK         0.0600 
    224 H224       -7.8007  -21.2860  -55.1682 H         1 UNK         0.0600 
    225 H225       -6.1826  -19.2964  -51.9054 H         1 UNK         0.3000 
    226 H226       -5.3320  -17.2755  -51.7396 H         1 UNK         0.0600 
    227 H227       -6.6557  -15.2501  -52.2202 H         1 UNK         0.0600 
    228 H228       -7.8378  -16.1917  -53.1151 H         1 UNK         0.0600 
    229 H229       -7.6313  -16.4454  -51.3812 H         1 UNK         0.0600 
    230 H230       -6.3347  -18.0796  -55.0119 H         1 UNK         0.3000 
    231 H231       -4.2572  -16.4016  -56.2668 H         1 UNK         0.0600 
    232 H232       -5.1749  -17.3924  -58.3603 H         1 UNK         0.0600 
    233 H233       -6.4669  -16.7351  -57.3683 H         1 UNK         0.0600 
    234 H234       -6.1977  -18.4769  -57.4241 H         1 UNK         0.0600 
    235 H235       -4.4158  -19.5229  -54.8436 H         1 UNK         0.3000 
    236 H236       -2.4753  -20.8803  -56.5396 H         1 UNK         0.0600 
    237 H237       -3.8407  -21.6654  -53.9164 H         1 UNK         0.0600 
    238 H238       -2.8370  -22.7327  -54.8914 H         1 UNK         0.0600 
    239 H239       -4.3484  -22.1230  -55.5408 H         1 UNK         0.0600 
    240 H240       -1.1386  -18.7201  -55.9690 H         1 UNK         0.3000 
    241 H241        0.3490  -18.8234  -53.5013 H         1 UNK         0.0600 
    242 H242        2.5854  -21.0433  -55.9742 H         1 UNK         0.3800 
    243 H243        0.8856  -20.7655  -56.2515 H         1 UNK         0.3800 
    244 H244        0.9621  -17.0868  -55.9323 H         1 UNK         0.0800 
    245 H245        1.5122  -16.8197  -54.2996 H         1 UNK         0.0800 
    246 H246       -1.3472  -14.9462  -52.6061 H         1 UNK         0.0800 
    247 H247        0.3829  -15.0476  -52.8229 H         1 UNK         0.0800 
@<TRIPOS>BOND
     1    1    2 1    
     2    1  127 1    
     3    1  128 1    
     4    1  129 1    
     5    2    3 2    
     6    2    4 am   BACKBONE|DICT|INTERRES
     7    4    5 1    
     8    4  130 1    
     9    5    6 1    
    10    5   65 1    
    11    5  131 1    
    12    6    7 1    
    13    6  132 1    
    14    6  133 1    
    15    7    8 1    
    16    8    9 1    
    17    8  134 1    
    18    8  135 1    
    19    9   10 ar   
    20    9   14 ar   
    21   10   11 ar   
    22   10  136 1    
    23   11   12 ar   
    24   11  126 1    
    25   12   13 ar   
    26   12  137 1    
    27   13   14 ar   
    28   13   15 1    
    29   14  138 1    
    30   15   16 1    
    31   15  139 1    
    32   15  140 1    
    33   16   17 1    
    34   17   18 1    
    35   17  141 1    
    36   17  142 1    
    37   18   19 1    
    38   18   67 1    
    39   18  143 1    
    40   19   20 am   BACKBONE|DICT|INTERRES
    41   19  144 1    
    42   20   21 2    
    43   20   22 1    
    44   22   23 1    
    45   22   24 1    
    46   22  145 1    
    47   23  146 1    
    48   23  147 1    
    49   23  148 1    
    50   24   25 am   BACKBONE|DICT|INTERRES
    51   24  149 1    
    52   25   26 2    
    53   25   27 1    
    54   27   28 1    
    55   27   29 1    
    56   27  150 1    
    57   28  151 1    
    58   28  152 1    
    59   28  153 1    
    60   29   30 am   BACKBONE|DICT|INTERRES
    61   29  154 1    
    62   30   31 2    
    63   30   32 1    
    64   32   33 1    
    65   32   34 1    
    66   32  155 1    
    67   33  156 1    
    68   33  157 1    
    69   33  158 1    
    70   34   35 am   BACKBONE|DICT|INTERRES
    71   34  159 1    
    72   35   36 2    
    73   35   37 1    
    74   37   38 1    
    75   37   39 1    
    76   37  160 1    
    77   38  161 1    
    78   38  162 1    
    79   38  163 1    
    80   39   40 am   BACKBONE|DICT|INTERRES
    81   39  164 1    
    82   40   41 2    
    83   40   42 1    
    84   42   43 1    
    85   42   44 1    
    86   42  165 1    
    87   43  166 1    
    88   43  167 1    
    89   43  168 1    
    90   44   45 am   BACKBONE|DICT|INTERRES
    91   44  169 1    
    92   45   46 2    
    93   45   47 1    
    94   47   48 1    
    95   47   49 1    
    96   47  170 1    
    97   48  171 1    
    98   48  172 1    
    99   48  173 1    
   100   49   50 am   BACKBONE|DICT|INTERRES
   101   49  174 1    
   102   50   51 2    
   103   50   52 1    
   104   52   53 1    
   105   52   54 1    
   106   52  175 1    
   107   53  176 1    
   108   53  177 1    
   109   53  178 1    
   110   54   55 am   BACKBONE|DICT|INTERRES
   111   54  179 1    
   112   55   56 2    
   113   55   57 1    
   114   57   58 1    
   115   57   59 1    
   116   57  180 1    
   117   58  181 1    
   118   58  182 1    
   119   58  183 1    
   120   59   60 am   BACKBONE|DICT|INTERRES
   121   59  184 1    
   122   60   61 2    
   123   60   62 1    
   124   62   63 1    
   125   62   64 1    
   126   62  185 1    
   127   63  186 1    
   128   63  187 1    
   129   63  188 1    
   130   64   65 am   BACKBONE|DICT|INTERRES
   131   64  189 1    
   132   65   66 2    
   133   67   68 2    
   134   67   69 am   BACKBONE|DICT|INTERRES
   135   69   70 1    
   136   69  190 1    
   137   70   71 1    
   138   70   72 1    
   139   70  191 1    
   140   71  192 1    
   141   71  193 1    
   142   71  194 1    
   143   72   73 2    
   144   72   74 am   BACKBONE|DICT|INTERRES
   145   74   75 1    
   146   74  195 1    
   147   75   76 1    
   148   75   77 1    
   149   75  196 1    
   150   76  197 1    
   151   76  198 1    
   152   76  199 1    
   153   77   78 2    
   154   77   79 am   BACKBONE|DICT|INTERRES
   155   79   80 1    
   156   79  200 1    
   157   80   81 1    
   158   80   82 1    
   159   80  201 1    
   160   81  202 1    
   161   81  203 1    
   162   81  204 1    
   163   82   83 2    
   164   82   84 am   BACKBONE|DICT|INTERRES
   165   84   85 1    
   166   84  205 1    
   167   85   86 1    
   168   85   87 1    
   169   85  206 1    
   170   86  207 1    
   171   86  208 1    
   172   86  209 1    
   173   87   88 2    
   174   87   89 am   BACKBONE|DICT|INTERRES
   175   89   90 1    
   176   89  210 1    
   177   90   91 1    
   178   90   92 1    
   179   90  211 1    
   180   91  212 1    
   181   91  213 1    
   182   91  214 1    
   183   92   93 2    
   184   92   94 am   BACKBONE|DICT|INTERRES
   185   94   95 1    
   186   94  215 1    
   187   95   96 1    
   188   95   97 1    
   189   95  216 1    
   190   96  217 1    
   191   96  218 1    
   192   96  219 1    
   193   97   98 2    
   194   97   99 am   BACKBONE|DICT|INTERRES
   195   99  100 1    
   196   99  220 1    
   197  100  101 1    
   198  100  102 1    
   199  100  221 1    
   200  101  222 1    
   201  101  223 1    
   202  101  224 1    
   203  102  103 2    
   204  102  104 am   BACKBONE|DICT|INTERRES
   205  104  105 1    
   206  104  225 1    
   207  105  106 1    
   208  105  107 1    
   209  105  226 1    
   210  106  227 1    
   211  106  228 1    
   212  106  229 1    
   213  107  108 2    
   214  107  109 am   BACKBONE|DICT|INTERRES
   215  109  110 1    
   216  109  230 1    
   217  110  111 1    
   218  110  112 1    
   219  110  231 1    
   220  111  232 1    
   221  111  233 1    
   222  111  234 1    
   223  112  113 2    
   224  112  114 am   BACKBONE|DICT|INTERRES
   225  114  115 1    
   226  114  235 1    
   227  115  116 1    
   228  115  117 1    
   229  115  236 1    
   230  116  237 1    
   231  116  238 1    
   232  116  239 1    
   233  117  118 2    
   234  117  119 am   BACKBONE|DICT|INTERRES
   235  119  120 1    
   236  119  240 1    
   237  120  121 1    
   238  120  124 1    
   239  120  241 1    
   240  121  122 am   BACKBONE|DICT|INTERRES
   241  121  123 2    
   242  122  242 1    
   243  122  243 1    
   244  124  125 1    
   245  124  244 1    
   246  124  245 1    
   247  125  126 1    
   248  126  246 1    
   249  126  247 1    
@<TRIPOS>SUBSTRUCTURE
     1 UNK         1 GROUP             0       ****    0 ROOT    
