@<TRIPOS>MOLECULE
3R540
247   249    1
SMALL
USER_CHARGES


@<TRIPOS>ATOM
      1 CA          7.9610  -15.5811  -45.5763 C.3       0 UNK        -0.1800 
      2 C           6.8076  -14.6202  -45.3307 C.2       0 UNK         0.5000 
      3 O           6.2794  -14.5662  -44.2205 O.2       0 UNK        -0.5000 
      4 N           6.4293  -13.8401  -46.3526 N.am      1 UNK        -0.5000 
      5 CA          5.2755  -12.9247  -46.3590 C.3       1 UNK         0.1400 
      6 C6          4.8850  -12.4687  -47.7877 C.3       23 UNK        -0.0398 
      7 S7          4.6172  -13.8555  -48.9438 S.3       23 UNK        -0.2404 
      8 C8          2.9774  -14.4435  -48.4143 C.3       23 UNK        -0.0205 
      9 C9          2.4991  -15.6050  -49.2702 C.ar      23 UNK        -0.0193 
     10 C10         1.4049  -15.4477  -50.1254 C.ar      23 UNK        -0.1150 
     11 C11         0.9615  -16.5144  -50.9119 C.ar      23 UNK        -0.0193 
     12 C12         1.6271  -17.7411  -50.8493 C.ar      23 UNK        -0.1150 
     13 C13         2.7210  -17.9113  -49.9963 C.ar      23 UNK        -0.0193 
     14 C14         3.1466  -16.8426  -49.2023 C.ar      23 UNK        -0.1150 
     15 C15         3.4549  -19.2426  -49.9472 C.3       23 UNK        -0.0205 
     16 S16         2.9352  -20.2579  -48.5313 S.3       23 UNK        -0.2404 
     17 C17         1.2083  -20.6367  -48.9784 C.3       23 UNK        -0.0398 
     18 CA          0.6175  -21.7474  -48.0817 C.3       11 UNK         0.1400 
     19 N           0.4386  -21.3161  -46.6916 N.am      11 UNK        -0.5000 
     20 C           0.1446  -22.1402  -45.6768 C.2       10 UNK         0.5000 
     21 O           0.0409  -23.3599  -45.8001 O.2       10 UNK        -0.5000 
     22 CA         -0.1351  -21.4976  -44.3064 C.3       10 UNK         0.1400 
     23 CB          1.1733  -21.1622  -43.5757 C.3       10 UNK        -0.1800 
     24 N          -0.9766  -20.3042  -44.4062 N.am      10 UNK        -0.5000 
     25 C          -2.2414  -20.3079  -44.8516 C.2       9 UNK         0.5000 
     26 O          -2.8456  -21.3294  -45.1755 O.2       9 UNK        -0.5000 
     27 CA         -2.9375  -18.9443  -45.0066 C.3       9 UNK         0.1400 
     28 CB         -3.5007  -18.4608  -43.6622 C.3       9 UNK        -0.1800 
     29 N          -2.0582  -17.9210  -45.5702 N.am      9 UNK        -0.5000 
     30 C          -1.5132  -17.9707  -46.7945 C.2       8 UNK         0.5000 
     31 O          -1.7322  -18.8711  -47.6050 O.2       8 UNK        -0.5000 
     32 CA         -0.5049  -16.8600  -47.1422 C.3       8 UNK         0.1400 
     33 CB         -1.2206  -15.5533  -47.5170 C.3       8 UNK        -0.1800 
     34 N           0.4342  -16.6062  -46.0482 N.am      8 UNK        -0.5000 
     35 C           1.3207  -17.5033  -45.5947 C.2       7 UNK         0.5000 
     36 O           1.4522  -18.6310  -46.0653 O.2       7 UNK        -0.5000 
     37 CA          2.1610  -17.0920  -44.3737 C.3       7 UNK         0.1400 
     38 CB          3.3642  -16.2412  -44.7985 C.3       7 UNK        -0.1800 
     39 N           1.3797  -16.3713  -43.3674 N.am      7 UNK        -0.5000 
     40 C           0.3790  -16.9194  -42.6640 C.2       6 UNK         0.5000 
     41 O           0.0318  -18.0951  -42.7734 O.2       6 UNK        -0.5000 
     42 CA         -0.3943  -15.9905  -41.7128 C.3       6 UNK         0.1400 
     43 CB          0.4069  -15.7303  -40.4284 C.3       6 UNK        -0.1800 
     44 N          -0.7548  -14.7132  -42.3270 N.am      6 UNK        -0.5000 
     45 C          -1.5327  -14.5528  -43.4044 C.2       5 UNK         0.5000 
     46 O          -2.0335  -15.4906  -44.0232 O.2       5 UNK        -0.5000 
     47 CA         -1.7722  -13.1139  -43.9058 C.3       5 UNK         0.1400 
     48 CB         -2.9353  -12.4443  -43.1500 C.3       5 UNK        -0.1800 
     49 N          -0.5673  -12.2721  -43.9168 N.am      5 UNK        -0.5000 
     50 C           0.1483  -11.8173  -42.8796 C.2       4 UNK         0.5000 
     51 O          -0.1570  -11.9832  -41.6960 O.2       4 UNK        -0.5000 
     52 CA          1.4544  -11.0861  -43.2342 C.3       4 UNK         0.1400 
     53 CB          1.2836   -9.5667  -43.0906 C.3       4 UNK        -0.1800 
     54 N           2.5862  -11.5193  -42.4146 N.am      4 UNK        -0.5000 
     55 C           3.0252  -12.7774  -42.2713 C.2       3 UNK         0.5000 
     56 O           2.4914  -13.7585  -42.7947 O.2       3 UNK        -0.5000 
     57 CA          4.3301  -12.9357  -41.4670 C.3       3 UNK         0.1400 
     58 CB          4.6214  -14.3974  -41.0851 C.3       3 UNK        -0.1800 
     59 N           5.4373  -12.4198  -42.2694 N.am      3 UNK        -0.5000 
     60 C           5.7760  -11.1244  -42.3661 C.2       2 UNK         0.5000 
     61 O           5.3245  -10.2475  -41.6281 O.2       2 UNK        -0.5000 
     62 CA          6.7129  -10.7296  -43.5281 C.3       2 UNK         0.1400 
     63 CB          8.1814  -10.7772  -43.0811 C.3       2 UNK        -0.1800 
     64 N           6.5381  -11.5903  -44.7003 N.am      2 UNK        -0.5000 
     65 C           5.4012  -11.7158  -45.4017 C.2       1 UNK         0.5000 
     66 O           4.4474  -10.9463  -45.2805 O.2       1 UNK        -0.5000 
     67 C          -0.6858  -22.3130  -48.6828 C.2       11 UNK         0.5000 
     68 O          -0.6371  -23.3439  -49.3534 O.2       11 UNK        -0.5000 
     69 N          -1.8297  -21.6709  -48.4040 N.am      12 UNK        -0.5000 
     70 CA         -3.1556  -22.1462  -48.8079 C.3       12 UNK         0.1400 
     71 CB         -4.2083  -21.0684  -48.5119 C.3       12 UNK        -0.1800 
     72 C          -3.5345  -23.4863  -48.1478 C.2       12 UNK         0.5000 
     73 O          -4.0827  -24.3597  -48.8218 O.2       12 UNK        -0.5000 
     74 N          -3.1996  -23.6409  -46.8589 N.am      13 UNK        -0.5000 
     75 CA         -3.3676  -24.8773  -46.0955 C.3       13 UNK         0.1400 
     76 CB         -3.1300  -24.6055  -44.6028 C.3       13 UNK        -0.1800 
     77 C          -2.4583  -26.0119  -46.6003 C.2       13 UNK         0.5000 
     78 O          -2.9233  -27.1447  -46.7209 O.2       13 UNK        -0.5000 
     79 N          -1.2003  -25.6905  -46.9367 N.am      14 UNK        -0.5000 
     80 CA         -0.2384  -26.6143  -47.5481 C.3       14 UNK         0.1400 
     81 CB          1.1495  -25.9586  -47.5980 C.3       14 UNK        -0.1800 
     82 C          -0.6715  -27.0862  -48.9504 C.2       14 UNK         0.5000 
     83 O          -0.4459  -28.2445  -49.3011 O.2       14 UNK        -0.5000 
     84 N          -1.3351  -26.1970  -49.7011 N.am      15 UNK        -0.5000 
     85 CA         -1.9908  -26.4812  -50.9793 C.3       15 UNK         0.1400 
     86 CB         -2.1453  -25.1636  -51.7572 C.3       15 UNK        -0.1800 
     87 C          -3.3547  -27.1920  -50.8285 C.2       15 UNK         0.5000 
     88 O          -4.0039  -27.4546  -51.8412 O.2       15 UNK        -0.5000 
     89 N          -3.7830  -27.4676  -49.5859 N.am      16 UNK        -0.5000 
     90 CA         -5.0228  -28.1439  -49.1868 C.3       16 UNK         0.1400 
     91 CB         -5.0001  -29.6187  -49.6399 C.3       16 UNK        -0.1800 
     92 C          -6.3071  -27.4079  -49.6236 C.2       16 UNK         0.5000 
     93 O          -7.3502  -28.0459  -49.7782 O.2       16 UNK        -0.5000 
     94 N          -6.2068  -26.0832  -49.8211 N.am      17 UNK        -0.5000 
     95 CA         -7.2455  -25.1798  -50.3274 C.3       17 UNK         0.1400 
     96 CB         -8.3356  -24.9620  -49.2584 C.3       17 UNK        -0.1800 
     97 C          -7.8166  -25.6145  -51.6975 C.2       17 UNK         0.5000 
     98 O          -9.0165  -25.4736  -51.9411 O.2       17 UNK        -0.5000 
     99 N          -6.9440  -26.1483  -52.5677 N.am      18 UNK        -0.5000 
    100 CA        -7.2851  -26.6773  -53.8936 C.3       18 UNK         0.1400 
    101 CB        -6.0643  -27.4133  -54.4661 C.3       18 UNK        -0.1800 
    102 C         -7.7946  -25.6188  -54.8937 C.2       18 UNK         0.5000 
    103 O         -8.4617  -25.9778  -55.8653 O.2       18 UNK        -0.5000 
    104 N         -7.4875  -24.3443  -54.6356 N.am      19 UNK        -0.5000 
    105 CA        -8.0100  -23.1810  -55.3392 C.3       19 UNK         0.1400 
    106 CB        -6.9479  -22.6574  -56.3201 C.3       19 UNK        -0.1800 
    107 C         -8.3667  -22.1134  -54.2963 C.2       19 UNK         0.5000 
    108 O         -7.7879  -22.1038  -53.2056 O.2       19 UNK        -0.5000 
    109 N         -9.3013  -21.2247  -54.6553 N.am      20 UNK        -0.5000 
    110 CA        -9.7027  -20.0796  -53.8334 C.3       20 UNK         0.1400 
    111 CB       -11.0616  -19.5578  -54.3256 C.3       20 UNK        -0.1800 
    112 C         -8.6538  -18.9504  -53.8432 C.2       20 UNK         0.5000 
    113 O         -8.5502  -18.2070  -52.8665 O.2       20 UNK        -0.5000 
    114 N         -7.8969  -18.8451  -54.9435 N.am      21 UNK        -0.5000 
    115 CA        -6.7691  -17.9304  -55.0955 C.3       21 UNK         0.1400 
    116 CB        -6.4608  -17.7672  -56.5921 C.3       21 UNK        -0.1800 
    117 C         -5.5315  -18.4541  -54.3456 C.2       21 UNK         0.5000 
    118 O         -5.3112  -19.6667  -54.2946 O.2       21 UNK        -0.5000 
    119 N         -4.7358  -17.5265  -53.8042 N.am      22 UNK        -0.5000 
    120 CA        -3.4496  -17.8058  -53.1520 C.3       22 UNK         0.1400 
    121 C         -2.3741  -18.2828  -54.1703 C.2       22 UNK         0.5000 
    122 N         -1.6087  -19.3154  -53.8443 N.am      22 UNK        -0.7600 
    123 O         -2.2073  -17.6987  -55.2390 O.2       22 UNK        -0.5000 
    124 C124       -2.9734  -16.5665  -52.3536 C.3       23 UNK        -0.0398 
    125 S125       -1.7516  -16.9736  -51.0627 S.3       23 UNK        -0.2404 
    126 C126       -0.2316  -16.3420  -51.8346 C.3       23 UNK        -0.0205 
    127 H127        8.3398  -15.5078  -46.5960 H         1 UNK         0.0600 
    128 H128        8.7808  -15.3661  -44.8910 H         1 UNK         0.0600 
    129 H129        7.6338  -16.6069  -45.4075 H         1 UNK         0.0600 
    130 H130        6.9112  -13.9243  -47.2367 H         1 UNK         0.3000 
    131 H131        4.4336  -13.4952  -45.9650 H         1 UNK         0.0600 
    132 H132        3.9781  -11.8613  -47.7688 H         1 UNK         0.0800 
    133 H133        5.6663  -11.8313  -48.2051 H         1 UNK         0.0800 
    134 H134        3.0207  -14.7700  -47.3768 H         1 UNK         0.0800 
    135 H135        2.2659  -13.6171  -48.4523 H         1 UNK         0.0800 
    136 H136        0.8940  -14.4965  -50.1769 H         1 UNK         0.1150 
    137 H137        1.2882  -18.5642  -51.4627 H         1 UNK         0.1150 
    138 H138        3.9906  -16.9701  -48.5390 H         1 UNK         0.1150 
    139 H139        3.3044  -19.8008  -50.8725 H         1 UNK         0.0800 
    140 H140        4.5283  -19.0619  -49.8741 H         1 UNK         0.0800 
    141 H141        1.1935  -20.9394  -50.0272 H         1 UNK         0.0800 
    142 H142        0.6115  -19.7256  -48.9067 H         1 UNK         0.0800 
    143 H143        1.3315  -22.5738  -48.0695 H         1 UNK         0.0600 
    144 H144        0.5738  -20.3266  -46.5018 H         1 UNK         0.3000 
    145 H145       -0.6753  -22.2303  -43.7035 H         1 UNK         0.0600 
    146 H146        0.9779  -20.7691  -42.5780 H         1 UNK         0.0600 
    147 H147        1.7929  -22.0522  -43.4595 H         1 UNK         0.0600 
    148 H148        1.7620  -20.4225  -44.1172 H         1 UNK         0.0600 
    149 H149       -0.5640  -19.4270  -44.1037 H         1 UNK         0.3000 
    150 H150       -3.7740  -19.0762  -45.6956 H         1 UNK         0.0600 
    151 H151       -4.1749  -19.2022  -43.2316 H         1 UNK         0.0600 
    152 H152       -4.0665  -17.5367  -43.7821 H         1 UNK         0.0600 
    153 H153       -2.7088  -18.2748  -42.9363 H         1 UNK         0.0600 
    154 H154       -1.8575  -17.1209  -44.9756 H         1 UNK         0.3000 
    155 H155        0.0700  -17.1949  -48.0084 H         1 UNK         0.0600 
    156 H156       -0.5090  -14.7917  -47.8353 H         1 UNK         0.0600 
    157 H157       -1.7951  -15.1501  -46.6836 H         1 UNK         0.0600 
    158 H158       -1.9151  -15.7132  -48.3418 H         1 UNK         0.0600 
    159 H159        0.3553  -15.7222  -45.5699 H         1 UNK         0.3000 
    160 H160        2.5419  -18.0069  -43.9153 H         1 UNK         0.0600 
    161 H161        3.0559  -15.2448  -45.1120 H         1 UNK         0.0600 
    162 H162        3.9084  -16.7007  -45.6248 H         1 UNK         0.0600 
    163 H163        4.0652  -16.1250  -43.9732 H         1 UNK         0.0600 
    164 H164        1.6357  -15.4014  -43.1943 H         1 UNK         0.3000 
    165 H165       -1.3217  -16.4975  -41.4389 H         1 UNK         0.0600 
    166 H166        1.3236  -15.1760  -40.6313 H         1 UNK         0.0600 
    167 H167       -0.1778  -15.1561  -39.7095 H         1 UNK         0.0600 
    168 H168        0.6880  -16.6671  -39.9455 H         1 UNK         0.0600 
    169 H169       -0.3844  -13.8721  -41.8941 H         1 UNK         0.3000 
    170 H170       -2.0756  -13.1989  -44.9505 H         1 UNK         0.0600 
    171 H171       -3.8525  -13.0238  -43.2618 H         1 UNK         0.0600 
    172 H172       -2.7368  -12.3583  -42.0815 H         1 UNK         0.0600 
    173 H173       -3.1334  -11.4447  -43.5367 H         1 UNK         0.0600 
    174 H174       -0.2061  -12.0826  -44.8414 H         1 UNK         0.3000 
    175 H175        1.7108  -11.3063  -44.2725 H         1 UNK         0.0600 
    176 H176        2.1835   -9.0379  -43.4060 H         1 UNK         0.0600 
    177 H177        0.4611   -9.2050  -43.7090 H         1 UNK         0.0600 
    178 H178        1.0698   -9.2825  -42.0594 H         1 UNK         0.0600 
    179 H179        3.1213  -10.7844  -41.9713 H         1 UNK         0.3000 
    180 H180        4.2356  -12.3598  -40.5440 H         1 UNK         0.0600 
    181 H181        4.7443  -15.0301  -41.9640 H         1 UNK         0.0600 
    182 H182        3.8088  -14.8150  -40.4900 H         1 UNK         0.0600 
    183 H183        5.5323  -14.4735  -40.4915 H         1 UNK         0.0600 
    184 H184        5.8252  -13.0738  -42.9432 H         1 UNK         0.3000 
    185 H185        6.4713   -9.7055  -43.8200 H         1 UNK         0.0600 
    186 H186        8.8470  -10.4393  -43.8756 H         1 UNK         0.0600 
    187 H187        8.3480  -10.1282  -42.2203 H         1 UNK         0.0600 
    188 H188        8.4828  -11.7859  -42.7955 H         1 UNK         0.0600 
    189 H189        7.2641  -12.2709  -44.8697 H         1 UNK         0.3000 
    190 H190       -1.7925  -20.7936  -47.8917 H         1 UNK         0.3000 
    191 H191       -3.1351  -22.3060  -49.8877 H         1 UNK         0.0600 
    192 H192       -3.9748  -20.1374  -49.0290 H         1 UNK         0.0600 
    193 H193       -5.1969  -21.3875  -48.8444 H         1 UNK         0.0600 
    194 H194       -4.2747  -20.8506  -47.4461 H         1 UNK         0.0600 
    195 H195       -2.8148  -22.8457  -46.3561 H         1 UNK         0.3000 
    196 H196       -4.4023  -25.2046  -46.2173 H         1 UNK         0.0600 
    197 H197       -3.2770  -25.5109  -44.0128 H         1 UNK         0.0600 
    198 H198       -3.8235  -23.8543  -44.2246 H         1 UNK         0.0600 
    199 H199       -2.1173  -24.2502  -44.4126 H         1 UNK         0.0600 
    200 H200       -0.8668  -24.7500  -46.7414 H         1 UNK         0.3000 
    201 H201       -0.1732  -27.4968  -46.9084 H         1 UNK         0.0600 
    202 H202        1.4892  -25.6778  -46.6009 H         1 UNK         0.0600 
    203 H203        1.1494  -25.0615  -48.2166 H         1 UNK         0.0600 
    204 H204        1.8899  -26.6433  -48.0133 H         1 UNK         0.0600 
    205 H205       -1.4091  -25.2432  -49.3625 H         1 UNK         0.3000 
    206 H206       -1.3466  -27.1433  -51.5611 H         1 UNK         0.0600 
    207 H207       -2.5668  -25.3371  -52.7480 H         1 UNK         0.0600 
    208 H208       -2.8025  -24.4654  -51.2389 H         1 UNK         0.0600 
    209 H209       -1.1817  -24.6733  -51.8972 H         1 UNK         0.0600 
    210 H210       -3.1951  -27.1832  -48.8120 H         1 UNK         0.3000 
    211 H211       -5.0347  -28.1369  -48.0965 H         1 UNK         0.0600 
    212 H212       -5.0623  -29.7094  -50.7248 H         1 UNK         0.0600 
    213 H213       -5.8385  -30.1730  -49.2168 H         1 UNK         0.0600 
    214 H214       -4.0872  -30.1167  -49.3129 H         1 UNK         0.0600 
    215 H215       -5.3152  -25.6401  -49.6126 H         1 UNK         0.3000 
    216 H216       -6.7557  -24.2198  -50.4967 H         1 UNK         0.0600 
    217 H217       -7.9002  -24.6326  -48.3149 H         1 UNK         0.0600 
    218 H218       -8.9022  -25.8737  -49.0668 H         1 UNK         0.0600 
    219 H219       -9.0444  -24.1949  -49.5724 H         1 UNK         0.0600 
    220 H220       -5.9845  -26.2765  -52.2711 H         1 UNK         0.3000 
    221 H221       -8.0881  -27.4051  -53.7616 H         1 UNK         0.0600 
    222 H222       -5.2046  -26.7493  -54.5642 H         1 UNK         0.0600 
    223 H223       -5.7730  -28.2472  -53.8271 H         1 UNK         0.0600 
    224 H224       -6.2787  -27.8237  -55.4538 H         1 UNK         0.0600 
    225 H225       -6.9929  -24.1277  -53.7803 H         1 UNK         0.3000 
    226 H226       -8.9169  -23.4448  -55.8878 H         1 UNK         0.0600 
    227 H227       -6.6740  -23.4210  -57.0483 H         1 UNK         0.0600 
    228 H228       -7.3176  -21.7953  -56.8763 H         1 UNK         0.0600 
    229 H229       -6.0395  -22.3479  -55.8007 H         1 UNK         0.0600 
    230 H230       -9.7431  -21.3089  -55.5598 H         1 UNK         0.3000 
    231 H231       -9.8211  -20.4142  -52.8004 H         1 UNK         0.0600 
    232 H232      -11.8272  -20.3315  -54.2637 H         1 UNK         0.0600 
    233 H233      -11.0121  -19.2150  -55.3599 H         1 UNK         0.0600 
    234 H234      -11.4003  -18.7180  -53.7174 H         1 UNK         0.0600 
    235 H235       -8.0244  -19.5257  -55.6764 H         1 UNK         0.3000 
    236 H236       -7.0488  -16.9557  -54.6895 H         1 UNK         0.0600 
    237 H237       -5.6337  -17.0732  -56.7470 H         1 UNK         0.0600 
    238 H238       -6.1821  -18.7165  -57.0518 H         1 UNK         0.0600 
    239 H239       -7.3216  -17.3721  -57.1320 H         1 UNK         0.0600 
    240 H240       -4.9691  -16.5520  -53.9260 H         1 UNK         0.3000 
    241 H241       -3.6306  -18.6149  -52.4408 H         1 UNK         0.0600 
    242 H242       -1.7247  -19.7993  -52.9682 H         1 UNK         0.3800 
    243 H243       -0.9042  -19.6271  -54.4940 H         1 UNK         0.3800 
    244 H244       -2.5894  -15.7901  -53.0179 H         1 UNK         0.0800 
    245 H245       -3.8207  -16.1160  -51.8346 H         1 UNK         0.0800 
    246 H246       -0.0501  -16.8673  -52.7734 H         1 UNK         0.0800 
    247 H247       -0.3616  -15.2888  -52.0885 H         1 UNK         0.0800 
@<TRIPOS>BOND
     1    1    2 1    
     2    1  127 1    
     3    1  128 1    
     4    1  129 1    
     5    2    3 2    
     6    2    4 am   BACKBONE|DICT|INTERRES
     7    4    5 1    
     8    4  130 1    
     9    5    6 1    
    10    5   65 1    
    11    5  131 1    
    12    6    7 1    
    13    6  132 1    
    14    6  133 1    
    15    7    8 1    
    16    8    9 1    
    17    8  134 1    
    18    8  135 1    
    19    9   10 ar   
    20    9   14 ar   
    21   10   11 ar   
    22   10  136 1    
    23   11   12 ar   
    24   11  126 1    
    25   12   13 ar   
    26   12  137 1    
    27   13   14 ar   
    28   13   15 1    
    29   14  138 1    
    30   15   16 1    
    31   15  139 1    
    32   15  140 1    
    33   16   17 1    
    34   17   18 1    
    35   17  141 1    
    36   17  142 1    
    37   18   19 1    
    38   18   67 1    
    39   18  143 1    
    40   19   20 am   BACKBONE|DICT|INTERRES
    41   19  144 1    
    42   20   21 2    
    43   20   22 1    
    44   22   23 1    
    45   22   24 1    
    46   22  145 1    
    47   23  146 1    
    48   23  147 1    
    49   23  148 1    
    50   24   25 am   BACKBONE|DICT|INTERRES
    51   24  149 1    
    52   25   26 2    
    53   25   27 1    
    54   27   28 1    
    55   27   29 1    
    56   27  150 1    
    57   28  151 1    
    58   28  152 1    
    59   28  153 1    
    60   29   30 am   BACKBONE|DICT|INTERRES
    61   29  154 1    
    62   30   31 2    
    63   30   32 1    
    64   32   33 1    
    65   32   34 1    
    66   32  155 1    
    67   33  156 1    
    68   33  157 1    
    69   33  158 1    
    70   34   35 am   BACKBONE|DICT|INTERRES
    71   34  159 1    
    72   35   36 2    
    73   35   37 1    
    74   37   38 1    
    75   37   39 1    
    76   37  160 1    
    77   38  161 1    
    78   38  162 1    
    79   38  163 1    
    80   39   40 am   BACKBONE|DICT|INTERRES
    81   39  164 1    
    82   40   41 2    
    83   40   42 1    
    84   42   43 1    
    85   42   44 1    
    86   42  165 1    
    87   43  166 1    
    88   43  167 1    
    89   43  168 1    
    90   44   45 am   BACKBONE|DICT|INTERRES
    91   44  169 1    
    92   45   46 2    
    93   45   47 1    
    94   47   48 1    
    95   47   49 1    
    96   47  170 1    
    97   48  171 1    
    98   48  172 1    
    99   48  173 1    
   100   49   50 am   BACKBONE|DICT|INTERRES
   101   49  174 1    
   102   50   51 2    
   103   50   52 1    
   104   52   53 1    
   105   52   54 1    
   106   52  175 1    
   107   53  176 1    
   108   53  177 1    
   109   53  178 1    
   110   54   55 am   BACKBONE|DICT|INTERRES
   111   54  179 1    
   112   55   56 2    
   113   55   57 1    
   114   57   58 1    
   115   57   59 1    
   116   57  180 1    
   117   58  181 1    
   118   58  182 1    
   119   58  183 1    
   120   59   60 am   BACKBONE|DICT|INTERRES
   121   59  184 1    
   122   60   61 2    
   123   60   62 1    
   124   62   63 1    
   125   62   64 1    
   126   62  185 1    
   127   63  186 1    
   128   63  187 1    
   129   63  188 1    
   130   64   65 am   BACKBONE|DICT|INTERRES
   131   64  189 1    
   132   65   66 2    
   133   67   68 2    
   134   67   69 am   BACKBONE|DICT|INTERRES
   135   69   70 1    
   136   69  190 1    
   137   70   71 1    
   138   70   72 1    
   139   70  191 1    
   140   71  192 1    
   141   71  193 1    
   142   71  194 1    
   143   72   73 2    
   144   72   74 am   BACKBONE|DICT|INTERRES
   145   74   75 1    
   146   74  195 1    
   147   75   76 1    
   148   75   77 1    
   149   75  196 1    
   150   76  197 1    
   151   76  198 1    
   152   76  199 1    
   153   77   78 2    
   154   77   79 am   BACKBONE|DICT|INTERRES
   155   79   80 1    
   156   79  200 1    
   157   80   81 1    
   158   80   82 1    
   159   80  201 1    
   160   81  202 1    
   161   81  203 1    
   162   81  204 1    
   163   82   83 2    
   164   82   84 am   BACKBONE|DICT|INTERRES
   165   84   85 1    
   166   84  205 1    
   167   85   86 1    
   168   85   87 1    
   169   85  206 1    
   170   86  207 1    
   171   86  208 1    
   172   86  209 1    
   173   87   88 2    
   174   87   89 am   BACKBONE|DICT|INTERRES
   175   89   90 1    
   176   89  210 1    
   177   90   91 1    
   178   90   92 1    
   179   90  211 1    
   180   91  212 1    
   181   91  213 1    
   182   91  214 1    
   183   92   93 2    
   184   92   94 am   BACKBONE|DICT|INTERRES
   185   94   95 1    
   186   94  215 1    
   187   95   96 1    
   188   95   97 1    
   189   95  216 1    
   190   96  217 1    
   191   96  218 1    
   192   96  219 1    
   193   97   98 2    
   194   97   99 am   BACKBONE|DICT|INTERRES
   195   99  100 1    
   196   99  220 1    
   197  100  101 1    
   198  100  102 1    
   199  100  221 1    
   200  101  222 1    
   201  101  223 1    
   202  101  224 1    
   203  102  103 2    
   204  102  104 am   BACKBONE|DICT|INTERRES
   205  104  105 1    
   206  104  225 1    
   207  105  106 1    
   208  105  107 1    
   209  105  226 1    
   210  106  227 1    
   211  106  228 1    
   212  106  229 1    
   213  107  108 2    
   214  107  109 am   BACKBONE|DICT|INTERRES
   215  109  110 1    
   216  109  230 1    
   217  110  111 1    
   218  110  112 1    
   219  110  231 1    
   220  111  232 1    
   221  111  233 1    
   222  111  234 1    
   223  112  113 2    
   224  112  114 am   BACKBONE|DICT|INTERRES
   225  114  115 1    
   226  114  235 1    
   227  115  116 1    
   228  115  117 1    
   229  115  236 1    
   230  116  237 1    
   231  116  238 1    
   232  116  239 1    
   233  117  118 2    
   234  117  119 am   BACKBONE|DICT|INTERRES
   235  119  120 1    
   236  119  240 1    
   237  120  121 1    
   238  120  124 1    
   239  120  241 1    
   240  121  122 am   BACKBONE|DICT|INTERRES
   241  121  123 2    
   242  122  242 1    
   243  122  243 1    
   244  124  125 1    
   245  124  244 1    
   246  124  245 1    
   247  125  126 1    
   248  126  246 1    
   249  126  247 1    
@<TRIPOS>SUBSTRUCTURE
     1 UNK         1 GROUP             0       ****    0 ROOT    
