@<TRIPOS>MOLECULE
3R540
247   249    1
SMALL
USER_CHARGES


@<TRIPOS>ATOM
      1 CA          3.4599  -16.6428  -51.3722 C.3       0 UNK        -0.1800 
      2 C           3.4887  -16.2670  -49.8994 C.2       0 UNK         0.5000 
      3 O           4.5565  -16.2404  -49.2875 O.2       0 UNK        -0.5000 
      4 N           2.3128  -15.9784  -49.3299 N.am      1 UNK        -0.5000 
      5 CA          2.1335  -15.6239  -47.9180 C.3       1 UNK         0.1400 
      6 C6          0.6663  -15.8158  -47.4644 C.3       23 UNK        -0.0398 
      7 S7         -0.5429  -14.7847  -48.3714 S.3       23 UNK        -0.2404 
      8 C8         -1.7651  -16.0114  -48.9319 C.3       23 UNK        -0.0205 
      9 C9         -1.1949  -17.0012  -49.9376 C.ar      23 UNK        -0.0193 
     10 C10        -0.7329  -16.5551  -51.1796 C.ar      23 UNK        -0.1150 
     11 C11        -0.2507  -17.4615  -52.1310 C.ar      23 UNK        -0.0193 
     12 C12        -0.2342  -18.8247  -51.8215 C.ar      23 UNK        -0.1150 
     13 C13        -0.6885  -19.2852  -50.5822 C.ar      23 UNK        -0.0193 
     14 C14        -1.1607  -18.3671  -49.6403 C.ar      23 UNK        -0.1150 
     15 C15        -0.6818  -20.7776  -50.2817 C.3       23 UNK        -0.0205 
     16 S16         0.9358  -21.3257  -49.6533 S.3       23 UNK        -0.2404 
     17 C17         0.7502  -21.0504  -47.8587 C.3       23 UNK        -0.0398 
     18 CA          0.7971  -22.3626  -47.0364 C.3       11 UNK         0.1400 
     19 N           0.9764  -22.1003  -45.6074 N.am      11 UNK        -0.5000 
     20 C           1.2170  -23.0318  -44.6743 C.2       10 UNK         0.5000 
     21 O           1.3632  -24.2275  -44.9235 O.2       10 UNK        -0.5000 
     22 CA          1.2578  -22.5558  -43.2106 C.3       10 UNK         0.1400 
     23 CB          2.6200  -21.9307  -42.8765 C.3       10 UNK        -0.1800 
     24 N           0.1853  -21.6111  -42.8918 N.am      10 UNK        -0.5000 
     25 C          -1.1216  -21.9097  -42.9370 C.2       9 UNK         0.5000 
     26 O          -1.5581  -23.0254  -43.2173 O.2       9 UNK        -0.5000 
     27 CA         -2.1109  -20.7604  -42.6741 C.3       9 UNK         0.1400 
     28 CB         -2.2356  -20.4750  -41.1702 C.3       9 UNK        -0.1800 
     29 N          -1.7489  -19.5325  -43.3808 N.am      9 UNK        -0.5000 
     30 C          -1.6706  -19.4171  -44.7140 C.2       8 UNK         0.5000 
     31 O          -1.9307  -20.3255  -45.5030 O.2       8 UNK        -0.5000 
     32 CA         -1.1446  -18.0799  -45.2575 C.3       8 UNK         0.1400 
     33 CB         -2.2210  -16.9868  -45.1890 C.3       8 UNK        -0.1800 
     34 N           0.0603  -17.6355  -44.5568 N.am      8 UNK        -0.5000 
     35 C           1.2200  -18.3081  -44.5322 C.2       7 UNK         0.5000 
     36 O           1.4210  -19.3424  -45.1643 O.2       7 UNK        -0.5000 
     37 CA          2.3269  -17.7631  -43.6161 C.3       7 UNK         0.1400 
     38 CB          3.1388  -16.6762  -44.3283 C.3       7 UNK        -0.1800 
     39 N           1.7867  -17.2359  -42.3651 N.am      7 UNK        -0.5000 
     40 C           1.2724  -17.9979  -41.3900 C.2       6 UNK         0.5000 
     41 O           1.2283  -19.2274  -41.4327 O.2       6 UNK        -0.5000 
     42 CA          0.6663  -17.2529  -40.1878 C.3       6 UNK         0.1400 
     43 CB          1.7618  -16.8439  -39.1920 C.3       6 UNK        -0.1800 
     44 N          -0.0916  -16.0679  -40.5938 N.am      6 UNK        -0.5000 
     45 C          -1.2322  -16.1108  -41.2960 C.2       5 UNK         0.5000 
     46 O          -1.7767  -17.1565  -41.6499 O.2       5 UNK        -0.5000 
     47 CA         -1.8458  -14.7592  -41.7043 C.3       5 UNK         0.1400 
     48 CB         -2.7428  -14.2142  -40.5831 C.3       5 UNK        -0.1800 
     49 N          -0.8533  -13.7435  -42.0700 N.am      5 UNK        -0.5000 
     50 C          -0.0075  -13.8416  -43.1038 C.2       4 UNK         0.5000 
     51 O           0.0906  -14.8440  -43.8145 O.2       4 UNK        -0.5000 
     52 CA          0.8861  -12.6233  -43.3860 C.3       4 UNK         0.1400 
     53 CB          2.3603  -12.9371  -43.0914 C.3       4 UNK        -0.1800 
     54 N           0.7380  -12.2131  -44.7816 N.am      4 UNK        -0.5000 
     55 C          -0.2679  -11.4462  -45.2288 C.2       3 UNK         0.5000 
     56 O          -1.1164  -10.9579  -44.4798 O.2       3 UNK        -0.5000 
     57 CA         -0.3855  -11.1938  -46.7495 C.3       3 UNK         0.1400 
     58 CB         -0.7646   -9.7340  -47.0758 C.3       3 UNK        -0.1800 
     59 N           0.7706  -11.6289  -47.5398 N.am      3 UNK        -0.5000 
     60 C           2.0177  -11.1322  -47.5433 C.2       2 UNK         0.5000 
     61 O           2.3727  -10.1572  -46.8795 O.2       2 UNK        -0.5000 
     62 CA          3.0381  -11.8837  -48.4328 C.3       2 UNK         0.1400 
     63 CB          4.4974  -11.6730  -47.9781 C.3       2 UNK        -0.1800 
     64 N           2.7380  -13.3180  -48.5648 N.am      2 UNK        -0.5000 
     65 C           2.6318  -14.2061  -47.5626 C.2       1 UNK         0.5000 
     66 O           2.8442  -13.9251  -46.3838 O.2       1 UNK        -0.5000 
     67 C          -0.4253  -23.2691  -47.2929 C.2       11 UNK         0.5000 
     68 O          -0.2867  -24.2856  -47.9720 O.2       11 UNK        -0.5000 
     69 N          -1.5743  -22.9230  -46.6932 N.am      12 UNK        -0.5000 
     70 CA         -2.8174  -23.6933  -46.7664 C.3       12 UNK         0.1400 
     71 CB         -3.9355  -22.9184  -46.0526 C.3       12 UNK        -0.1800 
     72 C          -2.6918  -25.1130  -46.1822 C.2       12 UNK         0.5000 
     73 O          -3.2440  -26.0545  -46.7510 O.2       12 UNK        -0.5000 
     74 N          -1.9568  -25.2453  -45.0691 N.am      13 UNK        -0.5000 
     75 CA         -1.6442  -26.5251  -44.4342 C.3       13 UNK         0.1400 
     76 CB         -1.0442  -26.2759  -43.0421 C.3       13 UNK        -0.1800 
     77 C          -0.7035  -27.4006  -45.2830 C.2       13 UNK         0.5000 
     78 O          -0.8549  -28.6231  -45.2790 O.2       13 UNK        -0.5000 
     79 N           0.2432  -26.7694  -45.9924 N.am      14 UNK        -0.5000 
     80 CA          1.1882  -27.4348  -46.8867 C.3       14 UNK         0.1400 
     81 CB          2.3322  -26.4779  -47.2574 C.3       14 UNK        -0.1800 
     82 C           0.5109  -28.0089  -48.1436 C.2       14 UNK         0.5000 
     83 O           0.7593  -29.1696  -48.4750 O.2       14 UNK        -0.5000 
     84 N          -0.3392  -27.2139  -48.8081 N.am      15 UNK        -0.5000 
     85 CA         -1.0854  -27.6271  -49.9956 C.3       15 UNK         0.1400 
     86 CB         -0.1511  -27.6900  -51.2208 C.3       15 UNK        -0.1800 
     87 C          -2.2504  -26.6683  -50.2749 C.2       15 UNK         0.5000 
     88 O          -2.1191  -25.4639  -50.0555 O.2       15 UNK        -0.5000 
     89 N          -3.3383  -27.2220  -50.8298 N.am      16 UNK        -0.5000 
     90 CA         -4.5297  -26.5285  -51.3290 C.3       16 UNK         0.1400 
     91 CB         -4.1931  -25.7747  -52.6368 C.3       16 UNK        -0.1800 
     92 C          -5.2080  -25.6532  -50.2524 C.2       16 UNK         0.5000 
     93 O          -5.7510  -26.1964  -49.2893 O.2       16 UNK        -0.5000 
     94 N          -5.1818  -24.3317  -50.4421 N.am      17 UNK        -0.5000 
     95 CA         -5.7245  -23.3138  -49.5549 C.3       17 UNK         0.1400 
     96 CB         -7.2331  -23.1475  -49.8140 C.3       17 UNK        -0.1800 
     97 C          -4.9661  -22.0036  -49.8123 C.2       17 UNK         0.5000 
     98 O          -4.2567  -21.8901  -50.8167 O.2       17 UNK        -0.5000 
     99 N          -5.1376  -21.0325  -48.9091 N.am      18 UNK        -0.5000 
    100 CA        -4.6111  -19.6777  -49.0614 C.3       18 UNK         0.1400 
    101 CB        -4.6418  -18.9686  -47.6997 C.3       18 UNK        -0.1800 
    102 C         -5.4088  -18.8775  -50.1063 C.2       18 UNK         0.5000 
    103 O         -6.5985  -19.1414  -50.3000 O.2       18 UNK        -0.5000 
    104 N         -4.7400  -17.8976  -50.7304 N.am      19 UNK        -0.5000 
    105 CA        -5.2442  -17.0500  -51.8143 C.3       19 UNK         0.1400 
    106 CB        -6.3791  -16.1239  -51.3208 C.3       19 UNK        -0.1800 
    107 C         -5.5950  -17.9017  -53.0530 C.2       19 UNK         0.5000 
    108 O         -4.7012  -18.5693  -53.5769 O.2       19 UNK        -0.5000 
    109 N         -6.8622  -17.8742  -53.4937 N.am      20 UNK        -0.5000 
    110 CA        -7.4351  -18.6606  -54.5924 C.3       20 UNK         0.1400 
    111 CB        -7.5621  -20.1428  -54.1717 C.3       20 UNK        -0.1800 
    112 C         -6.6660  -18.4480  -55.9130 C.2       20 UNK         0.5000 
    113 O         -6.7637  -17.3674  -56.4978 O.2       20 UNK        -0.5000 
    114 N         -5.8766  -19.4491  -56.3289 N.am      21 UNK        -0.5000 
    115 CA        -4.9932  -19.4237  -57.4992 C.3       21 UNK         0.1400 
    116 CB        -4.3554  -20.8113  -57.6676 C.3       21 UNK        -0.1800 
    117 C         -3.9040  -18.3303  -57.4512 C.2       21 UNK         0.5000 
    118 O         -3.3957  -17.9425  -58.5041 O.2       21 UNK        -0.5000 
    119 N         -3.5856  -17.8346  -56.2476 N.am      22 UNK        -0.5000 
    120 CA        -2.7521  -16.6443  -56.0211 C.3       22 UNK         0.1400 
    121 C         -3.4032  -15.3073  -56.4991 C.2       22 UNK         0.5000 
    122 N         -4.7112  -15.2402  -56.7265 N.am      22 UNK        -0.7600 
    123 O         -2.7083  -14.3122  -56.6832 O.2       22 UNK        -0.5000 
    124 C124       -2.3186  -16.5610  -54.5343 C.3       23 UNK        -0.0398 
    125 S125       -0.7357  -15.6934  -54.2731 S.3       23 UNK        -0.2404 
    126 C126        0.2756  -16.9921  -53.4871 C.3       23 UNK        -0.0205 
    127 H127        3.1210  -15.7985  -51.9721 H         1 UNK         0.0600 
    128 H128        2.7875  -17.4848  -51.5372 H         1 UNK         0.0600 
    129 H129        4.4527  -16.9296  -51.7189 H         1 UNK         0.0600 
    130 H130        1.4648  -16.0277  -49.8781 H         1 UNK         0.3000 
    131 H131        2.7417  -16.3160  -47.3328 H         1 UNK         0.0600 
    132 H132        0.4040  -16.8666  -47.5761 H         1 UNK         0.0800 
    133 H133        0.5652  -15.5968  -46.4006 H         1 UNK         0.0800 
    134 H134       -2.1757  -16.5276  -48.0643 H         1 UNK         0.0800 
    135 H135       -2.6003  -15.4835  -49.3943 H         1 UNK         0.0800 
    136 H136       -0.7557  -15.4982  -51.4055 H         1 UNK         0.1150 
    137 H137        0.1369  -19.5353  -52.5467 H         1 UNK         0.1150 
    138 H138       -1.5138  -18.7191  -48.6817 H         1 UNK         0.1150 
    139 H139       -1.4715  -21.0405  -49.5761 H         1 UNK         0.0800 
    140 H140       -0.9067  -21.3314  -51.1946 H         1 UNK         0.0800 
    141 H141        1.5766  -20.4040  -47.5618 H         1 UNK         0.0800 
    142 H142       -0.1580  -20.4864  -47.6437 H         1 UNK         0.0800 
    143 H143        1.6809  -22.9190  -47.3567 H         1 UNK         0.0600 
    144 H144        0.9261  -21.1255  -45.3212 H         1 UNK         0.3000 
    145 H145        1.1247  -23.4331  -42.5743 H         1 UNK         0.0600 
    146 H146        2.6792  -21.6535  -41.8239 H         1 UNK         0.0600 
    147 H147        3.4303  -22.6335  -43.0742 H         1 UNK         0.0600 
    148 H148        2.8097  -21.0363  -43.4695 H         1 UNK         0.0600 
    149 H149        0.4677  -20.6789  -42.6065 H         1 UNK         0.3000 
    150 H150       -3.0894  -21.0764  -43.0416 H         1 UNK         0.0600 
    151 H151       -2.5205  -21.3749  -40.6238 H         1 UNK         0.0600 
    152 H152       -2.9979  -19.7204  -40.9754 H         1 UNK         0.0600 
    153 H153       -1.2968  -20.1162  -40.7478 H         1 UNK         0.0600 
    154 H154       -1.5508  -18.7187  -42.8056 H         1 UNK         0.3000 
    155 H155       -0.8862  -18.2387  -46.3047 H         1 UNK         0.0600 
    156 H156       -1.8595  -16.0460  -45.6042 H         1 UNK         0.0600 
    157 H157       -2.5392  -16.7958  -44.1654 H         1 UNK         0.0600 
    158 H158       -3.1075  -17.2747  -45.7530 H         1 UNK         0.0600 
    159 H159       -0.0008  -16.7521  -44.0582 H         1 UNK         0.3000 
    160 H160        3.0031  -18.5858  -43.3756 H         1 UNK         0.0600 
    161 H161        2.5000  -15.8567  -44.6531 H         1 UNK         0.0600 
    162 H162        3.6357  -17.0783  -45.2116 H         1 UNK         0.0600 
    163 H163        3.9122  -16.2653  -43.6792 H         1 UNK         0.0600 
    164 H164        1.7365  -16.2321  -42.2768 H         1 UNK         0.3000 
    165 H165       -0.0172  -17.9382  -39.6817 H         1 UNK         0.0600 
    166 H166        2.4650  -16.1356  -39.6319 H         1 UNK         0.0600 
    167 H167        1.3329  -16.3826  -38.3022 H         1 UNK         0.0600 
    168 H168        2.3332  -17.7129  -38.8630 H         1 UNK         0.0600 
    169 H169        0.2890  -15.1675  -40.3427 H         1 UNK         0.3000 
    170 H170       -2.4722  -14.9362  -42.5807 H         1 UNK         0.0600 
    171 H171       -3.5054  -14.9429  -40.3042 H         1 UNK         0.0600 
    172 H172       -2.1695  -13.9791  -39.6855 H         1 UNK         0.0600 
    173 H173       -3.2615  -13.3085  -40.8978 H         1 UNK         0.0600 
    174 H174       -0.8733  -12.8865  -41.5360 H         1 UNK         0.3000 
    175 H175        0.5876  -11.7993  -42.7342 H         1 UNK         0.0600 
    176 H176        2.9889  -12.0637  -43.2656 H         1 UNK         0.0600 
    177 H177        2.4968  -13.2351  -42.0512 H         1 UNK         0.0600 
    178 H178        2.7377  -13.7451  -43.7162 H         1 UNK         0.0600 
    179 H179        1.3824  -12.6300  -45.4431 H         1 UNK         0.3000 
    180 H180       -1.2134  -11.8218  -47.0816 H         1 UNK         0.0600 
    181 H181       -0.8561   -9.5805  -48.1511 H         1 UNK         0.0600 
    182 H182       -1.7244   -9.4696  -46.6305 H         1 UNK         0.0600 
    183 H183       -0.0264   -9.0274  -46.6962 H         1 UNK         0.0600 
    184 H184        0.6040  -12.4465  -48.1109 H         1 UNK         0.3000 
    185 H185        2.9393  -11.4566  -49.4316 H         1 UNK         0.0600 
    186 H186        5.1921  -12.2145  -48.6202 H         1 UNK         0.0600 
    187 H187        4.7726  -10.6186  -48.0207 H         1 UNK         0.0600 
    188 H188        4.6558  -12.0103  -46.9533 H         1 UNK         0.0600 
    189 H189        2.5305  -13.6422  -49.4989 H         1 UNK         0.3000 
    190 H190       -1.6089  -22.0629  -46.1505 H         1 UNK         0.3000 
    191 H191       -3.0805  -23.7913  -47.8217 H         1 UNK         0.0600 
    192 H192       -4.8876  -23.4450  -46.1258 H         1 UNK         0.0600 
    193 H193       -4.0708  -21.9295  -46.4874 H         1 UNK         0.0600 
    194 H194       -3.7160  -22.7842  -44.9930 H         1 UNK         0.0600 
    195 H195       -1.5955  -24.4112  -44.6156 H         1 UNK         0.3000 
    196 H196       -2.5794  -27.0737  -44.3049 H         1 UNK         0.0600 
    197 H197       -0.8162  -27.2170  -42.5401 H         1 UNK         0.0600 
    198 H198       -1.7396  -25.7283  -42.4058 H         1 UNK         0.0600 
    199 H199       -0.1196  -25.7011  -43.0993 H         1 UNK         0.0600 
    200 H200        0.3330  -25.7633  -45.9029 H         1 UNK         0.3000 
    201 H201        1.6272  -28.2715  -46.3390 H         1 UNK         0.0600 
    202 H202        2.8598  -26.1321  -46.3684 H         1 UNK         0.0600 
    203 H203        1.9732  -25.6007  -47.7947 H         1 UNK         0.0600 
    204 H204        3.0631  -26.9751  -47.8961 H         1 UNK         0.0600 
    205 H205       -0.4997  -26.2576  -48.4968 H         1 UNK         0.3000 
    206 H206       -1.5012  -28.6202  -49.8119 H         1 UNK         0.0600 
    207 H207        0.6300  -28.4395  -51.0956 H         1 UNK         0.0600 
    208 H208       -0.7043  -27.9530  -52.1233 H         1 UNK         0.0600 
    209 H209        0.3328  -26.7293  -51.4011 H         1 UNK         0.0600 
    210 H210       -3.3519  -28.2254  -50.9463 H         1 UNK         0.3000 
    211 H211       -5.2536  -27.3049  -51.5811 H         1 UNK         0.0600 
    212 H212       -3.4349  -25.0050  -52.4875 H         1 UNK         0.0600 
    213 H213       -5.0789  -25.2950  -53.0553 H         1 UNK         0.0600 
    214 H214       -3.8159  -26.4621  -53.3941 H         1 UNK         0.0600 
    215 H215       -4.6489  -23.9511  -51.2151 H         1 UNK         0.3000 
    216 H216       -5.5583  -23.6126  -48.5185 H         1 UNK         0.0600 
    217 H217       -7.6654  -22.3909  -49.1583 H         1 UNK         0.0600 
    218 H218       -7.7721  -24.0774  -49.6322 H         1 UNK         0.0600 
    219 H219       -7.4305  -22.8413  -50.8422 H         1 UNK         0.0600 
    220 H220       -5.7781  -21.1787  -48.1432 H         1 UNK         0.3000 
    221 H221       -3.5762  -19.7495  -49.3959 H         1 UNK         0.0600 
    222 H222       -5.6553  -18.9033  -47.3022 H         1 UNK         0.0600 
    223 H223       -4.0272  -19.4917  -46.9684 H         1 UNK         0.0600 
    224 H224       -4.2570  -17.9518  -47.7811 H         1 UNK         0.0600 
    225 H225       -3.7563  -17.7895  -50.5300 H         1 UNK         0.3000 
    226 H226       -4.4125  -16.4092  -52.1054 H         1 UNK         0.0600 
    227 H227       -6.0486  -15.5276  -50.4702 H         1 UNK         0.0600 
    228 H228       -6.6812  -15.4243  -52.1012 H         1 UNK         0.0600 
    229 H229       -7.2653  -16.6766  -51.0080 H         1 UNK         0.0600 
    230 H230       -7.5135  -17.2761  -53.0059 H         1 UNK         0.3000 
    231 H231       -8.4428  -18.2782  -54.7610 H         1 UNK         0.0600 
    232 H232       -8.0073  -20.7423  -54.9669 H         1 UNK         0.0600 
    233 H233       -8.2064  -20.2415  -53.2978 H         1 UNK         0.0600 
    234 H234       -6.5996  -20.5871  -53.9151 H         1 UNK         0.0600 
    235 H235       -5.8302  -20.2786  -55.7553 H         1 UNK         0.3000 
    236 H236       -5.6136  -19.2223  -58.3747 H         1 UNK         0.0600 
    237 H237       -3.7432  -21.0785  -56.8052 H         1 UNK         0.0600 
    238 H238       -5.1150  -21.5830  -57.7938 H         1 UNK         0.0600 
    239 H239       -3.7132  -20.8428  -58.5488 H         1 UNK         0.0600 
    240 H240       -4.0438  -18.2205  -55.4275 H         1 UNK         0.3000 
    241 H241       -1.8535  -16.7824  -56.6255 H         1 UNK         0.0600 
    242 H242       -5.3158  -16.0476  -56.6113 H         1 UNK         0.3800 
    243 H243       -5.1083  -14.3700  -57.0433 H         1 UNK         0.3800 
    244 H244       -2.2236  -17.5656  -54.1199 H         1 UNK         0.0800 
    245 H245       -3.0833  -16.0688  -53.9343 H         1 UNK         0.0800 
    246 H246        0.3555  -17.8317  -54.1795 H         1 UNK         0.0800 
    247 H247        1.2861  -16.6072  -53.3562 H         1 UNK         0.0800 
@<TRIPOS>BOND
     1    1    2 1    
     2    1  127 1    
     3    1  128 1    
     4    1  129 1    
     5    2    3 2    
     6    2    4 am   BACKBONE|DICT|INTERRES
     7    4    5 1    
     8    4  130 1    
     9    5    6 1    
    10    5   65 1    
    11    5  131 1    
    12    6    7 1    
    13    6  132 1    
    14    6  133 1    
    15    7    8 1    
    16    8    9 1    
    17    8  134 1    
    18    8  135 1    
    19    9   10 ar   
    20    9   14 ar   
    21   10   11 ar   
    22   10  136 1    
    23   11   12 ar   
    24   11  126 1    
    25   12   13 ar   
    26   12  137 1    
    27   13   14 ar   
    28   13   15 1    
    29   14  138 1    
    30   15   16 1    
    31   15  139 1    
    32   15  140 1    
    33   16   17 1    
    34   17   18 1    
    35   17  141 1    
    36   17  142 1    
    37   18   19 1    
    38   18   67 1    
    39   18  143 1    
    40   19   20 am   BACKBONE|DICT|INTERRES
    41   19  144 1    
    42   20   21 2    
    43   20   22 1    
    44   22   23 1    
    45   22   24 1    
    46   22  145 1    
    47   23  146 1    
    48   23  147 1    
    49   23  148 1    
    50   24   25 am   BACKBONE|DICT|INTERRES
    51   24  149 1    
    52   25   26 2    
    53   25   27 1    
    54   27   28 1    
    55   27   29 1    
    56   27  150 1    
    57   28  151 1    
    58   28  152 1    
    59   28  153 1    
    60   29   30 am   BACKBONE|DICT|INTERRES
    61   29  154 1    
    62   30   31 2    
    63   30   32 1    
    64   32   33 1    
    65   32   34 1    
    66   32  155 1    
    67   33  156 1    
    68   33  157 1    
    69   33  158 1    
    70   34   35 am   BACKBONE|DICT|INTERRES
    71   34  159 1    
    72   35   36 2    
    73   35   37 1    
    74   37   38 1    
    75   37   39 1    
    76   37  160 1    
    77   38  161 1    
    78   38  162 1    
    79   38  163 1    
    80   39   40 am   BACKBONE|DICT|INTERRES
    81   39  164 1    
    82   40   41 2    
    83   40   42 1    
    84   42   43 1    
    85   42   44 1    
    86   42  165 1    
    87   43  166 1    
    88   43  167 1    
    89   43  168 1    
    90   44   45 am   BACKBONE|DICT|INTERRES
    91   44  169 1    
    92   45   46 2    
    93   45   47 1    
    94   47   48 1    
    95   47   49 1    
    96   47  170 1    
    97   48  171 1    
    98   48  172 1    
    99   48  173 1    
   100   49   50 am   BACKBONE|DICT|INTERRES
   101   49  174 1    
   102   50   51 2    
   103   50   52 1    
   104   52   53 1    
   105   52   54 1    
   106   52  175 1    
   107   53  176 1    
   108   53  177 1    
   109   53  178 1    
   110   54   55 am   BACKBONE|DICT|INTERRES
   111   54  179 1    
   112   55   56 2    
   113   55   57 1    
   114   57   58 1    
   115   57   59 1    
   116   57  180 1    
   117   58  181 1    
   118   58  182 1    
   119   58  183 1    
   120   59   60 am   BACKBONE|DICT|INTERRES
   121   59  184 1    
   122   60   61 2    
   123   60   62 1    
   124   62   63 1    
   125   62   64 1    
   126   62  185 1    
   127   63  186 1    
   128   63  187 1    
   129   63  188 1    
   130   64   65 am   BACKBONE|DICT|INTERRES
   131   64  189 1    
   132   65   66 2    
   133   67   68 2    
   134   67   69 am   BACKBONE|DICT|INTERRES
   135   69   70 1    
   136   69  190 1    
   137   70   71 1    
   138   70   72 1    
   139   70  191 1    
   140   71  192 1    
   141   71  193 1    
   142   71  194 1    
   143   72   73 2    
   144   72   74 am   BACKBONE|DICT|INTERRES
   145   74   75 1    
   146   74  195 1    
   147   75   76 1    
   148   75   77 1    
   149   75  196 1    
   150   76  197 1    
   151   76  198 1    
   152   76  199 1    
   153   77   78 2    
   154   77   79 am   BACKBONE|DICT|INTERRES
   155   79   80 1    
   156   79  200 1    
   157   80   81 1    
   158   80   82 1    
   159   80  201 1    
   160   81  202 1    
   161   81  203 1    
   162   81  204 1    
   163   82   83 2    
   164   82   84 am   BACKBONE|DICT|INTERRES
   165   84   85 1    
   166   84  205 1    
   167   85   86 1    
   168   85   87 1    
   169   85  206 1    
   170   86  207 1    
   171   86  208 1    
   172   86  209 1    
   173   87   88 2    
   174   87   89 am   BACKBONE|DICT|INTERRES
   175   89   90 1    
   176   89  210 1    
   177   90   91 1    
   178   90   92 1    
   179   90  211 1    
   180   91  212 1    
   181   91  213 1    
   182   91  214 1    
   183   92   93 2    
   184   92   94 am   BACKBONE|DICT|INTERRES
   185   94   95 1    
   186   94  215 1    
   187   95   96 1    
   188   95   97 1    
   189   95  216 1    
   190   96  217 1    
   191   96  218 1    
   192   96  219 1    
   193   97   98 2    
   194   97   99 am   BACKBONE|DICT|INTERRES
   195   99  100 1    
   196   99  220 1    
   197  100  101 1    
   198  100  102 1    
   199  100  221 1    
   200  101  222 1    
   201  101  223 1    
   202  101  224 1    
   203  102  103 2    
   204  102  104 am   BACKBONE|DICT|INTERRES
   205  104  105 1    
   206  104  225 1    
   207  105  106 1    
   208  105  107 1    
   209  105  226 1    
   210  106  227 1    
   211  106  228 1    
   212  106  229 1    
   213  107  108 2    
   214  107  109 am   BACKBONE|DICT|INTERRES
   215  109  110 1    
   216  109  230 1    
   217  110  111 1    
   218  110  112 1    
   219  110  231 1    
   220  111  232 1    
   221  111  233 1    
   222  111  234 1    
   223  112  113 2    
   224  112  114 am   BACKBONE|DICT|INTERRES
   225  114  115 1    
   226  114  235 1    
   227  115  116 1    
   228  115  117 1    
   229  115  236 1    
   230  116  237 1    
   231  116  238 1    
   232  116  239 1    
   233  117  118 2    
   234  117  119 am   BACKBONE|DICT|INTERRES
   235  119  120 1    
   236  119  240 1    
   237  120  121 1    
   238  120  124 1    
   239  120  241 1    
   240  121  122 am   BACKBONE|DICT|INTERRES
   241  121  123 2    
   242  122  242 1    
   243  122  243 1    
   244  124  125 1    
   245  124  244 1    
   246  124  245 1    
   247  125  126 1    
   248  126  246 1    
   249  126  247 1    
@<TRIPOS>SUBSTRUCTURE
     1 UNK         1 GROUP             0       ****    0 ROOT    
