@<TRIPOS>MOLECULE
3R540
247   249    1
SMALL
USER_CHARGES


@<TRIPOS>ATOM
      1 CA          3.9323  -13.4133  -45.4393 C.3       0 UNK        -0.1800 
      2 C           2.4574  -13.5122  -45.7967 C.2       0 UNK         0.5000 
      3 O           1.6596  -12.6922  -45.3439 O.2       0 UNK        -0.5000 
      4 N           2.0898  -14.4990  -46.6251 N.am      1 UNK        -0.5000 
      5 CA          0.7099  -14.8175  -47.0240 C.3       1 UNK         0.1400 
      6 C6          0.6241  -16.1830  -47.7456 C.3       23 UNK        -0.0398 
      7 S7          0.7682  -17.5621  -46.5633 S.3       23 UNK        -0.2404 
      8 C8         -0.0358  -18.9072  -47.4866 C.3       23 UNK        -0.0205 
      9 C9          0.7999  -19.3466  -48.6766 C.ar      23 UNK        -0.0193 
     10 C10         0.5620  -18.8133  -49.9451 C.ar      23 UNK        -0.1150 
     11 C11         1.3406  -19.2045  -51.0370 C.ar      23 UNK        -0.0193 
     12 C12         2.3584  -20.1455  -50.8553 C.ar      23 UNK        -0.1150 
     13 C13         2.5966  -20.6960  -49.5926 C.ar      23 UNK        -0.0193 
     14 C14         1.8173  -20.2877  -48.5075 C.ar      23 UNK        -0.1150 
     15 C15         3.7054  -21.7179  -49.3948 C.3       23 UNK        -0.0205 
     16 S16         3.2832  -23.3512  -50.0855 S.3       23 UNK        -0.2404 
     17 C17         1.8527  -23.8769  -49.0790 C.3       23 UNK        -0.0398 
     18 CA          2.2628  -24.7993  -47.9061 C.3       11 UNK         0.1400 
     19 N           3.0208  -24.0764  -46.8869 N.am      11 UNK        -0.5000 
     20 C           3.7641  -24.6365  -45.9234 C.2       10 UNK         0.5000 
     21 O           3.9927  -25.8442  -45.8469 O.2       10 UNK        -0.5000 
     22 CA          4.3396  -23.6791  -44.8607 C.3       10 UNK         0.1400 
     23 CB          5.7681  -23.2549  -45.2337 C.3       10 UNK        -0.1800 
     24 N           3.5136  -22.4806  -44.7100 N.am      10 UNK        -0.5000 
     25 C           2.3342  -22.4318  -44.0810 C.2       9 UNK         0.5000 
     26 O           1.8958  -23.3557  -43.3942 O.2       9 UNK        -0.5000 
     27 CA          1.5079  -21.1412  -44.2810 C.3       9 UNK         0.1400 
     28 CB          0.1707  -21.1672  -43.5244 C.3       9 UNK        -0.1800 
     29 N           2.2266  -19.9086  -43.9417 N.am      9 UNK        -0.5000 
     30 C           3.2220  -19.3548  -44.6514 C.2       8 UNK         0.5000 
     31 O           3.6920  -19.8698  -45.6675 O.2       8 UNK        -0.5000 
     32 CA          3.7701  -18.0068  -44.1507 C.3       8 UNK         0.1400 
     33 CB          4.4398  -17.1795  -45.2630 C.3       8 UNK        -0.1800 
     34 N           2.7100  -17.2186  -43.5214 N.am      8 UNK        -0.5000 
     35 C           2.8447  -16.5259  -42.3849 C.2       7 UNK         0.5000 
     36 O           3.9077  -16.4271  -41.7704 O.2       7 UNK        -0.5000 
     37 CA          1.5891  -15.8340  -41.8169 C.3       7 UNK         0.1400 
     38 CB          1.6318  -14.3206  -42.0706 C.3       7 UNK        -0.1800 
     39 N           0.3085  -16.3532  -42.3041 N.am      7 UNK        -0.5000 
     40 C          -0.1834  -17.5739  -42.0705 C.2       6 UNK         0.5000 
     41 O           0.4704  -18.4782  -41.5507 O.2       6 UNK        -0.5000 
     42 CA         -1.6514  -17.8352  -42.4675 C.3       6 UNK         0.1400 
     43 CB         -2.6102  -17.2737  -41.4009 C.3       6 UNK        -0.1800 
     44 N          -2.0471  -17.3925  -43.8136 N.am      6 UNK        -0.5000 
     45 C          -2.1274  -16.1501  -44.3141 C.2       5 UNK         0.5000 
     46 O          -1.7427  -15.1434  -43.7158 O.2       5 UNK        -0.5000 
     47 CA         -2.6939  -16.0265  -45.7464 C.3       5 UNK         0.1400 
     48 CB         -3.7888  -17.0666  -46.0675 C.3       5 UNK        -0.1800 
     49 N          -3.1491  -14.6712  -46.0732 N.am      5 UNK        -0.5000 
     50 C          -4.1689  -13.9993  -45.5202 C.2       4 UNK         0.5000 
     51 O          -4.8977  -14.4540  -44.6356 O.2       4 UNK        -0.5000 
     52 CA         -4.4184  -12.5838  -46.0846 C.3       4 UNK         0.1400 
     53 CB         -5.6031  -11.8586  -45.4110 C.3       4 UNK        -0.1800 
     54 N          -3.2190  -11.7382  -46.0752 N.am      4 UNK        -0.5000 
     55 C          -2.5047  -11.3370  -45.0127 C.2       3 UNK         0.5000 
     56 O          -2.7756  -11.6464  -43.8516 O.2       3 UNK        -0.5000 
     57 CA         -1.2921  -10.4204  -45.3020 C.3       3 UNK         0.1400 
     58 CB         -0.3759  -10.2480  -44.0765 C.3       3 UNK        -0.1800 
     59 N          -0.4861  -10.9043  -46.4247 N.am      3 UNK        -0.5000 
     60 C          -0.7403  -10.6864  -47.7241 C.2       2 UNK         0.5000 
     61 O          -1.6777   -9.9945  -48.1216 O.2       2 UNK        -0.5000 
     62 CA          0.1553  -11.4102  -48.7542 C.3       2 UNK         0.1400 
     63 CB          1.3023  -10.4952  -49.2079 C.3       2 UNK        -0.1800 
     64 N           0.7164  -12.6630  -48.2442 N.am      2 UNK        -0.5000 
     65 C          -0.0085  -13.7116  -47.8300 C.2       1 UNK         0.5000 
     66 O          -1.2245  -13.8010  -48.0072 O.2       1 UNK        -0.5000 
     67 C           1.0155  -25.4462  -47.2734 C.2       11 UNK         0.5000 
     68 O           0.3751  -24.8392  -46.4105 O.2       11 UNK        -0.5000 
     69 N           0.6861  -26.6549  -47.7419 N.am      12 UNK        -0.5000 
     70 CA         -0.4992  -27.4188  -47.3549 C.3       12 UNK         0.1400 
     71 CB         -0.2280  -28.9061  -47.6533 C.3       12 UNK        -0.1800 
     72 C          -1.7755  -26.9032  -48.0576 C.2       12 UNK         0.5000 
     73 O          -1.7795  -25.8029  -48.6163 O.2       12 UNK        -0.5000 
     74 N          -2.8432  -27.7140  -48.0121 N.am      13 UNK        -0.5000 
     75 CA         -4.1490  -27.4861  -48.6433 C.3       13 UNK         0.1400 
     76 CB         -4.0248  -27.5336  -50.1818 C.3       13 UNK        -0.1800 
     77 C          -4.8303  -26.2003  -48.1360 C.2       13 UNK         0.5000 
     78 O          -5.2698  -25.3760  -48.9374 O.2       13 UNK        -0.5000 
     79 N          -4.8708  -26.0468  -46.8038 N.am      14 UNK        -0.5000 
     80 CA         -5.4261  -24.9035  -46.0703 C.3       14 UNK         0.1400 
     81 CB         -6.9597  -24.8409  -46.2362 C.3       14 UNK        -0.1800 
     82 C          -4.7259  -23.5810  -46.4428 C.2       14 UNK         0.5000 
     83 O          -5.3834  -22.6269  -46.8615 O.2       14 UNK        -0.5000 
     84 N          -3.3905  -23.5705  -46.3091 N.am      15 UNK        -0.5000 
     85 CA         -2.4927  -22.4485  -46.6083 C.3       15 UNK         0.1400 
     86 CB         -2.7633  -21.2740  -45.6400 C.3       15 UNK        -0.1800 
     87 C          -2.5638  -22.0326  -48.0920 C.2       15 UNK         0.5000 
     88 O          -2.7475  -20.8516  -48.3915 O.2       15 UNK        -0.5000 
     89 N          -2.4654  -23.0269  -48.9884 N.am      16 UNK        -0.5000 
     90 CA         -2.6078  -22.9140  -50.4437 C.3       16 UNK         0.1400 
     91 CB         -1.4196  -22.1331  -51.0432 C.3       16 UNK        -0.1800 
     92 C          -3.9821  -22.3409  -50.8529 C.2       16 UNK         0.5000 
     93 O          -4.0530  -21.4155  -51.6635 O.2       16 UNK        -0.5000 
     94 N          -5.0483  -22.8875  -50.2495 N.am      17 UNK        -0.5000 
     95 CA         -6.4483  -22.4653  -50.3524 C.3       17 UNK         0.1400 
     96 CB         -7.0017  -22.7695  -51.7603 C.3       17 UNK        -0.1800 
     97 C          -6.6414  -20.9943  -49.9317 C.2       17 UNK         0.5000 
     98 O          -7.2682  -20.2217  -50.6557 O.2       17 UNK        -0.5000 
     99 N          -6.0450  -20.6219  -48.7898 N.am      18 UNK        -0.5000 
    100 CA        -5.9053  -19.2554  -48.2753 C.3       18 UNK         0.1400 
    101 CB        -7.2586  -18.7223  -47.7640 C.3       18 UNK        -0.1800 
    102 C         -5.2276  -18.3201  -49.3016 C.2       18 UNK         0.5000 
    103 O         -5.7363  -17.2375  -49.5959 O.2       18 UNK        -0.5000 
    104 N         -4.1039  -18.7990  -49.8515 N.am      19 UNK        -0.5000 
    105 CA        -3.2696  -18.2113  -50.9038 C.3       19 UNK         0.1400 
    106 CB        -2.7145  -16.8431  -50.4567 C.3       19 UNK        -0.1800 
    107 C         -3.9217  -18.1317  -52.3032 C.2       19 UNK         0.5000 
    108 O         -3.2689  -17.6485  -53.2294 O.2       19 UNK        -0.5000 
    109 N         -5.1670  -18.6034  -52.4700 N.am      20 UNK        -0.5000 
    110 CA        -5.9045  -18.5387  -53.7345 C.3       20 UNK         0.1400 
    111 CB        -7.3984  -18.7876  -53.4848 C.3       20 UNK        -0.1800 
    112 C         -5.3755  -19.5070  -54.8073 C.2       20 UNK         0.5000 
    113 O         -5.5082  -19.2108  -55.9960 O.2       20 UNK        -0.5000 
    114 N         -4.7659  -20.6282  -54.3918 N.am      21 UNK        -0.5000 
    115 CA        -4.1756  -21.6200  -55.2981 C.3       21 UNK         0.1400 
    116 CB        -3.9029  -22.9233  -54.5315 C.3       21 UNK        -0.1800 
    117 C         -2.8906  -21.1193  -55.9880 C.2       21 UNK         0.5000 
    118 O         -2.4858  -21.6903  -57.0015 O.2       21 UNK        -0.5000 
    119 N         -2.2811  -20.0639  -55.4353 N.am      22 UNK        -0.5000 
    120 CA        -1.0781  -19.4022  -55.9601 C.3       22 UNK         0.1400 
    121 C         -1.3459  -18.4595  -57.1710 C.2       22 UNK         0.5000 
    122 N         -2.5904  -18.1887  -57.5495 N.am      22 UNK        -0.7600 
    123 O         -0.4032  -17.9700  -57.7872 O.2       22 UNK        -0.5000 
    124 C124       -0.3048  -18.6582  -54.8415 C.3       23 UNK        -0.0398 
    125 S125        0.0662  -19.7300  -53.4135 S.3       23 UNK        -0.2404 
    126 C126        1.0805  -18.6098  -52.4101 C.3       23 UNK        -0.0205 
    127 H127        4.2818  -12.3884  -45.5640 H         1 UNK         0.0600 
    128 H128        4.0836  -13.7029  -44.3993 H         1 UNK         0.0600 
    129 H129        4.5450  -14.0586  -46.0689 H         1 UNK         0.0600 
    130 H130        2.7958  -15.1281  -46.9788 H         1 UNK         0.3000 
    131 H131        0.1385  -14.8887  -46.0962 H         1 UNK         0.0600 
    132 H132       -0.3255  -16.2956  -48.2696 H         1 UNK         0.0800 
    133 H133        1.4006  -16.2740  -48.5068 H         1 UNK         0.0800 
    134 H134       -0.1703  -19.7543  -46.8161 H         1 UNK         0.0800 
    135 H135       -1.0358  -18.6067  -47.8040 H         1 UNK         0.0800 
    136 H136       -0.2242  -18.0872  -50.0818 H         1 UNK         0.1150 
    137 H137        2.9589  -20.4571  -51.6984 H         1 UNK         0.1150 
    138 H138        2.0076  -20.6966  -47.5271 H         1 UNK         0.1150 
    139 H139        4.6105  -21.3568  -49.8851 H         1 UNK         0.0800 
    140 H140        3.9586  -21.8180  -48.3388 H         1 UNK         0.0800 
    141 H141        1.1767  -24.4040  -49.7553 H         1 UNK         0.0800 
    142 H142        1.2925  -23.0123  -48.7221 H         1 UNK         0.0800 
    143 H143        2.8995  -25.5956  -48.2987 H         1 UNK         0.0600 
    144 H144        2.8660  -23.0826  -46.8412 H         1 UNK         0.3000 
    145 H145        4.3728  -24.2109  -43.9076 H         1 UNK         0.0600 
    146 H146        5.7929  -22.7098  -46.1783 H         1 UNK         0.0600 
    147 H147        6.2018  -22.6143  -44.4656 H         1 UNK         0.0600 
    148 H148        6.4189  -24.1241  -45.3378 H         1 UNK         0.0600 
    149 H149        3.8106  -21.6438  -45.2076 H         1 UNK         0.3000 
    150 H150        1.2649  -21.1030  -45.3436 H         1 UNK         0.0600 
    151 H151       -0.4036  -22.0619  -43.7683 H         1 UNK         0.0600 
    152 H152       -0.4415  -20.3089  -43.7954 H         1 UNK         0.0600 
    153 H153        0.3181  -21.1534  -42.4440 H         1 UNK         0.0600 
    154 H154        1.9258  -19.4422  -43.0950 H         1 UNK         0.3000 
    155 H155        4.5334  -18.2597  -43.4122 H         1 UNK         0.0600 
    156 H156        5.2691  -17.7249  -45.7148 H         1 UNK         0.0600 
    157 H157        4.8451  -16.2485  -44.8681 H         1 UNK         0.0600 
    158 H158        3.7362  -16.9342  -46.0581 H         1 UNK         0.0600 
    159 H159        1.8035  -17.2518  -43.9675 H         1 UNK         0.3000 
    160 H160        1.6127  -15.9910  -40.7367 H         1 UNK         0.0600 
    161 H161        1.4788  -14.0933  -43.1236 H         1 UNK         0.0600 
    162 H162        2.5892  -13.8910  -41.7725 H         1 UNK         0.0600 
    163 H163        0.8545  -13.8057  -41.5058 H         1 UNK         0.0600 
    164 H164       -0.3148  -15.6891  -42.7603 H         1 UNK         0.3000 
    165 H165       -1.7824  -18.9178  -42.4666 H         1 UNK         0.0600 
    166 H166       -3.6439  -17.5402  -41.6215 H         1 UNK         0.0600 
    167 H167       -2.3748  -17.6758  -40.4146 H         1 UNK         0.0600 
    168 H168       -2.5528  -16.1870  -41.3311 H         1 UNK         0.0600 
    169 H169       -2.3547  -18.1410  -44.4167 H         1 UNK         0.3000 
    170 H170       -1.8661  -16.2231  -46.4225 H         1 UNK         0.0600 
    171 H171       -4.5805  -17.0715  -45.3173 H         1 UNK         0.0600 
    172 H172       -4.2490  -16.8526  -47.0308 H         1 UNK         0.0600 
    173 H173       -3.3774  -18.0747  -46.1267 H         1 UNK         0.0600 
    174 H174       -2.5910  -14.1942  -46.7770 H         1 UNK         0.3000 
    175 H175       -4.6814  -12.7220  -47.1345 H         1 UNK         0.0600 
    176 H176       -6.5238  -12.4329  -45.5200 H         1 UNK         0.0600 
    177 H177       -5.4364  -11.7099  -44.3438 H         1 UNK         0.0600 
    178 H178       -5.7758  -10.8818  -45.8628 H         1 UNK         0.0600 
    179 H179       -2.9051  -11.4155  -46.9822 H         1 UNK         0.3000 
    180 H180       -1.6917   -9.4357  -45.5528 H         1 UNK         0.0600 
    181 H181        0.4710   -9.6005  -44.3040 H         1 UNK         0.0600 
    182 H182        0.0174  -11.2053  -43.7319 H         1 UNK         0.0600 
    183 H183       -0.9149   -9.7948  -43.2437 H         1 UNK         0.0600 
    184 H184        0.2847  -11.5174  -46.1743 H         1 UNK         0.3000 
    185 H185       -0.4630  -11.6471  -49.6224 H         1 UNK         0.0600 
    186 H186        1.9669  -10.2431  -48.3804 H         1 UNK         0.0600 
    187 H187        1.8998  -10.9679  -49.9877 H         1 UNK         0.0600 
    188 H188        0.9173   -9.5601  -49.6168 H         1 UNK         0.0600 
    189 H189        1.7063  -12.6672  -48.0472 H         1 UNK         0.3000 
    190 H190        1.2490  -27.0622  -48.4744 H         1 UNK         0.3000 
    191 H191       -0.6506  -27.3068  -46.2794 H         1 UNK         0.0600 
    192 H192       -0.1651  -29.0965  -48.7256 H         1 UNK         0.0600 
    193 H193       -1.0103  -29.5484  -47.2479 H         1 UNK         0.0600 
    194 H194        0.7093  -29.2328  -47.2019 H         1 UNK         0.0600 
    195 H195       -2.7494  -28.5919  -47.5209 H         1 UNK         0.3000 
    196 H196       -4.7923  -28.3135  -48.3405 H         1 UNK         0.0600 
    197 H197       -5.0061  -27.4766  -50.6541 H         1 UNK         0.0600 
    198 H198       -3.5605  -28.4630  -50.5109 H         1 UNK         0.0600 
    199 H199       -3.4290  -26.7062  -50.5687 H         1 UNK         0.0600 
    200 H200       -4.4608  -26.7743  -46.2352 H         1 UNK         0.3000 
    201 H201       -5.2176  -25.0765  -45.0135 H         1 UNK         0.0600 
    202 H202       -7.4270  -25.7787  -45.9362 H         1 UNK         0.0600 
    203 H203       -7.2519  -24.6357  -47.2666 H         1 UNK         0.0600 
    204 H204       -7.3860  -24.0526  -45.6147 H         1 UNK         0.0600 
    205 H205       -2.9370  -24.4184  -46.0003 H         1 UNK         0.3000 
    206 H206       -1.4753  -22.7995  -46.4310 H         1 UNK         0.0600 
    207 H207       -2.7226  -21.6017  -44.6016 H         1 UNK         0.0600 
    208 H208       -2.0245  -20.4844  -45.7604 H         1 UNK         0.0600 
    209 H209       -3.7422  -20.8239  -45.8068 H         1 UNK         0.0600 
    210 H210       -2.3155  -23.9754  -48.6520 H         1 UNK         0.3000 
    211 H211       -2.5692  -23.9307  -50.8374 H         1 UNK         0.0600 
    212 H212       -1.4062  -21.0938  -50.7152 H         1 UNK         0.0600 
    213 H213       -1.4628  -22.1287  -52.1322 H         1 UNK         0.0600 
    214 H214       -0.4672  -22.5804  -50.7599 H         1 UNK         0.0600 
    215 H215       -4.8988  -23.6767  -49.6249 H         1 UNK         0.3000 
    216 H216       -7.0058  -23.0696  -49.6352 H         1 UNK         0.0600 
    217 H217       -8.0726  -22.5701  -51.8092 H         1 UNK         0.0600 
    218 H218       -6.8533  -23.8167  -52.0236 H         1 UNK         0.0600 
    219 H219       -6.5220  -22.1598  -52.5261 H         1 UNK         0.0600 
    220 H220       -5.5934  -21.3442  -48.2327 H         1 UNK         0.3000 
    221 H221       -5.2304  -19.3212  -47.4212 H         1 UNK         0.0600 
    222 H222       -7.9805  -18.6046  -48.5727 H         1 UNK         0.0600 
    223 H223       -7.6910  -19.3948  -47.0232 H         1 UNK         0.0600 
    224 H224       -7.1378  -17.7486  -47.2878 H         1 UNK         0.0600 
    225 H225       -3.7657  -19.6943  -49.5042 H         1 UNK         0.3000 
    226 H226       -2.4239  -18.8914  -51.0118 H         1 UNK         0.0600 
    227 H227       -3.4871  -16.0740  -50.4534 H         1 UNK         0.0600 
    228 H228       -2.2952  -16.8953  -49.4527 H         1 UNK         0.0600 
    229 H229       -1.9233  -16.5043  -51.1264 H         1 UNK         0.0600 
    230 H230       -5.6435  -19.0271  -51.6833 H         1 UNK         0.3000 
    231 H231       -5.7992  -17.5251  -54.1271 H         1 UNK         0.0600 
    232 H232       -7.9803  -18.5847  -54.3846 H         1 UNK         0.0600 
    233 H233       -7.7837  -18.1429  -52.6945 H         1 UNK         0.0600 
    234 H234       -7.5917  -19.8226  -53.2023 H         1 UNK         0.0600 
    235 H235       -4.6486  -20.7937  -53.3944 H         1 UNK         0.3000 
    236 H236       -4.9046  -21.8377  -56.0814 H         1 UNK         0.0600 
    237 H237       -3.1166  -22.7938  -53.7885 H         1 UNK         0.0600 
    238 H238       -4.7969  -23.2807  -54.0206 H         1 UNK         0.0600 
    239 H239       -3.5793  -23.7126  -55.2109 H         1 UNK         0.0600 
    240 H240       -2.6849  -19.6508  -54.6062 H         1 UNK         0.3000 
    241 H241       -0.4172  -20.1844  -56.3385 H         1 UNK         0.0600 
    242 H242       -2.7479  -17.5809  -58.3380 H         1 UNK         0.3800 
    243 H243       -3.3779  -18.5835  -57.0557 H         1 UNK         0.3800 
    244 H244       -0.8768  -17.7983  -54.4893 H         1 UNK         0.0800 
    245 H245        0.6376  -18.2661  -55.2279 H         1 UNK         0.0800 
    246 H246        2.0261  -18.4176  -52.9193 H         1 UNK         0.0800 
    247 H247        0.5752  -17.6472  -52.3154 H         1 UNK         0.0800 
@<TRIPOS>BOND
     1    1    2 1    
     2    1  127 1    
     3    1  128 1    
     4    1  129 1    
     5    2    3 2    
     6    2    4 am   BACKBONE|DICT|INTERRES
     7    4    5 1    
     8    4  130 1    
     9    5    6 1    
    10    5   65 1    
    11    5  131 1    
    12    6    7 1    
    13    6  132 1    
    14    6  133 1    
    15    7    8 1    
    16    8    9 1    
    17    8  134 1    
    18    8  135 1    
    19    9   10 ar   
    20    9   14 ar   
    21   10   11 ar   
    22   10  136 1    
    23   11   12 ar   
    24   11  126 1    
    25   12   13 ar   
    26   12  137 1    
    27   13   14 ar   
    28   13   15 1    
    29   14  138 1    
    30   15   16 1    
    31   15  139 1    
    32   15  140 1    
    33   16   17 1    
    34   17   18 1    
    35   17  141 1    
    36   17  142 1    
    37   18   19 1    
    38   18   67 1    
    39   18  143 1    
    40   19   20 am   BACKBONE|DICT|INTERRES
    41   19  144 1    
    42   20   21 2    
    43   20   22 1    
    44   22   23 1    
    45   22   24 1    
    46   22  145 1    
    47   23  146 1    
    48   23  147 1    
    49   23  148 1    
    50   24   25 am   BACKBONE|DICT|INTERRES
    51   24  149 1    
    52   25   26 2    
    53   25   27 1    
    54   27   28 1    
    55   27   29 1    
    56   27  150 1    
    57   28  151 1    
    58   28  152 1    
    59   28  153 1    
    60   29   30 am   BACKBONE|DICT|INTERRES
    61   29  154 1    
    62   30   31 2    
    63   30   32 1    
    64   32   33 1    
    65   32   34 1    
    66   32  155 1    
    67   33  156 1    
    68   33  157 1    
    69   33  158 1    
    70   34   35 am   BACKBONE|DICT|INTERRES
    71   34  159 1    
    72   35   36 2    
    73   35   37 1    
    74   37   38 1    
    75   37   39 1    
    76   37  160 1    
    77   38  161 1    
    78   38  162 1    
    79   38  163 1    
    80   39   40 am   BACKBONE|DICT|INTERRES
    81   39  164 1    
    82   40   41 2    
    83   40   42 1    
    84   42   43 1    
    85   42   44 1    
    86   42  165 1    
    87   43  166 1    
    88   43  167 1    
    89   43  168 1    
    90   44   45 am   BACKBONE|DICT|INTERRES
    91   44  169 1    
    92   45   46 2    
    93   45   47 1    
    94   47   48 1    
    95   47   49 1    
    96   47  170 1    
    97   48  171 1    
    98   48  172 1    
    99   48  173 1    
   100   49   50 am   BACKBONE|DICT|INTERRES
   101   49  174 1    
   102   50   51 2    
   103   50   52 1    
   104   52   53 1    
   105   52   54 1    
   106   52  175 1    
   107   53  176 1    
   108   53  177 1    
   109   53  178 1    
   110   54   55 am   BACKBONE|DICT|INTERRES
   111   54  179 1    
   112   55   56 2    
   113   55   57 1    
   114   57   58 1    
   115   57   59 1    
   116   57  180 1    
   117   58  181 1    
   118   58  182 1    
   119   58  183 1    
   120   59   60 am   BACKBONE|DICT|INTERRES
   121   59  184 1    
   122   60   61 2    
   123   60   62 1    
   124   62   63 1    
   125   62   64 1    
   126   62  185 1    
   127   63  186 1    
   128   63  187 1    
   129   63  188 1    
   130   64   65 am   BACKBONE|DICT|INTERRES
   131   64  189 1    
   132   65   66 2    
   133   67   68 2    
   134   67   69 am   BACKBONE|DICT|INTERRES
   135   69   70 1    
   136   69  190 1    
   137   70   71 1    
   138   70   72 1    
   139   70  191 1    
   140   71  192 1    
   141   71  193 1    
   142   71  194 1    
   143   72   73 2    
   144   72   74 am   BACKBONE|DICT|INTERRES
   145   74   75 1    
   146   74  195 1    
   147   75   76 1    
   148   75   77 1    
   149   75  196 1    
   150   76  197 1    
   151   76  198 1    
   152   76  199 1    
   153   77   78 2    
   154   77   79 am   BACKBONE|DICT|INTERRES
   155   79   80 1    
   156   79  200 1    
   157   80   81 1    
   158   80   82 1    
   159   80  201 1    
   160   81  202 1    
   161   81  203 1    
   162   81  204 1    
   163   82   83 2    
   164   82   84 am   BACKBONE|DICT|INTERRES
   165   84   85 1    
   166   84  205 1    
   167   85   86 1    
   168   85   87 1    
   169   85  206 1    
   170   86  207 1    
   171   86  208 1    
   172   86  209 1    
   173   87   88 2    
   174   87   89 am   BACKBONE|DICT|INTERRES
   175   89   90 1    
   176   89  210 1    
   177   90   91 1    
   178   90   92 1    
   179   90  211 1    
   180   91  212 1    
   181   91  213 1    
   182   91  214 1    
   183   92   93 2    
   184   92   94 am   BACKBONE|DICT|INTERRES
   185   94   95 1    
   186   94  215 1    
   187   95   96 1    
   188   95   97 1    
   189   95  216 1    
   190   96  217 1    
   191   96  218 1    
   192   96  219 1    
   193   97   98 2    
   194   97   99 am   BACKBONE|DICT|INTERRES
   195   99  100 1    
   196   99  220 1    
   197  100  101 1    
   198  100  102 1    
   199  100  221 1    
   200  101  222 1    
   201  101  223 1    
   202  101  224 1    
   203  102  103 2    
   204  102  104 am   BACKBONE|DICT|INTERRES
   205  104  105 1    
   206  104  225 1    
   207  105  106 1    
   208  105  107 1    
   209  105  226 1    
   210  106  227 1    
   211  106  228 1    
   212  106  229 1    
   213  107  108 2    
   214  107  109 am   BACKBONE|DICT|INTERRES
   215  109  110 1    
   216  109  230 1    
   217  110  111 1    
   218  110  112 1    
   219  110  231 1    
   220  111  232 1    
   221  111  233 1    
   222  111  234 1    
   223  112  113 2    
   224  112  114 am   BACKBONE|DICT|INTERRES
   225  114  115 1    
   226  114  235 1    
   227  115  116 1    
   228  115  117 1    
   229  115  236 1    
   230  116  237 1    
   231  116  238 1    
   232  116  239 1    
   233  117  118 2    
   234  117  119 am   BACKBONE|DICT|INTERRES
   235  119  120 1    
   236  119  240 1    
   237  120  121 1    
   238  120  124 1    
   239  120  241 1    
   240  121  122 am   BACKBONE|DICT|INTERRES
   241  121  123 2    
   242  122  242 1    
   243  122  243 1    
   244  124  125 1    
   245  124  244 1    
   246  124  245 1    
   247  125  126 1    
   248  126  246 1    
   249  126  247 1    
@<TRIPOS>SUBSTRUCTURE
     1 UNK         1 GROUP             0       ****    0 ROOT    
