@<TRIPOS>MOLECULE
3R540
247   249    1
SMALL
USER_CHARGES


@<TRIPOS>ATOM
      1 CA         -2.0923  -17.7699  -49.4143 C.3       0 UNK        -0.1800 
      2 C          -1.7487  -16.3088  -49.1686 C.2       0 UNK         0.5000 
      3 O          -2.6202  -15.5387  -48.7647 O.2       0 UNK        -0.5000 
      4 N          -0.4922  -15.9212  -49.4196 N.am      1 UNK        -0.5000 
      5 CA          0.0159  -14.5618  -49.2034 C.3       1 UNK         0.1400 
      6 C6          1.3693  -14.3188  -49.9148 C.3       23 UNK        -0.0398 
      7 S7          1.2429  -14.5230  -51.7258 S.3       23 UNK        -0.2404 
      8 C8          2.4924  -15.8041  -52.0648 C.3       23 UNK        -0.0205 
      9 C9          2.1437  -17.1392  -51.4246 C.ar      23 UNK        -0.0193 
     10 C10         1.1230  -17.9318  -51.9570 C.ar      23 UNK        -0.1150 
     11 C11         0.8029  -19.1610  -51.3737 C.ar      23 UNK        -0.0193 
     12 C12         1.5133  -19.5986  -50.2538 C.ar      23 UNK        -0.1150 
     13 C13         2.5324  -18.8112  -49.7100 C.ar      23 UNK        -0.0193 
     14 C14         2.8471  -17.5864  -50.3029 C.ar      23 UNK        -0.1150 
     15 C15         3.2889  -19.2769  -48.4761 C.3       23 UNK        -0.0205 
     16 S16         2.7450  -18.4176  -46.9618 S.3       23 UNK        -0.2404 
     17 C17         0.9457  -18.7268  -46.9432 C.3       23 UNK        -0.0398 
     18 CA          0.5800  -20.2084  -46.6892 C.3       11 UNK         0.1400 
     19 N           0.9352  -20.6591  -45.3407 N.am      11 UNK        -0.5000 
     20 C           0.9225  -21.9365  -44.9363 C.2       10 UNK         0.5000 
     21 O           0.6604  -22.8820  -45.6788 O.2       10 UNK        -0.5000 
     22 CA          1.1981  -22.2026  -43.4443 C.3       10 UNK         0.1400 
     23 CB          2.7059  -22.2436  -43.1540 C.3       10 UNK        -0.1800 
     24 N           0.5464  -21.2220  -42.5741 N.am      10 UNK        -0.5000 
     25 C          -0.7823  -21.1206  -42.4225 C.2       9 UNK         0.5000 
     26 O          -1.5884  -21.8813  -42.9566 O.2       9 UNK        -0.5000 
     27 CA         -1.3052  -19.9541  -41.5641 C.3       9 UNK         0.1400 
     28 CB         -1.2686  -20.3197  -40.0730 C.3       9 UNK        -0.1800 
     29 N          -0.5701  -18.7084  -41.7873 N.am      9 UNK        -0.5000 
     30 C          -0.5332  -18.0483  -42.9547 C.2       8 UNK         0.5000 
     31 O          -1.1659  -18.3906  -43.9527 O.2       8 UNK        -0.5000 
     32 CA          0.4197  -16.8431  -43.0443 C.3       8 UNK         0.1400 
     33 CB         -0.2217  -15.5860  -42.4398 C.3       8 UNK        -0.1800 
     34 N           1.7024  -17.0981  -42.3914 N.am      8 UNK        -0.5000 
     35 C           2.5668  -18.0584  -42.7425 C.2       7 UNK         0.5000 
     36 O           2.3821  -18.8322  -43.6784 O.2       7 UNK        -0.5000 
     37 CA          3.8140  -18.2228  -41.8608 C.3       7 UNK         0.1400 
     38 CB          4.8862  -17.1786  -42.2070 C.3       7 UNK        -0.1800 
     39 N           3.4802  -18.1352  -40.4406 N.am      7 UNK        -0.5000 
     40 C           2.8444  -19.0932  -39.7539 C.2       6 UNK         0.5000 
     41 O           2.5027  -20.1711  -40.2417 O.2       6 UNK        -0.5000 
     42 CA          2.5163  -18.7836  -38.2807 C.3       6 UNK         0.1400 
     43 CB          3.7177  -19.1076  -37.3802 C.3       6 UNK        -0.1800 
     44 N           2.1088  -17.3933  -38.0618 N.am      6 UNK        -0.5000 
     45 C           0.9594  -16.8706  -38.5096 C.2       5 UNK         0.5000 
     46 O           0.1302  -17.5041  -39.1626 O.2       5 UNK        -0.5000 
     47 CA          0.7094  -15.3774  -38.2169 C.3       5 UNK         0.1400 
     48 CB          0.2173  -15.1874  -36.7739 C.3       5 UNK        -0.1800 
     49 N           1.8432  -14.4755  -38.4665 N.am      5 UNK        -0.5000 
     50 C           2.5821  -14.4420  -39.5832 C.2       4 UNK         0.5000 
     51 O           2.5375  -15.3062  -40.4588 O.2       4 UNK        -0.5000 
     52 CA          3.5384  -13.2469  -39.7671 C.3       4 UNK         0.1400 
     53 CB          4.8987  -13.5486  -39.1207 C.3       4 UNK        -0.1800 
     54 N           3.7420  -12.9627  -41.1920 N.am      4 UNK        -0.5000 
     55 C           2.7672  -12.5845  -42.0308 C.2       3 UNK         0.5000 
     56 O           1.6543  -12.2048  -41.6510 O.2       3 UNK        -0.5000 
     57 CA          3.0609  -12.6893  -43.5395 C.3       3 UNK         0.1400 
     58 CB          3.7706  -14.0134  -43.9042 C.3       3 UNK        -0.1800 
     59 N           1.7845  -12.5938  -44.2409 N.am      3 UNK        -0.5000 
     60 C           1.5939  -12.4384  -45.5523 C.2       2 UNK         0.5000 
     61 O           2.5039  -12.2925  -46.3728 O.2       2 UNK        -0.5000 
     62 CA          0.1245  -12.4121  -46.0140 C.3       2 UNK         0.1400 
     63 CB         -0.4268  -10.9782  -45.9798 C.3       2 UNK        -0.1800 
     64 N          -0.0348  -12.9491  -47.3650 N.am      2 UNK        -0.5000 
     65 C           0.1314  -14.2356  -47.6990 C.2       1 UNK         0.5000 
     66 O           0.3811  -15.1298  -46.8859 O.2       1 UNK        -0.5000 
     67 C          -0.9024  -20.4729  -47.0183 C.2       11 UNK         0.5000 
     68 O          -1.2011  -20.9315  -48.1194 O.2       11 UNK        -0.5000 
     69 N          -1.8019  -20.2297  -46.0558 N.am      12 UNK        -0.5000 
     70 CA         -3.2346  -20.5168  -46.1677 C.3       12 UNK         0.1400 
     71 CB         -3.9717  -19.8598  -44.9914 C.3       12 UNK        -0.1800 
     72 C          -3.5622  -22.0231  -46.2396 C.2       12 UNK         0.5000 
     73 O          -4.6204  -22.3859  -46.7526 O.2       12 UNK        -0.5000 
     74 N          -2.6563  -22.8703  -45.7349 N.am      13 UNK        -0.5000 
     75 CA         -2.7583  -24.3287  -45.7679 C.3       13 UNK         0.1400 
     76 CB         -2.0180  -24.9060  -44.5498 C.3       13 UNK        -0.1800 
     77 C          -2.2341  -24.9503  -47.0798 C.2       13 UNK         0.5000 
     78 O          -2.3378  -26.1684  -47.2386 O.2       13 UNK        -0.5000 
     79 N          -1.6757  -24.1382  -47.9912 N.am      14 UNK        -0.5000 
     80 CA         -1.2036  -24.5738  -49.3078 C.3       14 UNK         0.1400 
     81 CB         -0.3764  -23.4493  -49.9468 C.3       14 UNK        -0.1800 
     82 C          -2.3601  -24.9936  -50.2384 C.2       14 UNK         0.5000 
     83 O          -3.5101  -24.6043  -50.0155 O.2       14 UNK        -0.5000 
     84 N          -2.0175  -25.7810  -51.2678 N.am      15 UNK        -0.5000 
     85 CA         -2.9221  -26.3707  -52.2578 C.3       15 UNK         0.1400 
     86 CB         -2.0939  -27.1926  -53.2596 C.3       15 UNK        -0.1800 
     87 C          -3.7947  -25.3258  -52.9798 C.2       15 UNK         0.5000 
     88 O          -3.3094  -24.6390  -53.8823 O.2       15 UNK        -0.5000 
     89 N          -5.0568  -25.2228  -52.5359 N.am      16 UNK        -0.5000 
     90 CA         -6.0855  -24.2856  -52.9947 C.3       16 UNK         0.1400 
     91 CB         -6.6817  -24.7576  -54.3377 C.3       16 UNK        -0.1800 
     92 C          -5.6215  -22.8118  -52.9551 C.2       16 UNK         0.5000 
     93 O          -5.7804  -22.0705  -53.9279 O.2       16 UNK        -0.5000 
     94 N          -5.0412  -22.4307  -51.8071 N.am      17 UNK        -0.5000 
     95 CA         -4.5875  -21.0828  -51.4668 C.3       17 UNK         0.1400 
     96 CB         -4.0436  -21.0912  -50.0309 C.3       17 UNK        -0.1800 
     97 C          -5.7009  -20.0326  -51.6317 C.2       17 UNK         0.5000 
     98 O          -6.6940  -20.0763  -50.9028 O.2       17 UNK        -0.5000 
     99 N          -5.5172  -19.1412  -52.6145 N.am      18 UNK        -0.5000 
    100 CA        -6.4425  -18.0946  -53.0581 C.3       18 UNK         0.1400 
    101 CB        -6.6725  -17.0515  -51.9441 C.3       18 UNK        -0.1800 
    102 C         -7.7603  -18.6387  -53.6560 C.2       18 UNK         0.5000 
    103 O         -8.7528  -17.9098  -53.7010 O.2       18 UNK        -0.5000 
    104 N         -7.7476  -19.8927  -54.1281 N.am      19 UNK        -0.5000 
    105 CA        -8.8859  -20.5895  -54.7247 C.3       19 UNK         0.1400 
    106 CB        -9.3560  -21.7043  -53.7723 C.3       19 UNK        -0.1800 
    107 C         -8.5148  -21.0965  -56.1302 C.2       19 UNK         0.5000 
    108 O         -8.7592  -22.2582  -56.4592 O.2       19 UNK        -0.5000 
    109 N         -7.9381  -20.1920  -56.9363 N.am      20 UNK        -0.5000 
    110 CA        -7.5653  -20.3633  -58.3469 C.3       20 UNK         0.1400 
    111 CB        -8.8162  -20.5944  -59.2220 C.3       20 UNK        -0.1800 
    112 C         -6.4582  -21.4140  -58.5838 C.2       20 UNK         0.5000 
    113 O         -6.4691  -22.1041  -59.6055 O.2       20 UNK        -0.5000 
    114 N         -5.5048  -21.4939  -57.6500 N.am      21 UNK        -0.5000 
    115 CA        -4.3045  -22.3183  -57.7436 C.3       21 UNK         0.1400 
    116 CB        -4.5343  -23.6611  -57.0312 C.3       21 UNK        -0.1800 
    117 C         -3.1373  -21.4976  -57.1795 C.2       21 UNK         0.5000 
    118 O         -2.6633  -20.5920  -57.8677 O.2       21 UNK        -0.5000 
    119 N         -2.7062  -21.7988  -55.9477 N.am      22 UNK        -0.5000 
    120 CA        -1.7137  -21.0169  -55.2003 C.3       22 UNK         0.1400 
    121 C         -2.2364  -19.5863  -54.8824 C.2       22 UNK         0.5000 
    122 N         -1.4656  -18.5486  -55.1758 N.am      22 UNK        -0.7600 
    123 O         -3.3227  -19.4156  -54.3350 O.2       22 UNK        -0.5000 
    124 C124       -1.2718  -21.7726  -53.9199 C.3       23 UNK        -0.0398 
    125 S125        0.2911  -21.1386  -53.2246 S.3       23 UNK        -0.2404 
    126 C126       -0.3241  -20.0047  -51.9408 C.3       23 UNK        -0.0205 
    127 H127       -2.6219  -18.1788  -48.5539 H         1 UNK         0.0600 
    128 H128       -2.7345  -17.8620  -50.2902 H         1 UNK         0.0600 
    129 H129       -1.2025  -18.3750  -49.5768 H         1 UNK         0.0600 
    130 H130        0.1850  -16.5893  -49.7593 H         1 UNK         0.3000 
    131 H131       -0.7135  -13.8718  -49.6340 H         1 UNK         0.0600 
    132 H132        1.7193  -13.3015  -49.7300 H         1 UNK         0.0800 
    133 H133        2.1399  -14.9754  -49.5094 H         1 UNK         0.0800 
    134 H134        3.4687  -15.4535  -51.7261 H         1 UNK         0.0800 
    135 H135        2.5757  -15.9368  -53.1444 H         1 UNK         0.0800 
    136 H136        0.5752  -17.5892  -52.8241 H         1 UNK         0.1150 
    137 H137        1.2624  -20.5485  -49.8029 H         1 UNK         0.1150 
    138 H138        3.6365  -16.9793  -49.8822 H         1 UNK         0.1150 
    139 H139        3.1902  -20.3549  -48.3447 H         1 UNK         0.0800 
    140 H140        4.3548  -19.0921  -48.6168 H         1 UNK         0.0800 
    141 H141        0.5324  -18.3713  -47.8866 H         1 UNK         0.0800 
    142 H142        0.5024  -18.0907  -46.1757 H         1 UNK         0.0800 
    143 H143        1.1502  -20.8241  -47.3856 H         1 UNK         0.0600 
    144 H144        1.2469  -19.9430  -44.6884 H         1 UNK         0.3000 
    145 H145        0.7868  -23.1853  -43.2036 H         1 UNK         0.0600 
    146 H146        2.8992  -22.4698  -42.1051 H         1 UNK         0.0600 
    147 H147        3.1943  -23.0158  -43.7494 H         1 UNK         0.0600 
    148 H148        3.1927  -21.2971  -43.3861 H         1 UNK         0.0600 
    149 H149        1.1481  -20.5667  -42.0917 H         1 UNK         0.3000 
    150 H150       -2.3461  -19.7796  -41.8438 H         1 UNK         0.0600 
    151 H151       -1.8076  -21.2490  -39.8843 H         1 UNK         0.0600 
    152 H152       -1.7371  -19.5445  -39.4666 H         1 UNK         0.0600 
    153 H153       -0.2471  -20.4526  -39.7156 H         1 UNK         0.0600 
    154 H154       -0.0621  -18.3325  -40.9929 H         1 UNK         0.3000 
    155 H155        0.6187  -16.6498  -44.1006 H         1 UNK         0.0600 
    156 H156       -0.4281  -15.7114  -41.3765 H         1 UNK         0.0600 
    157 H157       -1.1645  -15.3516  -42.9353 H         1 UNK         0.0600 
    158 H158        0.4305  -14.7204  -42.5519 H         1 UNK         0.0600 
    159 H159        1.9487  -16.4895  -41.6114 H         1 UNK         0.3000 
    160 H160        4.2326  -19.2119  -42.0592 H         1 UNK         0.0600 
    161 H161        5.8123  -17.3744  -41.6666 H         1 UNK         0.0600 
    162 H162        4.5643  -16.1680  -41.9579 H         1 UNK         0.0600 
    163 H163        5.1203  -17.1967  -43.2723 H         1 UNK         0.0600 
    164 H164        3.6320  -17.2406  -39.9957 H         1 UNK         0.3000 
    165 H165        1.6872  -19.4304  -37.9853 H         1 UNK         0.0600 
    166 H166        3.4691  -18.9724  -36.3274 H         1 UNK         0.0600 
    167 H167        4.0326  -20.1442  -37.5081 H         1 UNK         0.0600 
    168 H168        4.5754  -18.4733  -37.6076 H         1 UNK         0.0600 
    169 H169        2.7451  -16.7996  -37.5504 H         1 UNK         0.3000 
    170 H170       -0.0926  -15.0577  -38.8851 H         1 UNK         0.0600 
    171 H171       -0.6352  -15.8343  -36.5620 H         1 UNK         0.0600 
    172 H172        0.9969  -15.4230  -36.0484 H         1 UNK         0.0600 
    173 H173       -0.1057  -14.1611  -36.5985 H         1 UNK         0.0600 
    174 H174        1.9723  -13.7391  -37.7879 H         1 UNK         0.3000 
    175 H175        3.1019  -12.3649  -39.2943 H         1 UNK         0.0600 
    176 H176        5.3699  -14.4265  -39.5653 H         1 UNK         0.0600 
    177 H177        5.5833  -12.7075  -39.2316 H         1 UNK         0.0600 
    178 H178        4.7912  -13.7397  -38.0522 H         1 UNK         0.0600 
    179 H179        4.6166  -13.2775  -41.5840 H         1 UNK         0.3000 
    180 H180        3.6879  -11.8422  -43.8234 H         1 UNK         0.0600 
    181 H181        3.1823  -14.8768  -43.5915 H         1 UNK         0.0600 
    182 H182        4.7506  -14.0883  -43.4330 H         1 UNK         0.0600 
    183 H183        3.9363  -14.1010  -44.9776 H         1 UNK         0.0600 
    184 H184        0.9895  -12.6153  -43.6132 H         1 UNK         0.3000 
    185 H185       -0.4670  -13.0286  -45.3331 H         1 UNK         0.0600 
    186 H186       -0.3534  -10.5545  -44.9773 H         1 UNK         0.0600 
    187 H187        0.1219  -10.3198  -46.6546 H         1 UNK         0.0600 
    188 H188       -1.4786  -10.9520  -46.2654 H         1 UNK         0.0600 
    189 H189       -0.2089  -12.2711  -48.0923 H         1 UNK         0.3000 
    190 H190       -1.4943  -19.7877  -45.1928 H         1 UNK         0.3000 
    191 H191       -3.5968  -20.0617  -47.0915 H         1 UNK         0.0600 
    192 H192       -3.6360  -20.2606  -44.0346 H         1 UNK         0.0600 
    193 H193       -5.0472  -20.0275  -45.0597 H         1 UNK         0.0600 
    194 H194       -3.8109  -18.7816  -44.9780 H         1 UNK         0.0600 
    195 H195       -1.8268  -22.4876  -45.3006 H         1 UNK         0.3000 
    196 H196       -3.8093  -24.6113  -45.6799 H         1 UNK         0.0600 
    197 H197       -2.1293  -25.9898  -44.4999 H         1 UNK         0.0600 
    198 H198       -2.4127  -24.4983  -43.6190 H         1 UNK         0.0600 
    199 H199       -0.9509  -24.6886  -44.5845 H         1 UNK         0.0600 
    200 H200       -1.6417  -23.1443  -47.8050 H         1 UNK         0.3000 
    201 H201       -0.5522  -25.4374  -49.1585 H         1 UNK         0.0600 
    202 H202        0.4214  -23.1140  -49.2835 H         1 UNK         0.0600 
    203 H203       -1.0006  -22.5903  -50.1829 H         1 UNK         0.0600 
    204 H204        0.0887  -23.7775  -50.8770 H         1 UNK         0.0600 
    205 H205       -1.0427  -26.0173  -51.3803 H         1 UNK         0.3000 
    206 H206       -3.5799  -27.0624  -51.7278 H         1 UNK         0.0600 
    207 H207       -1.5603  -28.0024  -52.7616 H         1 UNK         0.0600 
    208 H208       -2.7351  -27.6451  -54.0172 H         1 UNK         0.0600 
    209 H209       -1.3591  -26.5754  -53.7784 H         1 UNK         0.0600 
    210 H210       -5.3219  -25.7987  -51.7489 H         1 UNK         0.3000 
    211 H211       -6.8934  -24.3353  -52.2632 H         1 UNK         0.0600 
    212 H212       -5.9173  -25.1161  -55.0238 H         1 UNK         0.0600 
    213 H213       -7.2444  -23.9733  -54.8436 H         1 UNK         0.0600 
    214 H214       -7.3702  -25.5867  -54.1758 H         1 UNK         0.0600 
    215 H215       -4.9037  -23.1330  -51.0907 H         1 UNK         0.3000 
    216 H216       -3.7661  -20.8268  -52.1334 H         1 UNK         0.0600 
    217 H217       -3.6847  -20.1050  -49.7407 H         1 UNK         0.0600 
    218 H218       -3.2092  -21.7831  -49.9252 H         1 UNK         0.0600 
    219 H219       -4.8107  -21.3850  -49.3139 H         1 UNK         0.0600 
    220 H220       -4.6839  -19.2393  -53.1963 H         1 UNK         0.3000 
    221 H221       -5.9353  -17.5859  -53.8790 H         1 UNK         0.0600 
    222 H222       -7.2513  -17.4621  -51.1164 H         1 UNK         0.0600 
    223 H223       -5.7265  -16.6864  -51.5440 H         1 UNK         0.0600 
    224 H224       -7.2172  -16.1865  -52.3240 H         1 UNK         0.0600 
    225 H225       -6.8930  -20.4395  -54.0578 H         1 UNK         0.3000 
    226 H226       -9.7235  -19.9039  -54.8661 H         1 UNK         0.0600 
    227 H227       -9.6471  -21.2947  -52.8049 H         1 UNK         0.0600 
    228 H228      -10.2227  -22.2282  -54.1769 H         1 UNK         0.0600 
    229 H229       -8.5755  -22.4429  -53.5977 H         1 UNK         0.0600 
    230 H230       -7.7688  -19.2730  -56.5522 H         1 UNK         0.3000 
    231 H231       -7.1320  -19.4110  -58.6558 H         1 UNK         0.0600 
    232 H232       -9.5674  -19.8239  -59.0482 H         1 UNK         0.0600 
    233 H233       -9.2765  -21.5629  -59.0247 H         1 UNK         0.0600 
    234 H234       -8.5634  -20.5640  -60.2825 H         1 UNK         0.0600 
    235 H235       -5.5612  -20.8881  -56.8430 H         1 UNK         0.3000 
    236 H236       -4.0670  -22.5211  -58.7901 H         1 UNK         0.0600 
    237 H237       -3.6475  -24.2940  -57.0806 H         1 UNK         0.0600 
    238 H238       -4.7759  -23.5059  -55.9823 H         1 UNK         0.0600 
    239 H239       -5.3572  -24.2131  -57.4854 H         1 UNK         0.0600 
    240 H240       -3.1687  -22.5398  -55.4374 H         1 UNK         0.3000 
    241 H241       -0.8407  -20.9259  -55.8500 H         1 UNK         0.0600 
    242 H242       -1.7976  -17.6202  -54.9698 H         1 UNK         0.3800 
    243 H243       -0.5702  -18.6672  -55.6230 H         1 UNK         0.3800 
    244 H244       -2.0527  -21.7803  -53.1611 H         1 UNK         0.0800 
    245 H245       -1.0958  -22.8222  -54.1609 H         1 UNK         0.0800 
    246 H246       -1.0923  -19.3481  -52.3476 H         1 UNK         0.0800 
    247 H247       -0.8071  -20.5700  -51.1444 H         1 UNK         0.0800 
@<TRIPOS>BOND
     1    1    2 1    
     2    1  127 1    
     3    1  128 1    
     4    1  129 1    
     5    2    3 2    
     6    2    4 am   BACKBONE|DICT|INTERRES
     7    4    5 1    
     8    4  130 1    
     9    5    6 1    
    10    5   65 1    
    11    5  131 1    
    12    6    7 1    
    13    6  132 1    
    14    6  133 1    
    15    7    8 1    
    16    8    9 1    
    17    8  134 1    
    18    8  135 1    
    19    9   10 ar   
    20    9   14 ar   
    21   10   11 ar   
    22   10  136 1    
    23   11   12 ar   
    24   11  126 1    
    25   12   13 ar   
    26   12  137 1    
    27   13   14 ar   
    28   13   15 1    
    29   14  138 1    
    30   15   16 1    
    31   15  139 1    
    32   15  140 1    
    33   16   17 1    
    34   17   18 1    
    35   17  141 1    
    36   17  142 1    
    37   18   19 1    
    38   18   67 1    
    39   18  143 1    
    40   19   20 am   BACKBONE|DICT|INTERRES
    41   19  144 1    
    42   20   21 2    
    43   20   22 1    
    44   22   23 1    
    45   22   24 1    
    46   22  145 1    
    47   23  146 1    
    48   23  147 1    
    49   23  148 1    
    50   24   25 am   BACKBONE|DICT|INTERRES
    51   24  149 1    
    52   25   26 2    
    53   25   27 1    
    54   27   28 1    
    55   27   29 1    
    56   27  150 1    
    57   28  151 1    
    58   28  152 1    
    59   28  153 1    
    60   29   30 am   BACKBONE|DICT|INTERRES
    61   29  154 1    
    62   30   31 2    
    63   30   32 1    
    64   32   33 1    
    65   32   34 1    
    66   32  155 1    
    67   33  156 1    
    68   33  157 1    
    69   33  158 1    
    70   34   35 am   BACKBONE|DICT|INTERRES
    71   34  159 1    
    72   35   36 2    
    73   35   37 1    
    74   37   38 1    
    75   37   39 1    
    76   37  160 1    
    77   38  161 1    
    78   38  162 1    
    79   38  163 1    
    80   39   40 am   BACKBONE|DICT|INTERRES
    81   39  164 1    
    82   40   41 2    
    83   40   42 1    
    84   42   43 1    
    85   42   44 1    
    86   42  165 1    
    87   43  166 1    
    88   43  167 1    
    89   43  168 1    
    90   44   45 am   BACKBONE|DICT|INTERRES
    91   44  169 1    
    92   45   46 2    
    93   45   47 1    
    94   47   48 1    
    95   47   49 1    
    96   47  170 1    
    97   48  171 1    
    98   48  172 1    
    99   48  173 1    
   100   49   50 am   BACKBONE|DICT|INTERRES
   101   49  174 1    
   102   50   51 2    
   103   50   52 1    
   104   52   53 1    
   105   52   54 1    
   106   52  175 1    
   107   53  176 1    
   108   53  177 1    
   109   53  178 1    
   110   54   55 am   BACKBONE|DICT|INTERRES
   111   54  179 1    
   112   55   56 2    
   113   55   57 1    
   114   57   58 1    
   115   57   59 1    
   116   57  180 1    
   117   58  181 1    
   118   58  182 1    
   119   58  183 1    
   120   59   60 am   BACKBONE|DICT|INTERRES
   121   59  184 1    
   122   60   61 2    
   123   60   62 1    
   124   62   63 1    
   125   62   64 1    
   126   62  185 1    
   127   63  186 1    
   128   63  187 1    
   129   63  188 1    
   130   64   65 am   BACKBONE|DICT|INTERRES
   131   64  189 1    
   132   65   66 2    
   133   67   68 2    
   134   67   69 am   BACKBONE|DICT|INTERRES
   135   69   70 1    
   136   69  190 1    
   137   70   71 1    
   138   70   72 1    
   139   70  191 1    
   140   71  192 1    
   141   71  193 1    
   142   71  194 1    
   143   72   73 2    
   144   72   74 am   BACKBONE|DICT|INTERRES
   145   74   75 1    
   146   74  195 1    
   147   75   76 1    
   148   75   77 1    
   149   75  196 1    
   150   76  197 1    
   151   76  198 1    
   152   76  199 1    
   153   77   78 2    
   154   77   79 am   BACKBONE|DICT|INTERRES
   155   79   80 1    
   156   79  200 1    
   157   80   81 1    
   158   80   82 1    
   159   80  201 1    
   160   81  202 1    
   161   81  203 1    
   162   81  204 1    
   163   82   83 2    
   164   82   84 am   BACKBONE|DICT|INTERRES
   165   84   85 1    
   166   84  205 1    
   167   85   86 1    
   168   85   87 1    
   169   85  206 1    
   170   86  207 1    
   171   86  208 1    
   172   86  209 1    
   173   87   88 2    
   174   87   89 am   BACKBONE|DICT|INTERRES
   175   89   90 1    
   176   89  210 1    
   177   90   91 1    
   178   90   92 1    
   179   90  211 1    
   180   91  212 1    
   181   91  213 1    
   182   91  214 1    
   183   92   93 2    
   184   92   94 am   BACKBONE|DICT|INTERRES
   185   94   95 1    
   186   94  215 1    
   187   95   96 1    
   188   95   97 1    
   189   95  216 1    
   190   96  217 1    
   191   96  218 1    
   192   96  219 1    
   193   97   98 2    
   194   97   99 am   BACKBONE|DICT|INTERRES
   195   99  100 1    
   196   99  220 1    
   197  100  101 1    
   198  100  102 1    
   199  100  221 1    
   200  101  222 1    
   201  101  223 1    
   202  101  224 1    
   203  102  103 2    
   204  102  104 am   BACKBONE|DICT|INTERRES
   205  104  105 1    
   206  104  225 1    
   207  105  106 1    
   208  105  107 1    
   209  105  226 1    
   210  106  227 1    
   211  106  228 1    
   212  106  229 1    
   213  107  108 2    
   214  107  109 am   BACKBONE|DICT|INTERRES
   215  109  110 1    
   216  109  230 1    
   217  110  111 1    
   218  110  112 1    
   219  110  231 1    
   220  111  232 1    
   221  111  233 1    
   222  111  234 1    
   223  112  113 2    
   224  112  114 am   BACKBONE|DICT|INTERRES
   225  114  115 1    
   226  114  235 1    
   227  115  116 1    
   228  115  117 1    
   229  115  236 1    
   230  116  237 1    
   231  116  238 1    
   232  116  239 1    
   233  117  118 2    
   234  117  119 am   BACKBONE|DICT|INTERRES
   235  119  120 1    
   236  119  240 1    
   237  120  121 1    
   238  120  124 1    
   239  120  241 1    
   240  121  122 am   BACKBONE|DICT|INTERRES
   241  121  123 2    
   242  122  242 1    
   243  122  243 1    
   244  124  125 1    
   245  124  244 1    
   246  124  245 1    
   247  125  126 1    
   248  126  246 1    
   249  126  247 1    
@<TRIPOS>SUBSTRUCTURE
     1 UNK         1 GROUP             0       ****    0 ROOT    
