@<TRIPOS>MOLECULE
3R540
247   249    1
SMALL
USER_CHARGES


@<TRIPOS>ATOM
      1 CA          6.0940  -16.8089  -42.4138 C.3       0 UNK        -0.1800 
      2 C           4.9762  -16.2007  -43.2472 C.2       0 UNK         0.5000 
      3 O           3.8091  -16.2841  -42.8621 O.2       0 UNK        -0.5000 
      4 N           5.3228  -15.5875  -44.3864 N.am      1 UNK        -0.5000 
      5 CA          4.4111  -14.9615  -45.3546 C.3       1 UNK         0.1400 
      6 C6          5.0591  -14.8484  -46.7610 C.3       23 UNK        -0.0398 
      7 S7          5.4408  -16.4725  -47.4986 S.3       23 UNK        -0.2404 
      8 C8          3.9067  -16.7531  -48.4475 C.3       23 UNK        -0.0205 
      9 C9          3.7262  -18.1608  -49.0175 C.ar      23 UNK        -0.0193 
     10 C10         2.8616  -18.3283  -50.1038 C.ar      23 UNK        -0.1150 
     11 C11         2.6127  -19.5965  -50.6368 C.ar      23 UNK        -0.0193 
     12 C12         3.2432  -20.7092  -50.0756 C.ar      23 UNK        -0.1150 
     13 C13         4.1214  -20.5632  -48.9993 C.ar      23 UNK        -0.0193 
     14 C14         4.3555  -19.2892  -48.4720 C.ar      23 UNK        -0.1150 
     15 C15         4.8331  -21.7844  -48.4287 C.3       23 UNK        -0.0205 
     16 S16         4.2274  -22.2571  -46.7774 S.3       23 UNK        -0.2404 
     17 C17         2.4361  -22.4405  -47.0710 C.3       23 UNK        -0.0398 
     18 CA          1.7560  -23.4124  -46.0767 C.3       11 UNK         0.1400 
     19 N           1.9619  -23.0124  -44.6817 N.am      11 UNK        -0.5000 
     20 C           2.0679  -23.8587  -43.6500 C.2       10 UNK         0.5000 
     21 O           1.9518  -25.0802  -43.7545 O.2       10 UNK        -0.5000 
     22 CA          2.3742  -23.2445  -42.2694 C.3       10 UNK         0.1400 
     23 CB          3.8868  -23.2716  -42.0005 C.3       10 UNK        -0.1800 
     24 N           1.8966  -21.8674  -42.1348 N.am      10 UNK        -0.5000 
     25 C           0.6178  -21.5279  -41.9254 C.2       9 UNK         0.5000 
     26 O          -0.2911  -22.3446  -41.7741 O.2       9 UNK        -0.5000 
     27 CA          0.2943  -20.0197  -41.9115 C.3       9 UNK         0.1400 
     28 CB          0.4135  -19.4574  -40.4869 C.3       9 UNK        -0.1800 
     29 N           1.1152  -19.2074  -42.8191 N.am      9 UNK        -0.5000 
     30 C           1.1940  -19.3895  -44.1427 C.2       8 UNK         0.5000 
     31 O           0.6824  -20.3439  -44.7323 O.2       8 UNK        -0.5000 
     32 CA          2.0160  -18.3676  -44.9451 C.3       8 UNK         0.1400 
     33 CB          3.4682  -18.8456  -45.0535 C.3       8 UNK        -0.1800 
     34 N           1.4494  -18.2171  -46.2865 N.am      8 UNK        -0.5000 
     35 C           0.2894  -17.5896  -46.5157 C.2       7 UNK         0.5000 
     36 O          -0.2518  -16.8518  -45.6880 O.2       7 UNK        -0.5000 
     37 CA         -0.4103  -17.8979  -47.8515 C.3       7 UNK         0.1400 
     38 CB         -0.8734  -19.3712  -47.8196 C.3       7 UNK        -0.1800 
     39 N          -1.5307  -16.9645  -47.9974 N.am      7 UNK        -0.5000 
     40 C          -2.5671  -16.9975  -48.8462 C.2       6 UNK         0.5000 
     41 O          -2.7471  -17.8505  -49.7136 O.2       6 UNK        -0.5000 
     42 CA         -3.5603  -15.8325  -48.7409 C.3       6 UNK         0.1400 
     43 CB         -4.1610  -15.7019  -47.3299 C.3       6 UNK        -0.1800 
     44 N          -2.8755  -14.5978  -49.1049 N.am      6 UNK        -0.5000 
     45 C          -2.7854  -14.1241  -50.3538 C.2       5 UNK         0.5000 
     46 O          -3.3809  -14.6147  -51.3129 O.2       5 UNK        -0.5000 
     47 CA         -1.8681  -12.9064  -50.5845 C.3       5 UNK         0.1400 
     48 CB         -2.6793  -11.6039  -50.5177 C.3       5 UNK        -0.1800 
     49 N          -0.7569  -12.8264  -49.6354 N.am      5 UNK        -0.5000 
     50 C           0.2717  -13.6844  -49.5880 C.2       4 UNK         0.5000 
     51 O           0.4351  -14.6044  -50.3885 O.2       4 UNK        -0.5000 
     52 CA          1.2890  -13.4951  -48.4448 C.3       4 UNK         0.1400 
     53 CB          2.4500  -12.6145  -48.9323 C.3       4 UNK        -0.1800 
     54 N           0.7597  -12.9293  -47.1960 N.am      4 UNK        -0.5000 
     55 C          -0.3155  -13.3505  -46.5126 C.2       3 UNK         0.5000 
     56 O          -1.0871  -14.2183  -46.9186 O.2       3 UNK        -0.5000 
     57 CA         -0.5311  -12.7092  -45.1337 C.3       3 UNK         0.1400 
     58 CB         -1.7419  -13.2934  -44.3825 C.3       3 UNK        -0.1800 
     59 N           0.6755  -12.9223  -44.3416 N.am      3 UNK        -0.5000 
     60 C           1.3633  -11.9809  -43.6856 C.2       2 UNK         0.5000 
     61 O           1.0219  -10.7996  -43.6201 O.2       2 UNK        -0.5000 
     62 CA          2.6672  -12.4358  -43.0006 C.3       2 UNK         0.1400 
     63 CB          2.4130  -12.7638  -41.5215 C.3       2 UNK        -0.1800 
     64 N           3.2792  -13.6007  -43.6455 N.am      2 UNK        -0.5000 
     65 C           3.8681  -13.6024  -44.8481 C.2       1 UNK         0.5000 
     66 O           3.9822  -12.5894  -45.5394 O.2       1 UNK        -0.5000 
     67 C           0.2587  -23.5187  -46.4159 C.2       11 UNK         0.5000 
     68 O          -0.0999  -24.3028  -47.2926 O.2       11 UNK        -0.5000 
     69 N          -0.5774  -22.7167  -45.7407 N.am      12 UNK        -0.5000 
     70 CA         -1.9884  -22.4562  -46.0357 C.3       12 UNK         0.1400 
     71 CB         -2.5722  -21.5763  -44.9193 C.3       12 UNK        -0.1800 
     72 C          -2.8806  -23.6876  -46.2657 C.2       12 UNK         0.5000 
     73 O          -3.7503  -23.6435  -47.1382 O.2       12 UNK        -0.5000 
     74 N          -2.6383  -24.7585  -45.4998 N.am      13 UNK        -0.5000 
     75 CA         -3.3623  -26.0265  -45.5953 C.3       13 UNK         0.1400 
     76 CB         -3.0674  -26.8664  -44.3434 C.3       13 UNK        -0.1800 
     77 C          -3.0282  -26.8242  -46.8706 C.2       13 UNK         0.5000 
     78 O          -3.9017  -27.5149  -47.3960 O.2       13 UNK        -0.5000 
     79 N          -1.7810  -26.7140  -47.3462 N.am      14 UNK        -0.5000 
     80 CA         -1.2998  -27.3561  -48.5697 C.3       14 UNK         0.1400 
     81 CB          0.2018  -27.6517  -48.4295 C.3       14 UNK        -0.1800 
     82 C          -1.5665  -26.4763  -49.8019 C.2       14 UNK         0.5000 
     83 O          -1.9212  -26.9969  -50.8598 O.2       14 UNK        -0.5000 
     84 N          -1.4044  -25.1570  -49.6344 N.am      15 UNK        -0.5000 
     85 CA         -1.6365  -24.1374  -50.6566 C.3       15 UNK         0.1400 
     86 CB         -1.0078  -22.8167  -50.1859 C.3       15 UNK        -0.1800 
     87 C          -3.1255  -23.9255  -50.9896 C.2       15 UNK         0.5000 
     88 O          -3.4256  -23.4090  -52.0657 O.2       15 UNK        -0.5000 
     89 N          -4.0158  -24.3103  -50.0608 N.am      16 UNK        -0.5000 
     90 CA         -5.4679  -24.1124  -50.0804 C.3       16 UNK         0.1400 
     91 CB         -6.1253  -24.8947  -51.2364 C.3       16 UNK        -0.1800 
     92 C          -5.8134  -22.6121  -50.0845 C.2       16 UNK         0.5000 
     93 O          -6.5171  -22.1316  -50.9750 O.2       16 UNK        -0.5000 
     94 N          -5.2722  -21.8939  -49.0911 N.am      17 UNK        -0.5000 
     95 CA         -5.2844  -20.4311  -48.9731 C.3       17 UNK         0.1400 
     96 CB         -4.5904  -20.0397  -47.6645 C.3       17 UNK        -0.1800 
     97 C          -6.6744  -19.7710  -49.0364 C.2       17 UNK         0.5000 
     98 O          -6.7936  -18.6547  -49.5398 O.2       17 UNK        -0.5000 
     99 N          -7.6934  -20.4720  -48.5262 N.am      18 UNK        -0.5000 
    100 CA        -9.0818  -20.0139  -48.4999 C.3       18 UNK         0.1400 
    101 CB        -9.8114  -20.7402  -47.3585 C.3       18 UNK        -0.1800 
    102 C         -9.8291  -20.2263  -49.8319 C.2       18 UNK         0.5000 
    103 O        -10.8922  -19.6306  -50.0132 O.2       18 UNK        -0.5000 
    104 N         -9.2973  -21.0804  -50.7174 N.am      19 UNK        -0.5000 
    105 CA        -9.9455  -21.4919  -51.9625 C.3       19 UNK         0.1400 
    106 CB       -10.0673  -23.0250  -51.9838 C.3       19 UNK        -0.1800 
    107 C         -9.1762  -20.9889  -53.1917 C.2       19 UNK         0.5000 
    108 O         -9.7707  -20.3431  -54.0559 O.2       19 UNK        -0.5000 
    109 N         -7.8776  -21.3041  -53.2572 N.am      20 UNK        -0.5000 
    110 CA        -6.9957  -20.9521  -54.3661 C.3       20 UNK         0.1400 
    111 CB        -5.9114  -22.0320  -54.5153 C.3       20 UNK        -0.1800 
    112 C         -6.3738  -19.5643  -54.1549 C.2       20 UNK         0.5000 
    113 O         -6.5021  -18.7107  -55.0332 O.2       20 UNK        -0.5000 
    114 N         -5.7451  -19.3816  -52.9826 N.am      21 UNK        -0.5000 
    115 CA        -4.9869  -18.2116  -52.5188 C.3       21 UNK         0.1400 
    116 CB        -5.8615  -16.9434  -52.5143 C.3       21 UNK        -0.1800 
    117 C         -3.6664  -17.9927  -53.2908 C.2       21 UNK         0.5000 
    118 O         -3.6285  -18.0875  -54.5193 O.2       21 UNK        -0.5000 
    119 N         -2.5926  -17.7034  -52.5491 N.am      22 UNK        -0.5000 
    120 CA        -1.2409  -17.4645  -53.0838 C.3       22 UNK         0.1400 
    121 C         -1.0600  -16.1259  -53.8575 C.2       22 UNK         0.5000 
    122 N         -1.9211  -15.1307  -53.6940 N.am      22 UNK        -0.7600 
    123 O         -0.1246  -15.9969  -54.6426 O.2       22 UNK        -0.5000 
    124 C124       -0.1646  -17.6213  -51.9819 C.3       23 UNK        -0.0398 
    125 S125       -0.0404  -19.3527  -51.4162 S.3       23 UNK        -0.2404 
    126 C126        1.6814  -19.7724  -51.8286 C.3       23 UNK        -0.0205 
    127 H127        5.9376  -17.8822  -42.3067 H         1 UNK         0.0600 
    128 H128        6.1048  -16.3633  -41.4192 H         1 UNK         0.0600 
    129 H129        7.0717  -16.6508  -42.8694 H         1 UNK         0.0600 
    130 H130        6.3008  -15.5462  -44.6354 H         1 UNK         0.3000 
    131 H131        3.5360  -15.6067  -45.4552 H         1 UNK         0.0600 
    132 H132        5.9813  -14.2673  -46.7097 H         1 UNK         0.0800 
    133 H133        4.4075  -14.3133  -47.4512 H         1 UNK         0.0800 
    134 H134        3.0530  -16.5383  -47.8057 H         1 UNK         0.0800 
    135 H135        3.8750  -16.0249  -49.2598 H         1 UNK         0.0800 
    136 H136        2.3701  -17.4661  -50.5314 H         1 UNK         0.1150 
    137 H137        3.0597  -21.6922  -50.4863 H         1 UNK         0.1150 
    138 H138        5.0270  -19.1904  -47.6318 H         1 UNK         0.1150 
    139 H139        4.7316  -22.6388  -49.0997 H         1 UNK         0.0800 
    140 H140        5.9019  -21.5763  -48.3640 H         1 UNK         0.0800 
    141 H141        1.9836  -21.4488  -47.0169 H         1 UNK         0.0800 
    142 H142        2.2880  -22.7915  -48.0943 H         1 UNK         0.0800 
    143 H143        2.1921  -24.4018  -46.2316 H         1 UNK         0.0600 
    144 H144        2.0054  -22.0177  -44.5063 H         1 UNK         0.3000 
    145 H145        1.8833  -23.8625  -41.5144 H         1 UNK         0.0600 
    146 H146        4.1173  -22.8976  -41.0028 H         1 UNK         0.0600 
    147 H147        4.2764  -24.2886  -42.0632 H         1 UNK         0.0600 
    148 H148        4.4352  -22.6653  -42.7229 H         1 UNK         0.0600 
    149 H149        2.5796  -21.1319  -42.2403 H         1 UNK         0.3000 
    150 H150       -0.7439  -19.9126  -42.2329 H         1 UNK         0.0600 
    151 H151       -0.2038  -20.0251  -39.7891 H         1 UNK         0.0600 
    152 H152        0.0805  -18.4203  -40.4424 H         1 UNK         0.0600 
    153 H153        1.4412  -19.4969  -40.1237 H         1 UNK         0.0600 
    154 H154        1.5889  -18.4151  -42.4078 H         1 UNK         0.3000 
    155 H155        1.9909  -17.4043  -44.4330 H         1 UNK         0.0600 
    156 H156        4.0852  -18.1161  -45.5722 H         1 UNK         0.0600 
    157 H157        3.5391  -19.7877  -45.5918 H         1 UNK         0.0600 
    158 H158        3.9087  -18.9982  -44.0677 H         1 UNK         0.0600 
    159 H159        1.8184  -18.8344  -46.9944 H         1 UNK         0.3000 
    160 H160        0.2895  -17.7360  -48.6723 H         1 UNK         0.0600 
    161 H161       -1.5633  -19.5368  -46.9937 H         1 UNK         0.0600 
    162 H162       -0.0325  -20.0512  -47.6809 H         1 UNK         0.0600 
    163 H163       -1.3622  -19.6814  -48.7411 H         1 UNK         0.0600 
    164 H164       -1.4776  -16.1905  -47.3382 H         1 UNK         0.3000 
    165 H165       -4.3835  -16.0229  -49.4336 H         1 UNK         0.0600 
    166 H166       -3.4034  -15.5078  -46.5703 H         1 UNK         0.0600 
    167 H167       -4.8842  -14.8874  -47.2895 H         1 UNK         0.0600 
    168 H168       -4.6857  -16.6135  -47.0442 H         1 UNK         0.0600 
    169 H169       -2.2844  -14.1938  -48.3840 H         1 UNK         0.3000 
    170 H170       -1.4485  -12.9968  -51.5886 H         1 UNK         0.0600 
    171 H171       -3.5022  -11.6199  -51.2337 H         1 UNK         0.0600 
    172 H172       -3.1087  -11.4476  -49.5273 H         1 UNK         0.0600 
    173 H173       -2.0592  -10.7397  -50.7566 H         1 UNK         0.0600 
    174 H174       -0.8063  -12.1005  -48.9362 H         1 UNK         0.3000 
    175 H175        1.6839  -14.4822  -48.1991 H         1 UNK         0.0600 
    176 H176        2.1011  -11.6271  -49.2373 H         1 UNK         0.0600 
    177 H177        3.2018  -12.4706  -48.1578 H         1 UNK         0.0600 
    178 H178        2.9491  -13.0659  -49.7910 H         1 UNK         0.0600 
    179 H179        1.3285  -12.2115  -46.7693 H         1 UNK         0.3000 
    180 H180       -0.7061  -11.6443  -45.2993 H         1 UNK         0.0600 
    181 H181       -1.6302  -14.3653  -44.2125 H         1 UNK         0.0600 
    182 H182       -2.6628  -13.1436  -44.9475 H         1 UNK         0.0600 
    183 H183       -1.8726  -12.8123  -43.4132 H         1 UNK         0.0600 
    184 H184        1.0447  -13.8625  -44.3508 H         1 UNK         0.3000 
    185 H185        3.3749  -11.6056  -43.0515 H         1 UNK         0.0600 
    186 H186        3.3409  -13.0193  -41.0094 H         1 UNK         0.0600 
    187 H187        1.9790  -11.9096  -41.0002 H         1 UNK         0.0600 
    188 H188        1.7252  -13.6029  -41.4082 H         1 UNK         0.0600 
    189 H189        3.2568  -14.4798  -43.1350 H         1 UNK         0.3000 
    190 H190       -0.1531  -22.0652  -45.0877 H         1 UNK         0.3000 
    191 H191       -2.0026  -21.8904  -46.9659 H         1 UNK         0.0600 
    192 H192       -3.6306  -21.3738  -45.0842 H         1 UNK         0.0600 
    193 H193       -2.0633  -20.6140  -44.8647 H         1 UNK         0.0600 
    194 H194       -2.4789  -22.0561  -43.9441 H         1 UNK         0.0600 
    195 H195       -1.8968  -24.7020  -44.8168 H         1 UNK         0.3000 
    196 H196       -4.4322  -25.8074  -45.6138 H         1 UNK         0.0600 
    197 H197       -3.6104  -27.8122  -44.3706 H         1 UNK         0.0600 
    198 H198       -3.3728  -26.3437  -43.4368 H         1 UNK         0.0600 
    199 H199       -2.0054  -27.0997  -44.2557 H         1 UNK         0.0600 
    200 H200       -1.1455  -26.0625  -46.9016 H         1 UNK         0.3000 
    201 H201       -1.8184  -28.3065  -48.7131 H         1 UNK         0.0600 
    202 H202        0.3953  -28.3100  -47.5825 H         1 UNK         0.0600 
    203 H203        0.7834  -26.7404  -48.2846 H         1 UNK         0.0600 
    204 H204        0.5861  -28.1478  -49.3216 H         1 UNK         0.0600 
    205 H205       -1.0468  -24.8264  -48.7407 H         1 UNK         0.3000 
    206 H206       -1.1336  -24.4508  -51.5736 H         1 UNK         0.0600 
    207 H207        0.0627  -22.9241  -50.0095 H         1 UNK         0.0600 
    208 H208       -1.1372  -22.0391  -50.9384 H         1 UNK         0.0600 
    209 H209       -1.4662  -22.4581  -49.2641 H         1 UNK         0.0600 
    210 H210       -3.6444  -24.6655  -49.1896 H         1 UNK         0.3000 
    211 H211       -5.8498  -24.5213  -49.1439 H         1 UNK         0.0600 
    212 H212       -5.8530  -24.4929  -52.2128 H         1 UNK         0.0600 
    213 H213       -7.2119  -24.8560  -51.1601 H         1 UNK         0.0600 
    214 H214       -5.8360  -25.9454  -51.2143 H         1 UNK         0.0600 
    215 H215       -4.7207  -22.3960  -48.4020 H         1 UNK         0.3000 
    216 H216       -4.6934  -20.0388  -49.8016 H         1 UNK         0.0600 
    217 H217       -4.5478  -18.9572  -47.5478 H         1 UNK         0.0600 
    218 H218       -3.5683  -20.4058  -47.6521 H         1 UNK         0.0600 
    219 H219       -5.1091  -20.4465  -46.7958 H         1 UNK         0.0600 
    220 H220       -7.5036  -21.3819  -48.1324 H         1 UNK         0.3000 
    221 H221       -9.0973  -18.9434  -48.2835 H         1 UNK         0.0600 
    222 H222       -9.8312  -21.8194  -47.5159 H         1 UNK         0.0600 
    223 H223       -9.3317  -20.5487  -46.3985 H         1 UNK         0.0600 
    224 H224      -10.8452  -20.4018  -47.2758 H         1 UNK         0.0600 
    225 H225       -8.3809  -21.4717  -50.5320 H         1 UNK         0.3000 
    226 H226      -10.9567  -21.0844  -52.0252 H         1 UNK         0.0600 
    227 H227      -10.6824  -23.3804  -51.1570 H         1 UNK         0.0600 
    228 H228      -10.5353  -23.3673  -52.9077 H         1 UNK         0.0600 
    229 H229       -9.0945  -23.5111  -51.9081 H         1 UNK         0.0600 
    230 H230       -7.4433  -21.7814  -52.4704 H         1 UNK         0.3000 
    231 H231       -7.5694  -20.9294  -55.2955 H         1 UNK         0.0600 
    232 H232       -5.2280  -21.7895  -55.3300 H         1 UNK         0.0600 
    233 H233       -6.3531  -23.0034  -54.7381 H         1 UNK         0.0600 
    234 H234       -5.3160  -22.1395  -53.6081 H         1 UNK         0.0600 
    235 H235       -5.7298  -20.1729  -52.3540 H         1 UNK         0.3000 
    236 H236       -4.7306  -18.4269  -51.4819 H         1 UNK         0.0600 
    237 H237       -6.8104  -17.1203  -52.0077 H         1 UNK         0.0600 
    238 H238       -5.3625  -16.1322  -51.9868 H         1 UNK         0.0600 
    239 H239       -6.0766  -16.5897  -53.5227 H         1 UNK         0.0600 
    240 H240       -2.6757  -17.6832  -51.5344 H         1 UNK         0.3000 
    241 H241       -1.0540  -18.2430  -53.8264 H         1 UNK         0.0600 
    242 H242       -2.6444  -15.1798  -52.9826 H         1 UNK         0.3800 
    243 H243       -1.7991  -14.2831  -54.2236 H         1 UNK         0.3800 
    244 H244        0.8099  -17.2841  -52.3376 H         1 UNK         0.0800 
    245 H245       -0.4045  -16.9920  -51.1246 H         1 UNK         0.0800 
    246 H246        2.0379  -19.1775  -52.6701 H         1 UNK         0.0800 
    247 H247        1.6983  -20.8085  -52.1700 H         1 UNK         0.0800 
@<TRIPOS>BOND
     1    1    2 1    
     2    1  127 1    
     3    1  128 1    
     4    1  129 1    
     5    2    3 2    
     6    2    4 am   BACKBONE|DICT|INTERRES
     7    4    5 1    
     8    4  130 1    
     9    5    6 1    
    10    5   65 1    
    11    5  131 1    
    12    6    7 1    
    13    6  132 1    
    14    6  133 1    
    15    7    8 1    
    16    8    9 1    
    17    8  134 1    
    18    8  135 1    
    19    9   10 ar   
    20    9   14 ar   
    21   10   11 ar   
    22   10  136 1    
    23   11   12 ar   
    24   11  126 1    
    25   12   13 ar   
    26   12  137 1    
    27   13   14 ar   
    28   13   15 1    
    29   14  138 1    
    30   15   16 1    
    31   15  139 1    
    32   15  140 1    
    33   16   17 1    
    34   17   18 1    
    35   17  141 1    
    36   17  142 1    
    37   18   19 1    
    38   18   67 1    
    39   18  143 1    
    40   19   20 am   BACKBONE|DICT|INTERRES
    41   19  144 1    
    42   20   21 2    
    43   20   22 1    
    44   22   23 1    
    45   22   24 1    
    46   22  145 1    
    47   23  146 1    
    48   23  147 1    
    49   23  148 1    
    50   24   25 am   BACKBONE|DICT|INTERRES
    51   24  149 1    
    52   25   26 2    
    53   25   27 1    
    54   27   28 1    
    55   27   29 1    
    56   27  150 1    
    57   28  151 1    
    58   28  152 1    
    59   28  153 1    
    60   29   30 am   BACKBONE|DICT|INTERRES
    61   29  154 1    
    62   30   31 2    
    63   30   32 1    
    64   32   33 1    
    65   32   34 1    
    66   32  155 1    
    67   33  156 1    
    68   33  157 1    
    69   33  158 1    
    70   34   35 am   BACKBONE|DICT|INTERRES
    71   34  159 1    
    72   35   36 2    
    73   35   37 1    
    74   37   38 1    
    75   37   39 1    
    76   37  160 1    
    77   38  161 1    
    78   38  162 1    
    79   38  163 1    
    80   39   40 am   BACKBONE|DICT|INTERRES
    81   39  164 1    
    82   40   41 2    
    83   40   42 1    
    84   42   43 1    
    85   42   44 1    
    86   42  165 1    
    87   43  166 1    
    88   43  167 1    
    89   43  168 1    
    90   44   45 am   BACKBONE|DICT|INTERRES
    91   44  169 1    
    92   45   46 2    
    93   45   47 1    
    94   47   48 1    
    95   47   49 1    
    96   47  170 1    
    97   48  171 1    
    98   48  172 1    
    99   48  173 1    
   100   49   50 am   BACKBONE|DICT|INTERRES
   101   49  174 1    
   102   50   51 2    
   103   50   52 1    
   104   52   53 1    
   105   52   54 1    
   106   52  175 1    
   107   53  176 1    
   108   53  177 1    
   109   53  178 1    
   110   54   55 am   BACKBONE|DICT|INTERRES
   111   54  179 1    
   112   55   56 2    
   113   55   57 1    
   114   57   58 1    
   115   57   59 1    
   116   57  180 1    
   117   58  181 1    
   118   58  182 1    
   119   58  183 1    
   120   59   60 am   BACKBONE|DICT|INTERRES
   121   59  184 1    
   122   60   61 2    
   123   60   62 1    
   124   62   63 1    
   125   62   64 1    
   126   62  185 1    
   127   63  186 1    
   128   63  187 1    
   129   63  188 1    
   130   64   65 am   BACKBONE|DICT|INTERRES
   131   64  189 1    
   132   65   66 2    
   133   67   68 2    
   134   67   69 am   BACKBONE|DICT|INTERRES
   135   69   70 1    
   136   69  190 1    
   137   70   71 1    
   138   70   72 1    
   139   70  191 1    
   140   71  192 1    
   141   71  193 1    
   142   71  194 1    
   143   72   73 2    
   144   72   74 am   BACKBONE|DICT|INTERRES
   145   74   75 1    
   146   74  195 1    
   147   75   76 1    
   148   75   77 1    
   149   75  196 1    
   150   76  197 1    
   151   76  198 1    
   152   76  199 1    
   153   77   78 2    
   154   77   79 am   BACKBONE|DICT|INTERRES
   155   79   80 1    
   156   79  200 1    
   157   80   81 1    
   158   80   82 1    
   159   80  201 1    
   160   81  202 1    
   161   81  203 1    
   162   81  204 1    
   163   82   83 2    
   164   82   84 am   BACKBONE|DICT|INTERRES
   165   84   85 1    
   166   84  205 1    
   167   85   86 1    
   168   85   87 1    
   169   85  206 1    
   170   86  207 1    
   171   86  208 1    
   172   86  209 1    
   173   87   88 2    
   174   87   89 am   BACKBONE|DICT|INTERRES
   175   89   90 1    
   176   89  210 1    
   177   90   91 1    
   178   90   92 1    
   179   90  211 1    
   180   91  212 1    
   181   91  213 1    
   182   91  214 1    
   183   92   93 2    
   184   92   94 am   BACKBONE|DICT|INTERRES
   185   94   95 1    
   186   94  215 1    
   187   95   96 1    
   188   95   97 1    
   189   95  216 1    
   190   96  217 1    
   191   96  218 1    
   192   96  219 1    
   193   97   98 2    
   194   97   99 am   BACKBONE|DICT|INTERRES
   195   99  100 1    
   196   99  220 1    
   197  100  101 1    
   198  100  102 1    
   199  100  221 1    
   200  101  222 1    
   201  101  223 1    
   202  101  224 1    
   203  102  103 2    
   204  102  104 am   BACKBONE|DICT|INTERRES
   205  104  105 1    
   206  104  225 1    
   207  105  106 1    
   208  105  107 1    
   209  105  226 1    
   210  106  227 1    
   211  106  228 1    
   212  106  229 1    
   213  107  108 2    
   214  107  109 am   BACKBONE|DICT|INTERRES
   215  109  110 1    
   216  109  230 1    
   217  110  111 1    
   218  110  112 1    
   219  110  231 1    
   220  111  232 1    
   221  111  233 1    
   222  111  234 1    
   223  112  113 2    
   224  112  114 am   BACKBONE|DICT|INTERRES
   225  114  115 1    
   226  114  235 1    
   227  115  116 1    
   228  115  117 1    
   229  115  236 1    
   230  116  237 1    
   231  116  238 1    
   232  116  239 1    
   233  117  118 2    
   234  117  119 am   BACKBONE|DICT|INTERRES
   235  119  120 1    
   236  119  240 1    
   237  120  121 1    
   238  120  124 1    
   239  120  241 1    
   240  121  122 am   BACKBONE|DICT|INTERRES
   241  121  123 2    
   242  122  242 1    
   243  122  243 1    
   244  124  125 1    
   245  124  244 1    
   246  124  245 1    
   247  125  126 1    
   248  126  246 1    
   249  126  247 1    
@<TRIPOS>SUBSTRUCTURE
     1 UNK         1 GROUP             0       ****    0 ROOT    
