@<TRIPOS>MOLECULE
3R540
247   249    1
SMALL
USER_CHARGES


@<TRIPOS>ATOM
      1 CA         -2.7024  -12.9220  -43.3360 C.3       0 UNK        -0.1800 
      2 C          -2.5994  -12.3701  -44.7491 C.2       0 UNK         0.5000 
      3 O          -3.1370  -11.2966  -45.0241 O.2       0 UNK        -0.5000 
      4 N          -1.9307  -13.1058  -45.6453 N.am      1 UNK        -0.5000 
      5 CA         -1.7243  -12.7204  -47.0432 C.3       1 UNK         0.1400 
      6 C6         -1.7524  -13.9517  -47.9869 C.3       23 UNK        -0.0398 
      7 S7         -0.2758  -15.0277  -47.9529 S.3       23 UNK        -0.2404 
      8 C8         -0.9840  -16.5030  -48.7391 C.3       23 UNK        -0.0205 
      9 C9          0.0682  -17.3889  -49.3863 C.ar      23 UNK        -0.0193 
     10 C10         0.2383  -17.3793  -50.7732 C.ar      23 UNK        -0.1150 
     11 C11         1.1394  -18.2518  -51.3917 C.ar      23 UNK        -0.0193 
     12 C12         1.9059  -19.1120  -50.5972 C.ar      23 UNK        -0.1150 
     13 C13         1.7563  -19.1224  -49.2079 C.ar      23 UNK        -0.0193 
     14 C14         0.8387  -18.2542  -48.6089 C.ar      23 UNK        -0.1150 
     15 C15         2.5811  -20.0777  -48.3576 C.3       23 UNK        -0.0205 
     16 S16         1.9136  -21.7724  -48.3676 S.3       23 UNK        -0.2404 
     17 C17         0.2008  -21.5365  -47.7818 C.3       23 UNK        -0.0398 
     18 CA         -0.2243  -22.6197  -46.7568 C.3       11 UNK         0.1400 
     19 N           0.4018  -22.3829  -45.4539 N.am      11 UNK        -0.5000 
     20 C           0.7456  -23.3093  -44.5541 C.2       10 UNK         0.5000 
     21 O           0.5585  -24.5162  -44.7076 O.2       10 UNK        -0.5000 
     22 CA          1.3559  -22.7836  -43.2410 C.3       10 UNK         0.1400 
     23 CB          2.8390  -22.4297  -43.4305 C.3       10 UNK        -0.1800 
     24 N           0.6358  -21.6183  -42.7190 N.am      10 UNK        -0.5000 
     25 C          -0.6059  -21.6628  -42.2152 C.2       9 UNK         0.5000 
     26 O          -1.2511  -22.7044  -42.0998 O.2       9 UNK        -0.5000 
     27 CA         -1.2432  -20.3289  -41.7789 C.3       9 UNK         0.1400 
     28 CB         -0.7736  -19.9338  -40.3708 C.3       9 UNK        -0.1800 
     29 N          -0.9690  -19.2352  -42.7103 N.am      9 UNK        -0.5000 
     30 C          -1.4690  -19.1505  -43.9512 C.2       8 UNK         0.5000 
     31 O          -2.2804  -19.9476  -44.4189 O.2       8 UNK        -0.5000 
     32 CA         -0.9451  -18.0041  -44.8385 C.3       8 UNK         0.1400 
     33 CB         -1.7743  -16.7293  -44.6326 C.3       8 UNK        -0.1800 
     34 N           0.4750  -17.7052  -44.6313 N.am      8 UNK        -0.5000 
     35 C           1.4654  -18.5909  -44.8118 C.2       7 UNK         0.5000 
     36 O           1.2820  -19.7448  -45.1892 O.2       7 UNK        -0.5000 
     37 CA          2.8900  -18.1409  -44.4592 C.3       7 UNK         0.1400 
     38 CB          3.4576  -17.1939  -45.5265 C.3       7 UNK        -0.1800 
     39 N           2.9344  -17.5083  -43.1435 N.am      7 UNK        -0.5000 
     40 C           2.7120  -18.1538  -41.9891 C.2       6 UNK         0.5000 
     41 O           2.5134  -19.3658  -41.9084 O.2       6 UNK        -0.5000 
     42 CA          2.6538  -17.2864  -40.7187 C.3       6 UNK         0.1400 
     43 CB          4.0620  -17.0718  -40.1449 C.3       6 UNK        -0.1800 
     44 N           2.0255  -15.9863  -40.9615 N.am      6 UNK        -0.5000 
     45 C           0.7374  -15.8171  -41.2945 C.2       5 UNK         0.5000 
     46 O          -0.0731  -16.7387  -41.3824 O.2       5 UNK        -0.5000 
     47 CA          0.3037  -14.3837  -41.6485 C.3       5 UNK         0.1400 
     48 CB         -0.0443  -13.5864  -40.3832 C.3       5 UNK        -0.1800 
     49 N           1.3271  -13.6701  -42.4174 N.am      5 UNK        -0.5000 
     50 C           1.6721  -13.9858  -43.6723 C.2       4 UNK         0.5000 
     51 O           1.0840  -14.8374  -44.3458 O.2       4 UNK        -0.5000 
     52 CA          2.9266  -13.2957  -44.2295 C.3       4 UNK         0.1400 
     53 CB          4.1801  -13.8972  -43.5517 C.3       4 UNK        -0.1800 
     54 N           2.9477  -13.4738  -45.6818 N.am      4 UNK        -0.5000 
     55 C           3.9199  -13.1441  -46.5425 C.2       3 UNK         0.5000 
     56 O           4.9970  -12.6413  -46.2213 O.2       3 UNK        -0.5000 
     57 CA          3.6110  -13.3730  -48.0338 C.3       3 UNK         0.1400 
     58 CB          3.4465  -14.8670  -48.3624 C.3       3 UNK        -0.1800 
     59 N           2.4174  -12.6324  -48.4436 N.am      3 UNK        -0.5000 
     60 C           2.3623  -11.2951  -48.5467 C.2       2 UNK         0.5000 
     61 O           3.3419  -10.5603  -48.4136 O.2       2 UNK        -0.5000 
     62 CA          0.9907  -10.6560  -48.8470 C.3       2 UNK         0.1400 
     63 CB          0.8743  -10.3151  -50.3409 C.3       2 UNK        -0.1800 
     64 N          -0.1594  -11.4760  -48.4591 N.am      2 UNK        -0.5000 
     65 C          -0.4662  -11.8369  -47.2050 C.2       1 UNK         0.5000 
     66 O           0.2037  -11.5109  -46.2210 O.2       1 UNK        -0.5000 
     67 C          -1.7629  -22.7431  -46.6606 C.2       11 UNK         0.5000 
     68 O          -2.4392  -22.5999  -47.6789 O.2       11 UNK        -0.5000 
     69 N          -2.3142  -23.0147  -45.4690 N.am      12 UNK        -0.5000 
     70 CA         -3.7519  -23.1984  -45.2484 C.3       12 UNK         0.1400 
     71 CB         -4.0458  -23.1555  -43.7426 C.3       12 UNK        -0.1800 
     72 C          -4.3101  -24.4947  -45.8715 C.2       12 UNK         0.5000 
     73 O          -5.5104  -24.5653  -46.1357 O.2       12 UNK        -0.5000 
     74 N          -3.4386  -25.4823  -46.1092 N.am      13 UNK        -0.5000 
     75 CA         -3.7393  -26.7183  -46.8265 C.3       13 UNK         0.1400 
     76 CB         -3.1378  -27.9003  -46.0512 C.3       13 UNK        -0.1800 
     77 C          -3.1333  -26.6434  -48.2364 C.2       13 UNK         0.5000 
     78 O          -2.0579  -26.0614  -48.4027 O.2       13 UNK        -0.5000 
     79 N          -3.8275  -27.2434  -49.2148 N.am      14 UNK        -0.5000 
     80 CA         -3.5001  -27.3745  -50.6455 C.3       14 UNK         0.1400 
     81 CB         -2.2046  -28.1820  -50.8532 C.3       14 UNK        -0.1800 
     82 C          -3.4553  -26.0429  -51.4212 C.2       14 UNK         0.5000 
     83 O          -4.1392  -25.9002  -52.4349 O.2       14 UNK        -0.5000 
     84 N          -2.6630  -25.0888  -50.9262 N.am      15 UNK        -0.5000 
     85 CA         -2.5723  -23.7179  -51.4189 C.3       15 UNK         0.1400 
     86 CB         -1.2719  -23.0938  -50.8973 C.3       15 UNK        -0.1800 
     87 C          -3.7899  -22.8681  -51.0210 C.2       15 UNK         0.5000 
     88 O          -4.1609  -21.9604  -51.7686 O.2       15 UNK        -0.5000 
     89 N          -4.3713  -23.1798  -49.8528 N.am      16 UNK        -0.5000 
     90 CA         -5.5230  -22.5372  -49.2107 C.3       16 UNK         0.1400 
     91 CB         -6.8230  -22.9273  -49.9382 C.3       16 UNK        -0.1800 
     92 C          -5.3519  -21.0129  -49.0531 C.2       16 UNK         0.5000 
     93 O          -6.2849  -20.2555  -49.3148 O.2       16 UNK        -0.5000 
     94 N          -4.1320  -20.5901  -48.6912 N.am      17 UNK        -0.5000 
     95 CA         -3.6690  -19.1997  -48.6070 C.3       17 UNK         0.1400 
     96 CB         -4.2795  -18.5021  -47.3747 C.3       17 UNK        -0.1800 
     97 C          -3.8808  -18.4125  -49.9230 C.2       17 UNK         0.5000 
     98 O          -4.2563  -17.2404  -49.8923 O.2       17 UNK        -0.5000 
     99 N          -3.6457  -19.1002  -51.0499 N.am      18 UNK        -0.5000 
    100 CA        -3.8175  -18.6657  -52.4393 C.3       18 UNK         0.1400 
    101 CB        -3.0247  -17.3843  -52.7661 C.3       18 UNK        -0.1800 
    102 C         -5.2764  -18.6199  -52.9321 C.2       18 UNK         0.5000 
    103 O         -5.5244  -18.0962  -54.0193 O.2       18 UNK        -0.5000 
    104 N         -6.2141  -19.2206  -52.1848 N.am      19 UNK        -0.5000 
    105 CA        -7.5682  -19.4967  -52.6750 C.3       19 UNK         0.1400 
    106 CB        -8.5341  -19.6485  -51.4903 C.3       19 UNK        -0.1800 
    107 C         -7.6174  -20.7437  -53.5838 C.2       19 UNK         0.5000 
    108 O         -8.5956  -20.9098  -54.3140 O.2       19 UNK        -0.5000 
    109 N         -6.5796  -21.5909  -53.5269 N.am      20 UNK        -0.5000 
    110 CA        -6.4253  -22.7983  -54.3300 C.3       20 UNK         0.1400 
    111 CB        -6.6510  -24.0376  -53.4443 C.3       20 UNK        -0.1800 
    112 C         -5.0678  -22.7533  -55.0551 C.2       20 UNK         0.5000 
    113 O         -4.8506  -21.8282  -55.8396 O.2       20 UNK        -0.5000 
    114 N         -4.1907  -23.7428  -54.8238 N.am      21 UNK        -0.5000 
    115 CA        -3.0062  -24.0318  -55.6450 C.3       21 UNK         0.1400 
    116 CB        -2.3405  -25.3252  -55.1481 C.3       21 UNK        -0.1800 
    117 C         -1.9603  -22.9045  -55.7819 C.2       21 UNK         0.5000 
    118 O         -1.2351  -22.8988  -56.7778 O.2       21 UNK        -0.5000 
    119 N         -1.8966  -21.9785  -54.8144 N.am      22 UNK        -0.5000 
    120 CA        -1.0302  -20.7835  -54.8756 C.3       22 UNK         0.1400 
    121 C         -1.7286  -19.5328  -55.4901 C.2       22 UNK         0.5000 
    122 N         -2.9871  -19.6043  -55.9089 N.am      22 UNK        -0.7600 
    123 O         -1.1179  -18.4746  -55.6023 O.2       22 UNK        -0.5000 
    124 C124       -0.3562  -20.4885  -53.5049 C.3       23 UNK        -0.0398 
    125 S125        1.3634  -19.8932  -53.6690 S.3       23 UNK        -0.2404 
    126 C126        1.2953  -18.2327  -52.9107 C.3       23 UNK        -0.0205 
    127 H127       -2.5869  -14.0052  -43.3244 H         1 UNK         0.0600 
    128 H128       -3.6772  -12.6879  -42.9078 H         1 UNK         0.0600 
    129 H129       -1.9360  -12.4752  -42.7035 H         1 UNK         0.0600 
    130 H130       -1.4414  -13.9380  -45.3485 H         1 UNK         0.3000 
    131 H131       -2.5642  -12.0918  -47.3471 H         1 UNK         0.0600 
    132 H132       -2.6303  -14.5571  -47.7543 H         1 UNK         0.0800 
    133 H133       -1.8991  -13.6267  -49.0179 H         1 UNK         0.0800 
    134 H134       -1.5338  -17.0687  -47.9877 H         1 UNK         0.0800 
    135 H135       -1.7148  -16.1981  -49.4899 H         1 UNK         0.0800 
    136 H136       -0.3387  -16.6898  -51.3710 H         1 UNK         0.1150 
    137 H137        2.6149  -19.7839  -51.0597 H         1 UNK         0.1150 
    138 H138        0.7127  -18.2571  -47.5376 H         1 UNK         0.1150 
    139 H139        3.6052  -20.1026  -48.7321 H         1 UNK         0.0800 
    140 H140        2.6490  -19.7248  -47.3313 H         1 UNK         0.0800 
    141 H141       -0.4240  -21.5317  -48.6732 H         1 UNK         0.0800 
    142 H142        0.0766  -20.5491  -47.3409 H         1 UNK         0.0800 
    143 H143        0.1142  -23.5869  -47.1346 H         1 UNK         0.0600 
    144 H144        0.6279  -21.4104  -45.2485 H         1 UNK         0.3000 
    145 H145        1.2921  -23.5828  -42.4995 H         1 UNK         0.0600 
    146 H146        3.2922  -22.1178  -42.4893 H         1 UNK         0.0600 
    147 H147        3.4021  -23.2898  -43.7946 H         1 UNK         0.0600 
    148 H148        2.9739  -21.6209  -44.1492 H         1 UNK         0.0600 
    149 H149        1.1232  -20.7299  -42.7501 H         1 UNK         0.3000 
    150 H150       -2.3248  -20.4758  -41.7433 H         1 UNK         0.0600 
    151 H151       -0.9961  -20.7213  -39.6498 H         1 UNK         0.0600 
    152 H152       -1.2740  -19.0277  -40.0287 H         1 UNK         0.0600 
    153 H153        0.3010  -19.7535  -40.3392 H         1 UNK         0.0600 
    154 H154       -0.3654  -18.4905  -42.3782 H         1 UNK         0.3000 
    155 H155       -1.0657  -18.3207  -45.8760 H         1 UNK         0.0600 
    156 H156       -1.6766  -16.3482  -43.6162 H         1 UNK         0.0600 
    157 H157       -2.8332  -16.9162  -44.8151 H         1 UNK         0.0600 
    158 H158       -1.4591  -15.9447  -45.3182 H         1 UNK         0.0600 
    159 H159        0.7048  -16.7547  -44.3569 H         1 UNK         0.3000 
    160 H160        3.5232  -19.0303  -44.4292 H         1 UNK         0.0600 
    161 H161        2.8742  -16.2790  -45.6050 H         1 UNK         0.0600 
    162 H162        3.4550  -17.6620  -46.5107 H         1 UNK         0.0600 
    163 H163        4.4885  -16.9193  -45.3044 H         1 UNK         0.0600 
    164 H164        3.0543  -16.5085  -43.1204 H         1 UNK         0.3000 
    165 H165        2.0571  -17.8206  -39.9763 H         1 UNK         0.0600 
    166 H166        4.0251  -16.5185  -39.2063 H         1 UNK         0.0600 
    167 H167        4.5484  -18.0263  -39.9391 H         1 UNK         0.0600 
    168 H168        4.7007  -16.5199  -40.8358 H         1 UNK         0.0600 
    169 H169        2.6198  -15.1738  -40.8971 H         1 UNK         0.3000 
    170 H170       -0.5927  -14.4635  -42.2622 H         1 UNK         0.0600 
    171 H171       -0.8243  -14.0883  -39.8092 H         1 UNK         0.0600 
    172 H172        0.8202  -13.4674  -39.7289 H         1 UNK         0.0600 
    173 H173       -0.4150  -12.5921  -40.6327 H         1 UNK         0.0600 
    174 H174        1.8439  -12.9534  -41.9281 H         1 UNK         0.3000 
    175 H175        2.8602  -12.2282  -44.0128 H         1 UNK         0.0600 
    176 H176        4.3682  -14.9182  -43.8811 H         1 UNK         0.0600 
    177 H177        5.0730  -13.3108  -43.7643 H         1 UNK         0.0600 
    178 H178        4.0835  -13.9155  -42.4658 H         1 UNK         0.0600 
    179 H179        2.0915  -13.8780  -46.0410 H         1 UNK         0.3000 
    180 H180        4.4589  -13.0003  -48.6126 H         1 UNK         0.0600 
    181 H181        2.6114  -15.3175  -47.8279 H         1 UNK         0.0600 
    182 H182        4.3437  -15.4248  -48.0918 H         1 UNK         0.0600 
    183 H183        3.2780  -15.0206  -49.4284 H         1 UNK         0.0600 
    184 H184        1.5665  -13.1631  -48.5624 H         1 UNK         0.3000 
    185 H185        0.9382   -9.7243  -48.2798 H         1 UNK         0.0600 
    186 H186        1.6987   -9.6770  -50.6622 H         1 UNK         0.0600 
    187 H187        0.8936  -11.2126  -50.9605 H         1 UNK         0.0600 
    188 H188       -0.0504   -9.7783  -50.5534 H         1 UNK         0.0600 
    189 H189       -0.7550  -11.7792  -49.2154 H         1 UNK         0.3000 
    190 H190       -1.7140  -23.0968  -44.6605 H         1 UNK         0.3000 
    191 H191       -4.2734  -22.3605  -45.7165 H         1 UNK         0.0600 
    192 H192       -3.7423  -22.2014  -43.3114 H         1 UNK         0.0600 
    193 H193       -5.1123  -23.2736  -43.5470 H         1 UNK         0.0600 
    194 H194       -3.5226  -23.9493  -43.2081 H         1 UNK         0.0600 
    195 H195       -2.4612  -25.3108  -45.9201 H         1 UNK         0.3000 
    196 H196       -4.8182  -26.8663  -46.9063 H         1 UNK         0.0600 
    197 H197       -3.3465  -28.8454  -46.5542 H         1 UNK         0.0600 
    198 H198       -3.5583  -27.9664  -45.0476 H         1 UNK         0.0600 
    199 H199       -2.0548  -27.8110  -45.9548 H         1 UNK         0.0600 
    200 H200       -4.7069  -27.6702  -48.9574 H         1 UNK         0.3000 
    201 H201       -4.3146  -27.9557  -51.0809 H         1 UNK         0.0600 
    202 H202       -2.2731  -29.1624  -50.3820 H         1 UNK         0.0600 
    203 H203       -1.3324  -27.6736  -50.4416 H         1 UNK         0.0600 
    204 H204       -2.0145  -28.3445  -51.9149 H         1 UNK         0.0600 
    205 H205       -2.1668  -25.3062  -50.0642 H         1 UNK         0.3000 
    206 H206       -2.5324  -23.7281  -52.5071 H         1 UNK         0.0600 
    207 H207       -0.4133  -23.4501  -51.4666 H         1 UNK         0.0600 
    208 H208       -1.2870  -22.0056  -50.9647 H         1 UNK         0.0600 
    209 H209       -1.0994  -23.3561  -49.8544 H         1 UNK         0.0600 
    210 H210       -3.9183  -23.8933  -49.3004 H         1 UNK         0.3000 
    211 H211       -5.5786  -22.9378  -48.1998 H         1 UNK         0.0600 
    212 H212       -6.8645  -22.5010  -50.9385 H         1 UNK         0.0600 
    213 H213       -7.6983  -22.5719  -49.3935 H         1 UNK         0.0600 
    214 H214       -6.9150  -24.0094  -50.0300 H         1 UNK         0.0600 
    215 H215       -3.4434  -21.3056  -48.4617 H         1 UNK         0.3000 
    216 H216       -2.5900  -19.2514  -48.4554 H         1 UNK         0.0600 
    217 H217       -3.8657  -17.5022  -47.2408 H         1 UNK         0.0600 
    218 H218       -4.0711  -19.0629  -46.4634 H         1 UNK         0.0600 
    219 H219       -5.3611  -18.3990  -47.4651 H         1 UNK         0.0600 
    220 H220       -3.4312  -20.0843  -50.9503 H         1 UNK         0.3000 
    221 H221       -3.3707  -19.4662  -53.0276 H         1 UNK         0.0600 
    222 H222       -3.3701  -16.5216  -52.1977 H         1 UNK         0.0600 
    223 H223       -1.9669  -17.5292  -52.5663 H         1 UNK         0.0600 
    224 H224       -3.1069  -17.1274  -53.8227 H         1 UNK         0.0600 
    225 H225       -5.9726  -19.5984  -51.2752 H         1 UNK         0.3000 
    226 H226       -7.9103  -18.6450  -53.2667 H         1 UNK         0.0600 
    227 H227       -8.4659  -18.7991  -50.8104 H         1 UNK         0.0600 
    228 H228       -9.5662  -19.7057  -51.8381 H         1 UNK         0.0600 
    229 H229       -8.3369  -20.5544  -50.9188 H         1 UNK         0.0600 
    230 H230       -5.8035  -21.3795  -52.9095 H         1 UNK         0.3000 
    231 H231       -7.1756  -22.8226  -55.1226 H         1 UNK         0.0600 
    232 H232       -5.9655  -24.0620  -52.5994 H         1 UNK         0.0600 
    233 H233       -6.5264  -24.9626  -54.0085 H         1 UNK         0.0600 
    234 H234       -7.6637  -24.0444  -53.0410 H         1 UNK         0.0600 
    235 H235       -4.4280  -24.4461  -54.1335 H         1 UNK         0.3000 
    236 H236       -3.3771  -24.2257  -56.6536 H         1 UNK         0.0600 
    237 H237       -3.0502  -26.1523  -55.1229 H         1 UNK         0.0600 
    238 H238       -1.5243  -25.6216  -55.8082 H         1 UNK         0.0600 
    239 H239       -1.9219  -25.2118  -54.1488 H         1 UNK         0.0600 
    240 H240       -2.5646  -22.0214  -54.0594 H         1 UNK         0.3000 
    241 H241       -0.2229  -21.0050  -55.5758 H         1 UNK         0.0600 
    242 H242       -3.4175  -18.7822  -56.3003 H         1 UNK         0.3800 
    243 H243       -3.5230  -20.4668  -55.8650 H         1 UNK         0.3800 
    244 H244       -0.9470  -19.8055  -52.8938 H         1 UNK         0.0800 
    245 H245       -0.2798  -21.4102  -52.9315 H         1 UNK         0.0800 
    246 H246        0.4879  -17.6672  -53.3787 H         1 UNK         0.0800 
    247 H247        2.2186  -17.7047  -53.1514 H         1 UNK         0.0800 
@<TRIPOS>BOND
     1    1    2 1    
     2    1  127 1    
     3    1  128 1    
     4    1  129 1    
     5    2    3 2    
     6    2    4 am   BACKBONE|DICT|INTERRES
     7    4    5 1    
     8    4  130 1    
     9    5    6 1    
    10    5   65 1    
    11    5  131 1    
    12    6    7 1    
    13    6  132 1    
    14    6  133 1    
    15    7    8 1    
    16    8    9 1    
    17    8  134 1    
    18    8  135 1    
    19    9   10 ar   
    20    9   14 ar   
    21   10   11 ar   
    22   10  136 1    
    23   11   12 ar   
    24   11  126 1    
    25   12   13 ar   
    26   12  137 1    
    27   13   14 ar   
    28   13   15 1    
    29   14  138 1    
    30   15   16 1    
    31   15  139 1    
    32   15  140 1    
    33   16   17 1    
    34   17   18 1    
    35   17  141 1    
    36   17  142 1    
    37   18   19 1    
    38   18   67 1    
    39   18  143 1    
    40   19   20 am   BACKBONE|DICT|INTERRES
    41   19  144 1    
    42   20   21 2    
    43   20   22 1    
    44   22   23 1    
    45   22   24 1    
    46   22  145 1    
    47   23  146 1    
    48   23  147 1    
    49   23  148 1    
    50   24   25 am   BACKBONE|DICT|INTERRES
    51   24  149 1    
    52   25   26 2    
    53   25   27 1    
    54   27   28 1    
    55   27   29 1    
    56   27  150 1    
    57   28  151 1    
    58   28  152 1    
    59   28  153 1    
    60   29   30 am   BACKBONE|DICT|INTERRES
    61   29  154 1    
    62   30   31 2    
    63   30   32 1    
    64   32   33 1    
    65   32   34 1    
    66   32  155 1    
    67   33  156 1    
    68   33  157 1    
    69   33  158 1    
    70   34   35 am   BACKBONE|DICT|INTERRES
    71   34  159 1    
    72   35   36 2    
    73   35   37 1    
    74   37   38 1    
    75   37   39 1    
    76   37  160 1    
    77   38  161 1    
    78   38  162 1    
    79   38  163 1    
    80   39   40 am   BACKBONE|DICT|INTERRES
    81   39  164 1    
    82   40   41 2    
    83   40   42 1    
    84   42   43 1    
    85   42   44 1    
    86   42  165 1    
    87   43  166 1    
    88   43  167 1    
    89   43  168 1    
    90   44   45 am   BACKBONE|DICT|INTERRES
    91   44  169 1    
    92   45   46 2    
    93   45   47 1    
    94   47   48 1    
    95   47   49 1    
    96   47  170 1    
    97   48  171 1    
    98   48  172 1    
    99   48  173 1    
   100   49   50 am   BACKBONE|DICT|INTERRES
   101   49  174 1    
   102   50   51 2    
   103   50   52 1    
   104   52   53 1    
   105   52   54 1    
   106   52  175 1    
   107   53  176 1    
   108   53  177 1    
   109   53  178 1    
   110   54   55 am   BACKBONE|DICT|INTERRES
   111   54  179 1    
   112   55   56 2    
   113   55   57 1    
   114   57   58 1    
   115   57   59 1    
   116   57  180 1    
   117   58  181 1    
   118   58  182 1    
   119   58  183 1    
   120   59   60 am   BACKBONE|DICT|INTERRES
   121   59  184 1    
   122   60   61 2    
   123   60   62 1    
   124   62   63 1    
   125   62   64 1    
   126   62  185 1    
   127   63  186 1    
   128   63  187 1    
   129   63  188 1    
   130   64   65 am   BACKBONE|DICT|INTERRES
   131   64  189 1    
   132   65   66 2    
   133   67   68 2    
   134   67   69 am   BACKBONE|DICT|INTERRES
   135   69   70 1    
   136   69  190 1    
   137   70   71 1    
   138   70   72 1    
   139   70  191 1    
   140   71  192 1    
   141   71  193 1    
   142   71  194 1    
   143   72   73 2    
   144   72   74 am   BACKBONE|DICT|INTERRES
   145   74   75 1    
   146   74  195 1    
   147   75   76 1    
   148   75   77 1    
   149   75  196 1    
   150   76  197 1    
   151   76  198 1    
   152   76  199 1    
   153   77   78 2    
   154   77   79 am   BACKBONE|DICT|INTERRES
   155   79   80 1    
   156   79  200 1    
   157   80   81 1    
   158   80   82 1    
   159   80  201 1    
   160   81  202 1    
   161   81  203 1    
   162   81  204 1    
   163   82   83 2    
   164   82   84 am   BACKBONE|DICT|INTERRES
   165   84   85 1    
   166   84  205 1    
   167   85   86 1    
   168   85   87 1    
   169   85  206 1    
   170   86  207 1    
   171   86  208 1    
   172   86  209 1    
   173   87   88 2    
   174   87   89 am   BACKBONE|DICT|INTERRES
   175   89   90 1    
   176   89  210 1    
   177   90   91 1    
   178   90   92 1    
   179   90  211 1    
   180   91  212 1    
   181   91  213 1    
   182   91  214 1    
   183   92   93 2    
   184   92   94 am   BACKBONE|DICT|INTERRES
   185   94   95 1    
   186   94  215 1    
   187   95   96 1    
   188   95   97 1    
   189   95  216 1    
   190   96  217 1    
   191   96  218 1    
   192   96  219 1    
   193   97   98 2    
   194   97   99 am   BACKBONE|DICT|INTERRES
   195   99  100 1    
   196   99  220 1    
   197  100  101 1    
   198  100  102 1    
   199  100  221 1    
   200  101  222 1    
   201  101  223 1    
   202  101  224 1    
   203  102  103 2    
   204  102  104 am   BACKBONE|DICT|INTERRES
   205  104  105 1    
   206  104  225 1    
   207  105  106 1    
   208  105  107 1    
   209  105  226 1    
   210  106  227 1    
   211  106  228 1    
   212  106  229 1    
   213  107  108 2    
   214  107  109 am   BACKBONE|DICT|INTERRES
   215  109  110 1    
   216  109  230 1    
   217  110  111 1    
   218  110  112 1    
   219  110  231 1    
   220  111  232 1    
   221  111  233 1    
   222  111  234 1    
   223  112  113 2    
   224  112  114 am   BACKBONE|DICT|INTERRES
   225  114  115 1    
   226  114  235 1    
   227  115  116 1    
   228  115  117 1    
   229  115  236 1    
   230  116  237 1    
   231  116  238 1    
   232  116  239 1    
   233  117  118 2    
   234  117  119 am   BACKBONE|DICT|INTERRES
   235  119  120 1    
   236  119  240 1    
   237  120  121 1    
   238  120  124 1    
   239  120  241 1    
   240  121  122 am   BACKBONE|DICT|INTERRES
   241  121  123 2    
   242  122  242 1    
   243  122  243 1    
   244  124  125 1    
   245  124  244 1    
   246  124  245 1    
   247  125  126 1    
   248  126  246 1    
   249  126  247 1    
@<TRIPOS>SUBSTRUCTURE
     1 UNK         1 GROUP             0       ****    0 ROOT    
