@<TRIPOS>MOLECULE
3R540
247   249    1
SMALL
USER_CHARGES


@<TRIPOS>ATOM
      1 CA          2.1941  -14.6359  -50.5049 C.3       0 UNK        -0.1800 
      2 C           1.9389  -14.2871  -49.0456 C.2       0 UNK         0.5000 
      3 O           2.5896  -14.8383  -48.1568 O.2       0 UNK        -0.5000 
      4 N           0.9997  -13.3662  -48.7908 N.am      1 UNK        -0.5000 
      5 CA          0.6289  -12.8814  -47.4569 C.3       1 UNK         0.1400 
      6 C6         -0.8287  -12.3505  -47.4086 C.3       23 UNK        -0.0398 
      7 S7         -2.0305  -13.7202  -47.2675 S.3       23 UNK        -0.2404 
      8 C8         -2.5545  -13.9901  -48.9904 C.3       23 UNK        -0.0205 
      9 C9         -2.6162  -15.4795  -49.2872 C.ar      23 UNK        -0.0193 
     10 C10        -3.8042  -16.1994  -49.1171 C.ar      23 UNK        -0.1150 
     11 C11        -3.8341  -17.5859  -49.3131 C.ar      23 UNK        -0.0193 
     12 C12        -2.6550  -18.2409  -49.6882 C.ar      23 UNK        -0.1150 
     13 C13        -1.4657  -17.5318  -49.8676 C.ar      23 UNK        -0.0193 
     14 C14        -1.4578  -16.1494  -49.6831 C.ar      23 UNK        -0.1150 
     15 C15        -0.1833  -18.2692  -50.2201 C.3       23 UNK        -0.0205 
     16 S16         1.1181  -18.1018  -48.9553 S.3       23 UNK        -0.2404 
     17 C17         0.2643  -18.5087  -47.3940 C.3       23 UNK        -0.0398 
     18 CA          0.2478  -20.0266  -47.0826 C.3       11 UNK         0.1400 
     19 N           0.6204  -20.3258  -45.6949 N.am      11 UNK        -0.5000 
     20 C           0.9712  -21.5500  -45.2774 C.2       10 UNK         0.5000 
     21 O           0.9772  -22.5437  -46.0065 O.2       10 UNK        -0.5000 
     22 CA          1.3364  -21.6994  -43.7894 C.3       10 UNK         0.1400 
     23 CB          2.7094  -21.0762  -43.4950 C.3       10 UNK        -0.1800 
     24 N           0.3499  -21.1440  -42.8600 N.am      10 UNK        -0.5000 
     25 C          -0.9596  -21.4196  -42.8308 C.2       9 UNK         0.5000 
     26 O          -1.5298  -22.0949  -43.6859 O.2       9 UNK        -0.5000 
     27 CA         -1.7937  -20.8551  -41.6651 C.3       9 UNK         0.1400 
     28 CB         -1.9651  -21.9069  -40.5534 C.3       9 UNK        -0.1800 
     29 N          -1.3347  -19.5707  -41.1215 N.am      9 UNK        -0.5000 
     30 C          -0.2235  -19.2756  -40.4280 C.2       8 UNK         0.5000 
     31 O           0.6446  -20.1049  -40.1551 O.2       8 UNK        -0.5000 
     32 CA         -0.0291  -17.8054  -39.9966 C.3       8 UNK         0.1400 
     33 CB          1.4036  -17.3206  -40.2856 C.3       8 UNK        -0.1800 
     34 N          -0.9697  -16.9181  -40.6822 N.am      8 UNK        -0.5000 
     35 C          -2.1095  -16.4352  -40.1677 C.2       7 UNK         0.5000 
     36 O          -2.4614  -16.6130  -39.0016 O.2       7 UNK        -0.5000 
     37 CA         -3.0292  -15.6420  -41.1222 C.3       7 UNK         0.1400 
     38 CB         -2.8340  -14.1315  -40.9212 C.3       7 UNK        -0.1800 
     39 N          -2.8183  -15.9599  -42.5375 N.am      7 UNK        -0.5000 
     40 C          -3.0748  -17.1443  -43.1124 C.2       6 UNK         0.5000 
     41 O          -3.5981  -18.0884  -42.5229 O.2       6 UNK        -0.5000 
     42 CA         -2.5861  -17.3319  -44.5628 C.3       6 UNK         0.1400 
     43 CB         -3.6906  -16.9648  -45.5605 C.3       6 UNK        -0.1800 
     44 N          -1.3859  -16.5499  -44.8732 N.am      6 UNK        -0.5000 
     45 C          -0.2071  -16.6805  -44.2496 C.2       5 UNK         0.5000 
     46 O           0.0257  -17.5650  -43.4248 O.2       5 UNK        -0.5000 
     47 CA          0.8322  -15.5871  -44.5553 C.3       5 UNK         0.1400 
     48 CB          0.3117  -14.2238  -44.0627 C.3       5 UNK        -0.1800 
     49 N           2.1437  -15.8074  -43.9488 N.am      5 UNK        -0.5000 
     50 C           2.9926  -16.8021  -44.2350 C.2       4 UNK         0.5000 
     51 O           2.7631  -17.6877  -45.0579 O.2       4 UNK        -0.5000 
     52 CA          4.3413  -16.7568  -43.4963 C.3       4 UNK         0.1400 
     53 CB          5.3554  -17.7818  -44.0371 C.3       4 UNK        -0.1800 
     54 N           4.9165  -15.4144  -43.6053 N.am      4 UNK        -0.5000 
     55 C           5.1639  -14.5869  -42.5826 C.2       3 UNK         0.5000 
     56 O           4.9263  -14.8624  -41.4064 O.2       3 UNK        -0.5000 
     57 CA          5.7791  -13.2153  -42.9273 C.3       3 UNK         0.1400 
     58 CB          7.3101  -13.2733  -42.8107 C.3       3 UNK        -0.1800 
     59 N           5.4226  -12.7205  -44.2615 N.am      3 UNK        -0.5000 
     60 C           4.2096  -12.2676  -44.6078 C.2       2 UNK         0.5000 
     61 O           3.2537  -12.2529  -43.8312 O.2       2 UNK        -0.5000 
     62 CA          4.0214  -11.7367  -46.0444 C.3       2 UNK         0.1400 
     63 CB          5.2504  -11.9338  -46.9550 C.3       2 UNK        -0.1800 
     64 N           2.8810  -12.4140  -46.6519 N.am      2 UNK        -0.5000 
     65 C           1.6808  -11.8858  -46.9164 C.2       1 UNK         0.5000 
     66 O           1.4005  -10.6954  -46.7665 O.2       1 UNK        -0.5000 
     67 C          -1.1051  -20.6583  -47.4667 C.2       11 UNK         0.5000 
     68 O          -1.2588  -21.1119  -48.5995 O.2       11 UNK        -0.5000 
     69 N          -2.0487  -20.7046  -46.5145 N.am      12 UNK        -0.5000 
     70 CA         -3.3750  -21.2965  -46.6974 C.3       12 UNK         0.1400 
     71 CB         -4.3070  -20.8507  -45.5617 C.3       12 UNK        -0.1800 
     72 C          -3.3244  -22.8301  -46.7938 C.2       12 UNK         0.5000 
     73 O          -4.0578  -23.4076  -47.5946 O.2       12 UNK        -0.5000 
     74 N          -2.4352  -23.4545  -46.0088 N.am      13 UNK        -0.5000 
     75 CA         -2.1442  -24.8879  -46.0446 C.3       13 UNK         0.1400 
     76 CB         -1.2573  -25.2588  -44.8462 C.3       13 UNK        -0.1800 
     77 C          -1.4876  -25.3187  -47.3690 C.2       13 UNK         0.5000 
     78 O          -1.8263  -26.3775  -47.8988 O.2       13 UNK        -0.5000 
     79 N          -0.5893  -24.4744  -47.8968 N.am      14 UNK        -0.5000 
     80 CA          0.0055  -24.6282  -49.2264 C.3       14 UNK         0.1400 
     81 CB          1.2464  -23.7275  -49.3245 C.3       14 UNK        -0.1800 
     82 C          -0.9802  -24.2977  -50.3654 C.2       14 UNK         0.5000 
     83 O          -0.7932  -24.7705  -51.4869 O.2       14 UNK        -0.5000 
     84 N          -1.9801  -23.4549  -50.0691 N.am      15 UNK        -0.5000 
     85 CA         -3.0188  -22.9230  -50.9572 C.3       15 UNK         0.1400 
     86 CB         -3.9791  -24.0482  -51.3854 C.3       15 UNK        -0.1800 
     87 C          -2.4498  -22.1215  -52.1481 C.2       15 UNK         0.5000 
     88 O          -3.0534  -22.0973  -53.2235 O.2       15 UNK        -0.5000 
     89 N          -1.2677  -21.5208  -51.9380 N.am      16 UNK        -0.5000 
     90 CA         -0.3972  -20.8861  -52.9359 C.3       16 UNK         0.1400 
     91 CB         -1.0451  -19.6033  -53.4943 C.3       16 UNK        -0.1800 
     92 C           0.0264  -21.8700  -54.0489 C.2       16 UNK         0.5000 
     93 O          -0.0162  -21.5223  -55.2282 O.2       16 UNK        -0.5000 
     94 N           0.3739  -23.1048  -53.6533 N.am      17 UNK        -0.5000 
     95 CA          0.6349  -24.2647  -54.5173 C.3       17 UNK         0.1400 
     96 CB          1.8872  -24.0466  -55.3925 C.3       17 UNK        -0.1800 
     97 C          -0.6192  -24.6644  -55.3246 C.2       17 UNK         0.5000 
     98 O          -0.5301  -24.9665  -56.5153 O.2       17 UNK        -0.5000 
     99 N          -1.7727  -24.6140  -54.6423 N.am      18 UNK        -0.5000 
    100 CA        -3.1382  -24.8410  -55.1295 C.3       18 UNK         0.1400 
    101 CB        -3.3023  -26.2755  -55.6720 C.3       18 UNK        -0.1800 
    102 C         -3.6670  -23.7775  -56.1181 C.2       18 UNK         0.5000 
    103 O         -4.7665  -23.9538  -56.6450 O.2       18 UNK        -0.5000 
    104 N         -2.9182  -22.6886  -56.3469 N.am      19 UNK        -0.5000 
    105 CA        -3.3041  -21.6096  -57.2576 C.3       19 UNK         0.1400 
    106 CB        -2.0572  -20.8195  -57.6806 C.3       19 UNK        -0.1800 
    107 C         -4.3571  -20.6622  -56.6557 C.2       19 UNK         0.5000 
    108 O         -5.1897  -20.1435  -57.4008 O.2       19 UNK        -0.5000 
    109 N         -4.3045  -20.4444  -55.3341 N.am      20 UNK        -0.5000 
    110 CA        -5.2333  -19.5696  -54.6141 C.3       20 UNK         0.1400 
    111 CB        -4.4904  -18.8546  -53.4747 C.3       20 UNK        -0.1800 
    112 C         -6.4440  -20.3391  -54.0637 C.2       20 UNK         0.5000 
    113 O         -7.4914  -19.7285  -53.8454 O.2       20 UNK        -0.5000 
    114 N         -6.2781  -21.6512  -53.8345 N.am      21 UNK        -0.5000 
    115 CA        -7.2304  -22.6201  -53.2705 C.3       21 UNK         0.1400 
    116 CB        -8.5121  -22.7240  -54.1188 C.3       21 UNK        -0.1800 
    117 C         -7.5545  -22.3830  -51.7807 C.2       21 UNK         0.5000 
    118 O         -7.4922  -23.3278  -50.9945 O.2       21 UNK        -0.5000 
    119 N         -7.8599  -21.1307  -51.4215 N.am      22 UNK        -0.5000 
    120 CA        -8.0442  -20.6123  -50.0537 C.3       22 UNK         0.1400 
    121 C         -9.2898  -21.1662  -49.2953 C.2       22 UNK         0.5000 
    122 N        -10.2594  -21.7715  -49.9700 N.am      22 UNK        -0.7600 
    123 O         -9.4017  -21.0166  -48.0814 O.2       22 UNK        -0.5000 
    124 C124       -6.7435  -20.6841  -49.2034 C.3       23 UNK        -0.0398 
    125 S125       -5.3226  -19.8775  -50.0208 S.3       23 UNK        -0.2404 
    126 C126       -5.1205  -18.3610  -49.0245 C.3       23 UNK        -0.0205 
    127 H127        2.0567  -15.7050  -50.6654 H         1 UNK         0.0600 
    128 H128        1.5177  -14.1032  -51.1736 H         1 UNK         0.0600 
    129 H129        3.2174  -14.3786  -50.7777 H         1 UNK         0.0600 
    130 H130        0.5318  -12.9161  -49.5638 H         1 UNK         0.3000 
    131 H131        0.6728  -13.7304  -46.7800 H         1 UNK         0.0600 
    132 H132       -1.0559  -11.7170  -48.2671 H         1 UNK         0.0800 
    133 H133       -0.9853  -11.7266  -46.5268 H         1 UNK         0.0800 
    134 H134       -1.8640  -13.5074  -49.6828 H         1 UNK         0.0800 
    135 H135       -3.5285  -13.5255  -49.1503 H         1 UNK         0.0800 
    136 H136       -4.6970  -15.6839  -48.7921 H         1 UNK         0.1150 
    137 H137       -2.6514  -19.3126  -49.8183 H         1 UNK         0.1150 
    138 H138       -0.5359  -15.6021  -49.8051 H         1 UNK         0.1150 
    139 H139       -0.3791  -19.3295  -50.3720 H         1 UNK         0.0800 
    140 H140        0.1983  -17.8872  -51.1675 H         1 UNK         0.0800 
    141 H141        0.8279  -17.9812  -46.6293 H         1 UNK         0.0800 
    142 H142       -0.7288  -18.0582  -47.3601 H         1 UNK         0.0800 
    143 H143        1.0025  -20.5104  -47.7071 H         1 UNK         0.0600 
    144 H144        0.6597  -19.5555  -45.0402 H         1 UNK         0.3000 
    145 H145        1.4013  -22.7693  -43.5820 H         1 UNK         0.0600 
    146 H146        3.0423  -21.3170  -42.4853 H         1 UNK         0.0600 
    147 H147        3.4680  -21.4481  -44.1851 H         1 UNK         0.0600 
    148 H148        2.6840  -19.9902  -43.5862 H         1 UNK         0.0600 
    149 H149        0.7151  -20.6078  -42.0809 H         1 UNK         0.3000 
    150 H150       -2.7852  -20.6571  -42.0748 H         1 UNK         0.0600 
    151 H151       -2.4204  -22.8165  -40.9475 H         1 UNK         0.0600 
    152 H152       -2.6127  -21.5382  -39.7580 H         1 UNK         0.0600 
    153 H153       -1.0114  -22.1900  -40.1074 H         1 UNK         0.0600 
    154 H154       -1.9608  -18.8018  -41.3253 H         1 UNK         0.3000 
    155 H155       -0.1889  -17.7626  -38.9176 H         1 UNK         0.0600 
    156 H156        2.1349  -17.8946  -39.7155 H         1 UNK         0.0600 
    157 H157        1.5300  -16.2737  -40.0097 H         1 UNK         0.0600 
    158 H158        1.6603  -17.4220  -41.3400 H         1 UNK         0.0600 
    159 H159       -0.7755  -16.7751  -41.6658 H         1 UNK         0.3000 
    160 H160       -4.0613  -15.8933  -40.8690 H         1 UNK         0.0600 
    161 H161       -1.8205  -13.8188  -41.1758 H         1 UNK         0.0600 
    162 H162       -3.5278  -13.5581  -41.5363 H         1 UNK         0.0600 
    163 H163       -3.0134  -13.8490  -39.8829 H         1 UNK         0.0600 
    164 H164       -2.4018  -15.2353  -43.1021 H         1 UNK         0.3000 
    165 H165       -2.3432  -18.3885  -44.6882 H         1 UNK         0.0600 
    166 H166       -4.6332  -17.4545  -45.3142 H         1 UNK         0.0600 
    167 H167       -3.8779  -15.8906  -45.5827 H         1 UNK         0.0600 
    168 H168       -3.4116  -17.2792  -46.5641 H         1 UNK         0.0600 
    169 H169       -1.5081  -15.8046  -45.5453 H         1 UNK         0.3000 
    170 H170        0.9709  -15.5691  -45.6365 H         1 UNK         0.0600 
    171 H171       -0.6464  -13.9626  -44.5121 H         1 UNK         0.0600 
    172 H172        1.0028  -13.4222  -44.3154 H         1 UNK         0.0600 
    173 H173        0.1782  -14.2138  -42.9800 H         1 UNK         0.0600 
    174 H174        2.4334  -15.1276  -43.2609 H         1 UNK         0.3000 
    175 H175        4.1344  -17.0085  -42.4542 H         1 UNK         0.0600 
    176 H176        5.5782  -17.6102  -45.0908 H         1 UNK         0.0600 
    177 H177        6.2937  -17.7347  -43.4843 H         1 UNK         0.0600 
    178 H178        4.9744  -18.7992  -43.9415 H         1 UNK         0.0600 
    179 H179        5.1106  -15.0880  -44.5410 H         1 UNK         0.3000 
    180 H180        5.4115  -12.4985  -42.1898 H         1 UNK         0.0600 
    181 H181        7.6142  -13.6109  -41.8189 H         1 UNK         0.0600 
    182 H182        7.7440  -13.9603  -43.5383 H         1 UNK         0.0600 
    183 H183        7.7556  -12.2908  -42.9679 H         1 UNK         0.0600 
    184 H184        6.1626  -12.6982  -44.9482 H         1 UNK         0.3000 
    185 H185        3.8278  -10.6654  -45.9632 H         1 UNK         0.0600 
    186 H186        6.1218  -11.4024  -46.5701 H         1 UNK         0.0600 
    187 H187        5.5138  -12.9868  -47.0642 H         1 UNK         0.0600 
    188 H188        5.0573  -11.5409  -47.9535 H         1 UNK         0.0600 
    189 H189        3.0070  -13.3986  -46.8675 H         1 UNK         0.3000 
    190 H190       -1.8097  -20.4023  -45.5824 H         1 UNK         0.3000 
    191 H191       -3.7853  -20.9220  -47.6371 H         1 UNK         0.0600 
    192 H192       -5.3003  -21.2854  -45.6807 H         1 UNK         0.0600 
    193 H193       -4.4295  -19.7698  -45.5554 H         1 UNK         0.0600 
    194 H194       -3.9315  -21.1530  -44.5838 H         1 UNK         0.0600 
    195 H195       -1.9275  -22.9072  -45.3176 H         1 UNK         0.3000 
    196 H196       -3.0896  -25.4259  -45.9496 H         1 UNK         0.0600 
    197 H197       -1.0390  -26.3273  -44.8369 H         1 UNK         0.0600 
    198 H198       -1.7493  -25.0181  -43.9036 H         1 UNK         0.0600 
    199 H199       -0.3051  -24.7278  -44.8694 H         1 UNK         0.0600 
    200 H200       -0.3151  -23.6578  -47.3624 H         1 UNK         0.3000 
    201 H201        0.3223  -25.6657  -49.3507 H         1 UNK         0.0600 
    202 H202        1.9769  -23.9796  -48.5554 H         1 UNK         0.0600 
    203 H203        0.9910  -22.6738  -49.2074 H         1 UNK         0.0600 
    204 H204        1.7392  -23.8420  -50.2908 H         1 UNK         0.0600 
    205 H205       -1.9839  -23.0603  -49.1370 H         1 UNK         0.3000 
    206 H206       -3.5896  -22.2104  -50.3627 H         1 UNK         0.0600 
    207 H207       -4.4605  -24.4966  -50.5161 H         1 UNK         0.0600 
    208 H208       -4.7705  -23.6681  -52.0280 H         1 UNK         0.0600 
    209 H209       -3.4646  -24.8417  -51.9261 H         1 UNK         0.0600 
    210 H210       -0.8931  -21.5831  -51.0002 H         1 UNK         0.3000 
    211 H211        0.5150  -20.5980  -52.4119 H         1 UNK         0.0600 
    212 H212       -1.8546  -19.8316  -54.1853 H         1 UNK         0.0600 
    213 H213       -0.3145  -19.0067  -54.0411 H         1 UNK         0.0600 
    214 H214       -1.4523  -18.9777  -52.7012 H         1 UNK         0.0600 
    215 H215        0.3040  -23.3247  -52.6680 H         1 UNK         0.3000 
    216 H216        0.8448  -25.1017  -53.8497 H         1 UNK         0.0600 
    217 H217        2.7463  -23.7599  -54.7862 H         1 UNK         0.0600 
    218 H218        1.7324  -23.2718  -56.1437 H         1 UNK         0.0600 
    219 H219        2.1546  -24.9619  -55.9215 H         1 UNK         0.0600 
    220 H220       -1.7090  -24.3464  -53.6687 H         1 UNK         0.3000 
    221 H221       -3.7803  -24.7558  -54.2535 H         1 UNK         0.0600 
    222 H222       -2.7550  -26.4235  -56.6031 H         1 UNK         0.0600 
    223 H223       -2.9475  -27.0126  -54.9517 H         1 UNK         0.0600 
    224 H224       -4.3502  -26.5007  -55.8734 H         1 UNK         0.0600 
    225 H225       -2.0313  -22.5911  -55.8703 H         1 UNK         0.3000 
    226 H226       -3.7329  -22.0571  -58.1570 H         1 UNK         0.0600 
    227 H227       -1.2815  -21.4785  -58.0712 H         1 UNK         0.0600 
    228 H228       -2.3013  -20.1016  -58.4644 H         1 UNK         0.0600 
    229 H229       -1.6343  -20.2573  -56.8477 H         1 UNK         0.0600 
    230 H230       -3.6238  -20.9475  -54.7734 H         1 UNK         0.3000 
    231 H231       -5.6165  -18.8002  -55.2877 H         1 UNK         0.0600 
    232 H232       -4.0395  -19.5610  -52.7781 H         1 UNK         0.0600 
    233 H233       -3.7007  -18.2117  -53.8626 H         1 UNK         0.0600 
    234 H234       -5.1673  -18.2206  -52.9004 H         1 UNK         0.0600 
    235 H235       -5.3525  -22.0182  -54.0094 H         1 UNK         0.3000 
    236 H236       -6.7321  -23.5884  -53.3338 H         1 UNK         0.0600 
    237 H237       -8.2765  -22.9400  -55.1610 H         1 UNK         0.0600 
    238 H238       -9.1510  -23.5302  -53.7563 H         1 UNK         0.0600 
    239 H239       -9.1014  -21.8074  -54.0911 H         1 UNK         0.0600 
    240 H240       -7.8803  -20.4367  -52.1641 H         1 UNK         0.3000 
    241 H241       -8.2692  -19.5538  -50.1872 H         1 UNK         0.0600 
    242 H242      -11.0678  -22.1179  -49.4775 H         1 UNK         0.3800 
    243 H243      -10.1859  -21.8958  -50.9670 H         1 UNK         0.3800 
    244 H244       -6.4757  -21.7231  -49.0049 H         1 UNK         0.0800 
    245 H245       -6.8963  -20.2242  -48.2260 H         1 UNK         0.0800 
    246 H246       -5.1216  -18.6255  -47.9667 H         1 UNK         0.0800 
    247 H247       -5.9887  -17.7218  -49.1914 H         1 UNK         0.0800 
@<TRIPOS>BOND
     1    1    2 1    
     2    1  127 1    
     3    1  128 1    
     4    1  129 1    
     5    2    3 2    
     6    2    4 am   BACKBONE|DICT|INTERRES
     7    4    5 1    
     8    4  130 1    
     9    5    6 1    
    10    5   65 1    
    11    5  131 1    
    12    6    7 1    
    13    6  132 1    
    14    6  133 1    
    15    7    8 1    
    16    8    9 1    
    17    8  134 1    
    18    8  135 1    
    19    9   10 ar   
    20    9   14 ar   
    21   10   11 ar   
    22   10  136 1    
    23   11   12 ar   
    24   11  126 1    
    25   12   13 ar   
    26   12  137 1    
    27   13   14 ar   
    28   13   15 1    
    29   14  138 1    
    30   15   16 1    
    31   15  139 1    
    32   15  140 1    
    33   16   17 1    
    34   17   18 1    
    35   17  141 1    
    36   17  142 1    
    37   18   19 1    
    38   18   67 1    
    39   18  143 1    
    40   19   20 am   BACKBONE|DICT|INTERRES
    41   19  144 1    
    42   20   21 2    
    43   20   22 1    
    44   22   23 1    
    45   22   24 1    
    46   22  145 1    
    47   23  146 1    
    48   23  147 1    
    49   23  148 1    
    50   24   25 am   BACKBONE|DICT|INTERRES
    51   24  149 1    
    52   25   26 2    
    53   25   27 1    
    54   27   28 1    
    55   27   29 1    
    56   27  150 1    
    57   28  151 1    
    58   28  152 1    
    59   28  153 1    
    60   29   30 am   BACKBONE|DICT|INTERRES
    61   29  154 1    
    62   30   31 2    
    63   30   32 1    
    64   32   33 1    
    65   32   34 1    
    66   32  155 1    
    67   33  156 1    
    68   33  157 1    
    69   33  158 1    
    70   34   35 am   BACKBONE|DICT|INTERRES
    71   34  159 1    
    72   35   36 2    
    73   35   37 1    
    74   37   38 1    
    75   37   39 1    
    76   37  160 1    
    77   38  161 1    
    78   38  162 1    
    79   38  163 1    
    80   39   40 am   BACKBONE|DICT|INTERRES
    81   39  164 1    
    82   40   41 2    
    83   40   42 1    
    84   42   43 1    
    85   42   44 1    
    86   42  165 1    
    87   43  166 1    
    88   43  167 1    
    89   43  168 1    
    90   44   45 am   BACKBONE|DICT|INTERRES
    91   44  169 1    
    92   45   46 2    
    93   45   47 1    
    94   47   48 1    
    95   47   49 1    
    96   47  170 1    
    97   48  171 1    
    98   48  172 1    
    99   48  173 1    
   100   49   50 am   BACKBONE|DICT|INTERRES
   101   49  174 1    
   102   50   51 2    
   103   50   52 1    
   104   52   53 1    
   105   52   54 1    
   106   52  175 1    
   107   53  176 1    
   108   53  177 1    
   109   53  178 1    
   110   54   55 am   BACKBONE|DICT|INTERRES
   111   54  179 1    
   112   55   56 2    
   113   55   57 1    
   114   57   58 1    
   115   57   59 1    
   116   57  180 1    
   117   58  181 1    
   118   58  182 1    
   119   58  183 1    
   120   59   60 am   BACKBONE|DICT|INTERRES
   121   59  184 1    
   122   60   61 2    
   123   60   62 1    
   124   62   63 1    
   125   62   64 1    
   126   62  185 1    
   127   63  186 1    
   128   63  187 1    
   129   63  188 1    
   130   64   65 am   BACKBONE|DICT|INTERRES
   131   64  189 1    
   132   65   66 2    
   133   67   68 2    
   134   67   69 am   BACKBONE|DICT|INTERRES
   135   69   70 1    
   136   69  190 1    
   137   70   71 1    
   138   70   72 1    
   139   70  191 1    
   140   71  192 1    
   141   71  193 1    
   142   71  194 1    
   143   72   73 2    
   144   72   74 am   BACKBONE|DICT|INTERRES
   145   74   75 1    
   146   74  195 1    
   147   75   76 1    
   148   75   77 1    
   149   75  196 1    
   150   76  197 1    
   151   76  198 1    
   152   76  199 1    
   153   77   78 2    
   154   77   79 am   BACKBONE|DICT|INTERRES
   155   79   80 1    
   156   79  200 1    
   157   80   81 1    
   158   80   82 1    
   159   80  201 1    
   160   81  202 1    
   161   81  203 1    
   162   81  204 1    
   163   82   83 2    
   164   82   84 am   BACKBONE|DICT|INTERRES
   165   84   85 1    
   166   84  205 1    
   167   85   86 1    
   168   85   87 1    
   169   85  206 1    
   170   86  207 1    
   171   86  208 1    
   172   86  209 1    
   173   87   88 2    
   174   87   89 am   BACKBONE|DICT|INTERRES
   175   89   90 1    
   176   89  210 1    
   177   90   91 1    
   178   90   92 1    
   179   90  211 1    
   180   91  212 1    
   181   91  213 1    
   182   91  214 1    
   183   92   93 2    
   184   92   94 am   BACKBONE|DICT|INTERRES
   185   94   95 1    
   186   94  215 1    
   187   95   96 1    
   188   95   97 1    
   189   95  216 1    
   190   96  217 1    
   191   96  218 1    
   192   96  219 1    
   193   97   98 2    
   194   97   99 am   BACKBONE|DICT|INTERRES
   195   99  100 1    
   196   99  220 1    
   197  100  101 1    
   198  100  102 1    
   199  100  221 1    
   200  101  222 1    
   201  101  223 1    
   202  101  224 1    
   203  102  103 2    
   204  102  104 am   BACKBONE|DICT|INTERRES
   205  104  105 1    
   206  104  225 1    
   207  105  106 1    
   208  105  107 1    
   209  105  226 1    
   210  106  227 1    
   211  106  228 1    
   212  106  229 1    
   213  107  108 2    
   214  107  109 am   BACKBONE|DICT|INTERRES
   215  109  110 1    
   216  109  230 1    
   217  110  111 1    
   218  110  112 1    
   219  110  231 1    
   220  111  232 1    
   221  111  233 1    
   222  111  234 1    
   223  112  113 2    
   224  112  114 am   BACKBONE|DICT|INTERRES
   225  114  115 1    
   226  114  235 1    
   227  115  116 1    
   228  115  117 1    
   229  115  236 1    
   230  116  237 1    
   231  116  238 1    
   232  116  239 1    
   233  117  118 2    
   234  117  119 am   BACKBONE|DICT|INTERRES
   235  119  120 1    
   236  119  240 1    
   237  120  121 1    
   238  120  124 1    
   239  120  241 1    
   240  121  122 am   BACKBONE|DICT|INTERRES
   241  121  123 2    
   242  122  242 1    
   243  122  243 1    
   244  124  125 1    
   245  124  244 1    
   246  124  245 1    
   247  125  126 1    
   248  126  246 1    
   249  126  247 1    
@<TRIPOS>SUBSTRUCTURE
     1 UNK         1 GROUP             0       ****    0 ROOT    
