@<TRIPOS>MOLECULE
3R540
247   249    1
SMALL
USER_CHARGES


@<TRIPOS>ATOM
      1 CA          4.0176  -15.5084  -51.2997 C.3       0 UNK        -0.1800 
      2 C           4.1657  -14.4701  -50.1973 C.2       0 UNK         0.5000 
      3 O           4.2766  -13.2780  -50.4858 O.2       0 UNK        -0.5000 
      4 N           4.1666  -14.9106  -48.9337 N.am      1 UNK        -0.5000 
      5 CA          4.3340  -14.0887  -47.7312 C.3       1 UNK         0.1400 
      6 C6          4.9882  -14.8967  -46.5747 C.3       23 UNK        -0.0398 
      7 S7          3.9798  -16.2200  -45.8064 S.3       23 UNK        -0.2404 
      8 C8          4.4238  -17.7060  -46.7658 C.3       23 UNK        -0.0205 
      9 C9          3.5483  -17.9884  -47.9875 C.ar      23 UNK        -0.0193 
     10 C10         2.2976  -17.3857  -48.1875 C.ar      23 UNK        -0.1150 
     11 C11         1.5266  -17.6926  -49.3114 C.ar      23 UNK        -0.0193 
     12 C12         2.0058  -18.6182  -50.2413 C.ar      23 UNK        -0.1150 
     13 C13         3.2414  -19.2435  -50.0469 C.ar      23 UNK        -0.0193 
     14 C14         4.0052  -18.9196  -48.9234 C.ar      23 UNK        -0.1150 
     15 C15         3.7645  -20.2618  -51.0504 C.3       23 UNK        -0.0205 
     16 S16         3.5835  -21.9752  -50.4524 S.3       23 UNK        -0.2404 
     17 C17         1.7766  -22.1950  -50.5611 C.3       23 UNK        -0.0398 
     18 CA          1.1884  -23.1541  -49.4967 C.3       11 UNK         0.1400 
     19 N           1.6238  -22.8550  -48.1277 N.am      11 UNK        -0.5000 
     20 C           1.3631  -23.6257  -47.0599 C.2       10 UNK         0.5000 
     21 O           0.7452  -24.6893  -47.1174 O.2       10 UNK        -0.5000 
     22 CA          1.8262  -23.0949  -45.6889 C.3       10 UNK         0.1400 
     23 CB          3.2791  -23.5082  -45.4131 C.3       10 UNK        -0.1800 
     24 N           1.7064  -21.6414  -45.5593 N.am      10 UNK        -0.5000 
     25 C           0.5723  -20.9435  -45.6877 C.2       9 UNK         0.5000 
     26 O          -0.5281  -21.4635  -45.8836 O.2       9 UNK        -0.5000 
     27 CA          0.7106  -19.4110  -45.6308 C.3       9 UNK         0.1400 
     28 CB         -0.4941  -18.7064  -46.2685 C.3       9 UNK        -0.1800 
     29 N           0.9287  -18.8903  -44.2793 N.am      9 UNK        -0.5000 
     30 C           2.0810  -18.9915  -43.6015 C.2       8 UNK         0.5000 
     31 O           3.0589  -19.6100  -44.0255 O.2       8 UNK        -0.5000 
     32 CA          2.1945  -18.2725  -42.2429 C.3       8 UNK         0.1400 
     33 CB          3.2347  -17.1446  -42.3188 C.3       8 UNK        -0.1800 
     34 N           0.9385  -17.7098  -41.7366 N.am      8 UNK        -0.5000 
     35 C           0.0493  -18.4085  -41.0171 C.2       7 UNK         0.5000 
     36 O           0.1227  -19.6270  -40.8548 O.2       7 UNK        -0.5000 
     37 CA         -1.0968  -17.6366  -40.3410 C.3       7 UNK         0.1400 
     38 CB         -0.6665  -17.1364  -38.9523 C.3       7 UNK        -0.1800 
     39 N          -1.5708  -16.5042  -41.1372 N.am      7 UNK        -0.5000 
     40 C          -2.8640  -16.1896  -41.3087 C.2       6 UNK         0.5000 
     41 O          -3.7924  -16.8034  -40.7803 O.2       6 UNK        -0.5000 
     42 CA         -3.1930  -14.9925  -42.2280 C.3       6 UNK         0.1400 
     43 CB         -3.4717  -13.7344  -41.3914 C.3       6 UNK        -0.1800 
     44 N          -2.1392  -14.6897  -43.1962 N.am      6 UNK        -0.5000 
     45 C          -1.7182  -15.5186  -44.1596 C.2       5 UNK         0.5000 
     46 O          -2.2693  -16.5865  -44.4228 O.2       5 UNK        -0.5000 
     47 CA         -0.4430  -15.1226  -44.9284 C.3       5 UNK         0.1400 
     48 CB         -0.7709  -14.7752  -46.3877 C.3       5 UNK        -0.1800 
     49 N           0.3447  -14.0356  -44.3445 N.am      5 UNK        -0.5000 
     50 C           0.9297  -14.0296  -43.1388 C.2       4 UNK         0.5000 
     51 O           0.7406  -14.9068  -42.2918 O.2       4 UNK        -0.5000 
     52 CA          1.8809  -12.8582  -42.8260 C.3       4 UNK         0.1400 
     53 CB          3.2990  -13.3834  -42.5504 C.3       4 UNK        -0.1800 
     54 N           1.9550  -11.8945  -43.9293 N.am      4 UNK        -0.5000 
     55 C           1.5308  -10.6245  -43.8886 C.2       3 UNK         0.5000 
     56 O           0.9980  -10.1161  -42.9016 O.2       3 UNK        -0.5000 
     57 CA          1.7423   -9.7620  -45.1527 C.3       3 UNK         0.1400 
     58 CB          3.0129   -8.9103  -45.0084 C.3       3 UNK        -0.1800 
     59 N           1.8326  -10.5338  -46.3949 N.am      3 UNK        -0.5000 
     60 C           0.8013  -11.1498  -46.9878 C.2       2 UNK         0.5000 
     61 O          -0.3537  -11.0963  -46.5657 O.2       2 UNK        -0.5000 
     62 CA          1.1063  -11.9977  -48.2426 C.3       2 UNK         0.1400 
     63 CB          0.8973  -11.1665  -49.5166 C.3       2 UNK        -0.1800 
     64 N           2.4332  -12.6265  -48.3003 N.am      2 UNK        -0.5000 
     65 C           3.0278  -13.3538  -47.3441 C.2       1 UNK         0.5000 
     66 O           2.5788  -13.4499  -46.2042 O.2       1 UNK        -0.5000 
     67 C          -0.3476  -23.1463  -49.6062 C.2       11 UNK         0.5000 
     68 O          -0.9225  -24.0697  -50.1798 O.2       11 UNK        -0.5000 
     69 N          -0.9780  -22.1116  -49.0286 N.am      12 UNK        -0.5000 
     70 CA         -2.4297  -21.9440  -49.0042 C.3       12 UNK         0.1400 
     71 CB         -2.7943  -20.5351  -48.5162 C.3       12 UNK        -0.1800 
     72 C          -3.1095  -23.0123  -48.1373 C.2       12 UNK         0.5000 
     73 O          -4.1421  -23.5392  -48.5419 O.2       12 UNK        -0.5000 
     74 N          -2.4995  -23.3458  -46.9907 N.am      13 UNK        -0.5000 
     75 CA         -2.9469  -24.4109  -46.0928 C.3       13 UNK         0.1400 
     76 CB         -2.0872  -24.4105  -44.8200 C.3       13 UNK        -0.1800 
     77 C          -2.9394  -25.7953  -46.7678 C.2       13 UNK         0.5000 
     78 O          -3.9313  -26.5190  -46.6737 O.2       13 UNK        -0.5000 
     79 N          -1.8496  -26.1151  -47.4816 N.am      14 UNK        -0.5000 
     80 CA         -1.7062  -27.3389  -48.2759 C.3       14 UNK         0.1400 
     81 CB         -0.2557  -27.4574  -48.7674 C.3       14 UNK        -0.1800 
     82 C          -2.6890  -27.4059  -49.4621 C.2       14 UNK         0.5000 
     83 O          -3.2011  -28.4813  -49.7733 O.2       14 UNK        -0.5000 
     84 N          -2.9545  -26.2487  -50.0793 N.am      15 UNK        -0.5000 
     85 CA         -3.8957  -26.0622  -51.1838 C.3       15 UNK         0.1400 
     86 CB         -3.4716  -24.8047  -51.9530 C.3       15 UNK        -0.1800 
     87 C          -5.3710  -25.9450  -50.7449 C.2       15 UNK         0.5000 
     88 O          -6.2337  -25.7463  -51.6055 O.2       15 UNK        -0.5000 
     89 N          -5.6323  -26.0090  -49.4287 N.am      16 UNK        -0.5000 
     90 CA         -6.9284  -25.8495  -48.7541 C.3       16 UNK         0.1400 
     91 CB         -7.8441  -27.0488  -49.0739 C.3       16 UNK        -0.1800 
     92 C          -7.6121  -24.4921  -49.0394 C.2       16 UNK         0.5000 
     93 O          -8.8405  -24.4023  -49.0125 O.2       16 UNK        -0.5000 
     94 N          -6.7960  -23.4745  -49.3535 N.am      17 UNK        -0.5000 
     95 CA         -7.1382  -22.1391  -49.8543 C.3       17 UNK         0.1400 
     96 CB         -7.8473  -21.3182  -48.7589 C.3       17 UNK        -0.1800 
     97 C          -7.9212  -22.1434  -51.1892 C.2       17 UNK         0.5000 
     98 O          -8.5000  -21.1180  -51.5526 O.2       17 UNK        -0.5000 
     99 N          -7.9432  -23.2865  -51.8886 N.am      18 UNK        -0.5000 
    100 CA        -8.7467  -23.5233  -53.0831 C.3       18 UNK         0.1400 
    101 CB        -9.5103  -24.8480  -52.9193 C.3       18 UNK        -0.1800 
    102 C         -7.8660  -23.5514  -54.3368 C.2       18 UNK         0.5000 
    103 O         -8.1598  -22.8385  -55.2972 O.2       18 UNK        -0.5000 
    104 N         -6.8015  -24.3665  -54.3118 N.am      19 UNK        -0.5000 
    105 CA        -5.8872  -24.5311  -55.4467 C.3       19 UNK         0.1400 
    106 CB        -5.1967  -25.9019  -55.3544 C.3       19 UNK        -0.1800 
    107 C         -4.8597  -23.3878  -55.5725 C.2       19 UNK         0.5000 
    108 O         -4.3069  -23.1917  -56.6555 O.2       19 UNK        -0.5000 
    109 N         -4.6300  -22.6519  -54.4793 N.am      20 UNK        -0.5000 
    110 CA        -3.7160  -21.5222  -54.3664 C.3       20 UNK         0.1400 
    111 CB        -2.2521  -22.0042  -54.3818 C.3       20 UNK        -0.1800 
    112 C         -4.0196  -20.7880  -53.0545 C.2       20 UNK         0.5000 
    113 O         -4.4841  -21.4153  -52.0991 O.2       20 UNK        -0.5000 
    114 N         -3.7235  -19.4862  -53.0283 N.am      21 UNK        -0.5000 
    115 CA        -3.8280  -18.5898  -51.8814 C.3       21 UNK         0.1400 
    116 CB        -5.3022  -18.3729  -51.4819 C.3       21 UNK        -0.1800 
    117 C         -3.1627  -17.2548  -52.2538 C.2       21 UNK         0.5000 
    118 O         -3.0093  -16.9620  -53.4433 O.2       21 UNK        -0.5000 
    119 N         -2.8038  -16.4628  -51.2368 N.am      22 UNK        -0.5000 
    120 CA        -2.2816  -15.0909  -51.3935 C.3       22 UNK         0.1400 
    121 C         -3.3940  -14.0087  -51.5460 C.2       22 UNK         0.5000 
    122 N         -4.6742  -14.3344  -51.4109 N.am      22 UNK        -0.7600 
    123 O         -3.0899  -12.8481  -51.8068 O.2       22 UNK        -0.5000 
    124 C124       -1.2952  -14.7221  -50.2527 C.3       23 UNK        -0.0398 
    125 S125        0.3471  -15.4868  -50.4630 S.3       23 UNK        -0.2404 
    126 C126        0.1760  -17.0248  -49.5140 C.3       23 UNK        -0.0205 
    127 H127        3.9984  -16.5213  -50.8994 H         1 UNK         0.0600 
    128 H128        4.8513  -15.4366  -51.9978 H         1 UNK         0.0600 
    129 H129        3.0933  -15.3423  -51.8523 H         1 UNK         0.0600 
    130 H130        4.0033  -15.8931  -48.7583 H         1 UNK         0.3000 
    131 H131        5.0448  -13.2971  -47.9774 H         1 UNK         0.0600 
    132 H132        5.9328  -15.3227  -46.9145 H         1 UNK         0.0800 
    133 H133        5.2632  -14.2080  -45.7742 H         1 UNK         0.0800 
    134 H134        4.3519  -18.5665  -46.1007 H         1 UNK         0.0800 
    135 H135        5.4712  -17.6432  -47.0638 H         1 UNK         0.0800 
    136 H136        1.9086  -16.6747  -47.4732 H         1 UNK         0.1150 
    137 H137        1.4141  -18.8514  -51.1154 H         1 UNK         0.1150 
    138 H138        4.9599  -19.4050  -48.7745 H         1 UNK         0.1150 
    139 H139        3.2575  -20.1550  -52.0107 H         1 UNK         0.0800 
    140 H140        4.8205  -20.0663  -51.2423 H         1 UNK         0.0800 
    141 H141        1.5475  -22.5633  -51.5629 H         1 UNK         0.0800 
    142 H142        1.2987  -21.2189  -50.4881 H         1 UNK         0.0800 
    143 H143        1.5307  -24.1646  -49.7304 H         1 UNK         0.0600 
    144 H144        2.1602  -22.0097  -47.9994 H         1 UNK         0.3000 
    145 H145        1.1901  -23.5475  -44.9260 H         1 UNK         0.0600 
    146 H146        3.5910  -23.2083  -44.4125 H         1 UNK         0.0600 
    147 H147        3.3965  -24.5907  -45.4791 H         1 UNK         0.0600 
    148 H148        3.9685  -23.0580  -46.1286 H         1 UNK         0.0600 
    149 H149        2.5455  -21.1286  -45.3099 H         1 UNK         0.3000 
    150 H150        1.5845  -19.1561  -46.2305 H         1 UNK         0.0600 
    151 H151       -0.6487  -19.0577  -47.2878 H         1 UNK         0.0600 
    152 H152       -0.3326  -17.6353  -46.3323 H         1 UNK         0.0600 
    153 H153       -1.4137  -18.8809  -45.7087 H         1 UNK         0.0600 
    154 H154        0.1552  -18.4115  -43.8428 H         1 UNK         0.3000 
    155 H155        2.5654  -19.0095  -41.5273 H         1 UNK         0.0600 
    156 H156        4.2057  -17.5222  -42.6419 H         1 UNK         0.0600 
    157 H157        3.3774  -16.6712  -41.3474 H         1 UNK         0.0600 
    158 H158        2.9333  -16.3737  -43.0270 H         1 UNK         0.0600 
    159 H159        0.8362  -16.7036  -41.8373 H         1 UNK         0.3000 
    160 H160       -1.9061  -18.3573  -40.2049 H         1 UNK         0.0600 
    161 H161        0.1311  -16.3956  -39.0228 H         1 UNK         0.0600 
    162 H162       -0.3007  -17.9579  -38.3349 H         1 UNK         0.0600 
    163 H163       -1.5024  -16.6792  -38.4225 H         1 UNK         0.0600 
    164 H164       -0.8675  -15.9340  -41.5938 H         1 UNK         0.3000 
    165 H165       -4.0979  -15.2447  -42.7846 H         1 UNK         0.0600 
    166 H166       -3.7790  -12.9001  -42.0223 H         1 UNK         0.0600 
    167 H167       -4.2750  -13.9112  -40.6749 H         1 UNK         0.0600 
    168 H168       -2.5911  -13.4240  -40.8273 H         1 UNK         0.0600 
    169 H169       -1.6201  -13.8367  -43.0500 H         1 UNK         0.3000 
    170 H170        0.2053  -15.9995  -44.9215 H         1 UNK         0.0600 
    171 H171       -1.4365  -15.5151  -46.8332 H         1 UNK         0.0600 
    172 H172       -1.2634  -13.8059  -46.4691 H         1 UNK         0.0600 
    173 H173        0.1352  -14.7520  -46.9923 H         1 UNK         0.0600 
    174 H174        0.5918  -13.2862  -44.9748 H         1 UNK         0.3000 
    175 H175        1.5093  -12.3795  -41.9182 H         1 UNK         0.0600 
    176 H176        3.3058  -14.0748  -41.7070 H         1 UNK         0.0600 
    177 H177        3.7055  -13.9114  -43.4144 H         1 UNK         0.0600 
    178 H178        3.9799  -12.5682  -42.3053 H         1 UNK         0.0600 
    179 H179        2.3431  -12.2587  -44.7969 H         1 UNK         0.3000 
    180 H180        0.8885   -9.0858  -45.2330 H         1 UNK         0.0600 
    181 H181        3.9073   -9.5309  -44.9399 H         1 UNK         0.0600 
    182 H182        2.9712   -8.2944  -44.1090 H         1 UNK         0.0600 
    183 H183        3.1349   -8.2360  -45.8563 H         1 UNK         0.0600 
    184 H184        2.7507  -10.6401  -46.8006 H         1 UNK         0.3000 
    185 H185        0.3777  -12.8083  -48.2594 H         1 UNK         0.0600 
    186 H186        0.9786  -11.7873  -50.4094 H         1 UNK         0.0600 
    187 H187       -0.0933  -10.7098  -49.5301 H         1 UNK         0.0600 
    188 H188        1.6319  -10.3644  -49.5966 H         1 UNK         0.0600 
    189 H189        2.8970  -12.6081  -49.2031 H         1 UNK         0.3000 
    190 H190       -0.4346  -21.4334  -48.5170 H         1 UNK         0.3000 
    191 H191       -2.7947  -22.0500  -50.0273 H         1 UNK         0.0600 
    192 H192       -2.5950  -20.4133  -47.4514 H         1 UNK         0.0600 
    193 H193       -3.8560  -20.3388  -48.6712 H         1 UNK         0.0600 
    194 H194       -2.2374  -19.7692  -49.0548 H         1 UNK         0.0600 
    195 H195       -1.6786  -22.8199  -46.7049 H         1 UNK         0.3000 
    196 H196       -3.9764  -24.1871  -45.8057 H         1 UNK         0.0600 
    197 H197       -2.4388  -25.1621  -44.1123 H         1 UNK         0.0600 
    198 H198       -2.1277  -23.4441  -44.3170 H         1 UNK         0.0600 
    199 H199       -1.0422  -24.6294  -45.0382 H         1 UNK         0.0600 
    200 H200       -1.0583  -25.4781  -47.4827 H         1 UNK         0.3000 
    201 H201       -1.9157  -28.1890  -47.6234 H         1 UNK         0.0600 
    202 H202        0.4419  -27.4917  -47.9304 H         1 UNK         0.0600 
    203 H203        0.0244  -26.6143  -49.4002 H         1 UNK         0.0600 
    204 H204       -0.1122  -28.3687  -49.3491 H         1 UNK         0.0600 
    205 H205       -2.4389  -25.4227  -49.7940 H         1 UNK         0.3000 
    206 H206       -3.8270  -26.9173  -51.8589 H         1 UNK         0.0600 
    207 H207       -2.4702  -24.9132  -52.3695 H         1 UNK         0.0600 
    208 H208       -4.1464  -24.6029  -52.7786 H         1 UNK         0.0600 
    209 H209       -3.4780  -23.9227  -51.3136 H         1 UNK         0.0600 
    210 H210       -4.8405  -26.1164  -48.8080 H         1 UNK         0.3000 
    211 H211       -6.7177  -25.8647  -47.6840 H         1 UNK         0.0600 
    212 H212       -8.1470  -27.0570  -50.1216 H         1 UNK         0.0600 
    213 H213       -8.7522  -27.0219  -48.4707 H         1 UNK         0.0600 
    214 H214       -7.3438  -27.9937  -48.8618 H         1 UNK         0.0600 
    215 H215       -5.7955  -23.6446  -49.2579 H         1 UNK         0.3000 
    216 H216       -6.1866  -21.6500  -50.0641 H         1 UNK         0.0600 
    217 H217       -7.9703  -20.2788  -49.0653 H         1 UNK         0.0600 
    218 H218       -7.2699  -21.3152  -47.8344 H         1 UNK         0.0600 
    219 H219       -8.8386  -21.7134  -48.5357 H         1 UNK         0.0600 
    220 H220       -7.4113  -24.0772  -51.5416 H         1 UNK         0.3000 
    221 H221       -9.4855  -22.7294  -53.2114 H         1 UNK         0.0600 
    222 H222       -8.8365  -25.6923  -52.7678 H         1 UNK         0.0600 
    223 H223      -10.1846  -24.8062  -52.0637 H         1 UNK         0.0600 
    224 H224      -10.1154  -25.0626  -53.8011 H         1 UNK         0.0600 
    225 H225       -6.6213  -24.9241  -53.4836 H         1 UNK         0.3000 
    226 H226       -6.4746  -24.5289  -56.3676 H         1 UNK         0.0600 
    227 H227       -5.9285  -26.7095  -55.3732 H         1 UNK         0.0600 
    228 H228       -4.5241  -26.0567  -56.1990 H         1 UNK         0.0600 
    229 H229       -4.6078  -26.0109  -54.4457 H         1 UNK         0.0600 
    230 H230       -5.1453  -22.8475  -53.6304 H         1 UNK         0.3000 
    231 H231       -3.8914  -20.8422  -55.2026 H         1 UNK         0.0600 
    232 H232       -2.0048  -22.5112  -55.3141 H         1 UNK         0.0600 
    233 H233       -2.0489  -22.6938  -53.5618 H         1 UNK         0.0600 
    234 H234       -1.5633  -21.1647  -54.2809 H         1 UNK         0.0600 
    235 H235       -3.3401  -19.0343  -53.8504 H         1 UNK         0.3000 
    236 H236       -3.2803  -19.0302  -51.0477 H         1 UNK         0.0600 
    237 H237       -5.3862  -17.6796  -50.6445 H         1 UNK         0.0600 
    238 H238       -5.8840  -17.9640  -52.3088 H         1 UNK         0.0600 
    239 H239       -5.7780  -19.3019  -51.1689 H         1 UNK         0.0600 
    240 H240       -2.9805  -16.7638  -50.2900 H         1 UNK         0.3000 
    241 H241       -1.7228  -15.0429  -52.3304 H         1 UNK         0.0600 
    242 H242       -5.3782  -13.6210  -51.5203 H         1 UNK         0.3800 
    243 H243       -4.9498  -15.2804  -51.2075 H         1 UNK         0.3800 
    244 H244       -1.1160  -13.6458  -50.2263 H         1 UNK         0.0800 
    245 H245       -1.7123  -14.9739  -49.2774 H         1 UNK         0.0800 
    246 H246       -0.2801  -16.8077  -48.5497 H         1 UNK         0.0800 
    247 H247       -0.5028  -17.7014  -50.0344 H         1 UNK         0.0800 
@<TRIPOS>BOND
     1    1    2 1    
     2    1  127 1    
     3    1  128 1    
     4    1  129 1    
     5    2    3 2    
     6    2    4 am   BACKBONE|DICT|INTERRES
     7    4    5 1    
     8    4  130 1    
     9    5    6 1    
    10    5   65 1    
    11    5  131 1    
    12    6    7 1    
    13    6  132 1    
    14    6  133 1    
    15    7    8 1    
    16    8    9 1    
    17    8  134 1    
    18    8  135 1    
    19    9   10 ar   
    20    9   14 ar   
    21   10   11 ar   
    22   10  136 1    
    23   11   12 ar   
    24   11  126 1    
    25   12   13 ar   
    26   12  137 1    
    27   13   14 ar   
    28   13   15 1    
    29   14  138 1    
    30   15   16 1    
    31   15  139 1    
    32   15  140 1    
    33   16   17 1    
    34   17   18 1    
    35   17  141 1    
    36   17  142 1    
    37   18   19 1    
    38   18   67 1    
    39   18  143 1    
    40   19   20 am   BACKBONE|DICT|INTERRES
    41   19  144 1    
    42   20   21 2    
    43   20   22 1    
    44   22   23 1    
    45   22   24 1    
    46   22  145 1    
    47   23  146 1    
    48   23  147 1    
    49   23  148 1    
    50   24   25 am   BACKBONE|DICT|INTERRES
    51   24  149 1    
    52   25   26 2    
    53   25   27 1    
    54   27   28 1    
    55   27   29 1    
    56   27  150 1    
    57   28  151 1    
    58   28  152 1    
    59   28  153 1    
    60   29   30 am   BACKBONE|DICT|INTERRES
    61   29  154 1    
    62   30   31 2    
    63   30   32 1    
    64   32   33 1    
    65   32   34 1    
    66   32  155 1    
    67   33  156 1    
    68   33  157 1    
    69   33  158 1    
    70   34   35 am   BACKBONE|DICT|INTERRES
    71   34  159 1    
    72   35   36 2    
    73   35   37 1    
    74   37   38 1    
    75   37   39 1    
    76   37  160 1    
    77   38  161 1    
    78   38  162 1    
    79   38  163 1    
    80   39   40 am   BACKBONE|DICT|INTERRES
    81   39  164 1    
    82   40   41 2    
    83   40   42 1    
    84   42   43 1    
    85   42   44 1    
    86   42  165 1    
    87   43  166 1    
    88   43  167 1    
    89   43  168 1    
    90   44   45 am   BACKBONE|DICT|INTERRES
    91   44  169 1    
    92   45   46 2    
    93   45   47 1    
    94   47   48 1    
    95   47   49 1    
    96   47  170 1    
    97   48  171 1    
    98   48  172 1    
    99   48  173 1    
   100   49   50 am   BACKBONE|DICT|INTERRES
   101   49  174 1    
   102   50   51 2    
   103   50   52 1    
   104   52   53 1    
   105   52   54 1    
   106   52  175 1    
   107   53  176 1    
   108   53  177 1    
   109   53  178 1    
   110   54   55 am   BACKBONE|DICT|INTERRES
   111   54  179 1    
   112   55   56 2    
   113   55   57 1    
   114   57   58 1    
   115   57   59 1    
   116   57  180 1    
   117   58  181 1    
   118   58  182 1    
   119   58  183 1    
   120   59   60 am   BACKBONE|DICT|INTERRES
   121   59  184 1    
   122   60   61 2    
   123   60   62 1    
   124   62   63 1    
   125   62   64 1    
   126   62  185 1    
   127   63  186 1    
   128   63  187 1    
   129   63  188 1    
   130   64   65 am   BACKBONE|DICT|INTERRES
   131   64  189 1    
   132   65   66 2    
   133   67   68 2    
   134   67   69 am   BACKBONE|DICT|INTERRES
   135   69   70 1    
   136   69  190 1    
   137   70   71 1    
   138   70   72 1    
   139   70  191 1    
   140   71  192 1    
   141   71  193 1    
   142   71  194 1    
   143   72   73 2    
   144   72   74 am   BACKBONE|DICT|INTERRES
   145   74   75 1    
   146   74  195 1    
   147   75   76 1    
   148   75   77 1    
   149   75  196 1    
   150   76  197 1    
   151   76  198 1    
   152   76  199 1    
   153   77   78 2    
   154   77   79 am   BACKBONE|DICT|INTERRES
   155   79   80 1    
   156   79  200 1    
   157   80   81 1    
   158   80   82 1    
   159   80  201 1    
   160   81  202 1    
   161   81  203 1    
   162   81  204 1    
   163   82   83 2    
   164   82   84 am   BACKBONE|DICT|INTERRES
   165   84   85 1    
   166   84  205 1    
   167   85   86 1    
   168   85   87 1    
   169   85  206 1    
   170   86  207 1    
   171   86  208 1    
   172   86  209 1    
   173   87   88 2    
   174   87   89 am   BACKBONE|DICT|INTERRES
   175   89   90 1    
   176   89  210 1    
   177   90   91 1    
   178   90   92 1    
   179   90  211 1    
   180   91  212 1    
   181   91  213 1    
   182   91  214 1    
   183   92   93 2    
   184   92   94 am   BACKBONE|DICT|INTERRES
   185   94   95 1    
   186   94  215 1    
   187   95   96 1    
   188   95   97 1    
   189   95  216 1    
   190   96  217 1    
   191   96  218 1    
   192   96  219 1    
   193   97   98 2    
   194   97   99 am   BACKBONE|DICT|INTERRES
   195   99  100 1    
   196   99  220 1    
   197  100  101 1    
   198  100  102 1    
   199  100  221 1    
   200  101  222 1    
   201  101  223 1    
   202  101  224 1    
   203  102  103 2    
   204  102  104 am   BACKBONE|DICT|INTERRES
   205  104  105 1    
   206  104  225 1    
   207  105  106 1    
   208  105  107 1    
   209  105  226 1    
   210  106  227 1    
   211  106  228 1    
   212  106  229 1    
   213  107  108 2    
   214  107  109 am   BACKBONE|DICT|INTERRES
   215  109  110 1    
   216  109  230 1    
   217  110  111 1    
   218  110  112 1    
   219  110  231 1    
   220  111  232 1    
   221  111  233 1    
   222  111  234 1    
   223  112  113 2    
   224  112  114 am   BACKBONE|DICT|INTERRES
   225  114  115 1    
   226  114  235 1    
   227  115  116 1    
   228  115  117 1    
   229  115  236 1    
   230  116  237 1    
   231  116  238 1    
   232  116  239 1    
   233  117  118 2    
   234  117  119 am   BACKBONE|DICT|INTERRES
   235  119  120 1    
   236  119  240 1    
   237  120  121 1    
   238  120  124 1    
   239  120  241 1    
   240  121  122 am   BACKBONE|DICT|INTERRES
   241  121  123 2    
   242  122  242 1    
   243  122  243 1    
   244  124  125 1    
   245  124  244 1    
   246  124  245 1    
   247  125  126 1    
   248  126  246 1    
   249  126  247 1    
@<TRIPOS>SUBSTRUCTURE
     1 UNK         1 GROUP             0       ****    0 ROOT    
