@<TRIPOS>MOLECULE
3R540
247   249    1
SMALL
USER_CHARGES


@<TRIPOS>ATOM
      1 CA          2.3703  -14.9548  -45.6811 C.3       0 UNK        -0.1800 
      2 C           1.1280  -15.1786  -46.5291 C.2       0 UNK         0.5000 
      3 O           0.0636  -15.5060  -45.9998 O.2       0 UNK        -0.5000 
      4 N           1.2513  -14.9785  -47.8468 N.am      1 UNK        -0.5000 
      5 CA          0.2026  -15.1647  -48.8603 C.3       1 UNK         0.1400 
      6 C6          0.7964  -15.3850  -50.2773 C.3       23 UNK        -0.0398 
      7 S7          2.0164  -16.7385  -50.3585 S.3       23 UNK        -0.2404 
      8 C8          0.9243  -18.1943  -50.3951 C.3       23 UNK        -0.0205 
      9 C9          1.7087  -19.4860  -50.5644 C.ar      23 UNK        -0.0193 
     10 C10         1.4625  -20.3159  -51.6616 C.ar      23 UNK        -0.1150 
     11 C11         2.1944  -21.4966  -51.8473 C.ar      23 UNK        -0.0193 
     12 C12         3.1800  -21.8311  -50.9142 C.ar      23 UNK        -0.1150 
     13 C13         3.4282  -21.0187  -49.8047 C.ar      23 UNK        -0.0193 
     14 C14         2.6810  -19.8522  -49.6294 C.ar      23 UNK        -0.1150 
     15 C15         4.5310  -21.3823  -48.8207 C.3       23 UNK        -0.0205 
     16 S16         3.8893  -21.9702  -47.2226 S.3       23 UNK        -0.2404 
     17 C17         3.0259  -23.5098  -47.6877 C.3       23 UNK        -0.0398 
     18 CA          1.5950  -23.6345  -47.1126 C.3       11 UNK         0.1400 
     19 N           1.5575  -23.4865  -45.6560 N.am      11 UNK        -0.5000 
     20 C           0.5948  -23.9948  -44.8779 C.2       10 UNK         0.5000 
     21 O          -0.3688  -24.6297  -45.3097 O.2       10 UNK        -0.5000 
     22 CA          0.7248  -23.7298  -43.3673 C.3       10 UNK         0.1400 
     23 CB          1.8226  -24.6093  -42.7491 C.3       10 UNK        -0.1800 
     24 N           0.9872  -22.3243  -43.0482 N.am      10 UNK        -0.5000 
     25 C           0.1167  -21.3323  -43.2762 C.2       9 UNK         0.5000 
     26 O          -0.9620  -21.4880  -43.8429 O.2       9 UNK        -0.5000 
     27 CA          0.5148  -19.9231  -42.8079 C.3       9 UNK         0.1400 
     28 CB          0.2554  -19.7670  -41.3024 C.3       9 UNK        -0.1800 
     29 N           1.8907  -19.5270  -43.1181 N.am      9 UNK        -0.5000 
     30 C           2.4300  -19.5185  -44.3453 C.2       8 UNK         0.5000 
     31 O           1.8961  -20.0430  -45.3220 O.2       8 UNK        -0.5000 
     32 CA          3.7690  -18.7795  -44.5158 C.3       8 UNK         0.1400 
     33 CB          3.9716  -18.2666  -45.9569 C.3       8 UNK        -0.1800 
     34 N           3.8973  -17.6670  -43.5677 N.am      8 UNK        -0.5000 
     35 C           5.0715  -17.1848  -43.1339 C.2       7 UNK         0.5000 
     36 O           6.1602  -17.6661  -43.4513 O.2       7 UNK        -0.5000 
     37 CA          5.0529  -15.9563  -42.1993 C.3       7 UNK         0.1400 
     38 CB          5.2973  -14.6689  -43.0017 C.3       7 UNK        -0.1800 
     39 N           3.8213  -15.8020  -41.4262 N.am      7 UNK        -0.5000 
     40 C           3.4035  -16.6384  -40.4679 C.2       6 UNK         0.5000 
     41 O           4.0366  -17.6309  -40.1070 O.2       6 UNK        -0.5000 
     42 CA          2.0449  -16.3312  -39.8037 C.3       6 UNK         0.1400 
     43 CB          2.2649  -15.6350  -38.4516 C.3       6 UNK        -0.1800 
     44 N           1.0927  -15.5342  -40.5913 N.am      6 UNK        -0.5000 
     45 C           0.6764  -15.7831  -41.8404 C.2       5 UNK         0.5000 
     46 O           1.1842  -16.6311  -42.5783 O.2       5 UNK        -0.5000 
     47 CA         -0.4904  -14.9179  -42.3521 C.3       5 UNK         0.1400 
     48 CB          0.0142  -13.5700  -42.8877 C.3       5 UNK        -0.1800 
     49 N          -1.2172  -15.6074  -43.4141 N.am      5 UNK        -0.5000 
     50 C          -2.0422  -16.6419  -43.2185 C.2       4 UNK         0.5000 
     51 O          -2.3920  -17.0426  -42.1062 O.2       4 UNK        -0.5000 
     52 CA         -2.5473  -17.3296  -44.4999 C.3       4 UNK         0.1400 
     53 CB         -3.2507  -18.6785  -44.2375 C.3       4 UNK        -0.1800 
     54 N          -3.3791  -16.4459  -45.3231 N.am      4 UNK        -0.5000 
     55 C          -4.5372  -15.8611  -44.9773 C.2       3 UNK         0.5000 
     56 O          -5.1046  -16.0354  -43.8980 O.2       3 UNK        -0.5000 
     57 CA         -5.1676  -14.9307  -46.0376 C.3       3 UNK         0.1400 
     58 CB         -6.2503  -13.9946  -45.4590 C.3       3 UNK        -0.1800 
     59 N          -4.1704  -14.1743  -46.8059 N.am      3 UNK        -0.5000 
     60 C          -3.3177  -13.2544  -46.3310 C.2       2 UNK         0.5000 
     61 O          -3.2475  -12.9172  -45.1486 O.2       2 UNK        -0.5000 
     62 CA         -2.3363  -12.6762  -47.3582 C.3       2 UNK         0.1400 
     63 CB         -1.6104  -11.4123  -46.8607 C.3       2 UNK        -0.1800 
     64 N          -1.3547  -13.7117  -47.6467 N.am      2 UNK        -0.5000 
     65 C          -0.8476  -14.0251  -48.8409 C.2       1 UNK         0.5000 
     66 O          -1.1681  -13.4513  -49.8828 O.2       1 UNK        -0.5000 
     67 C           0.5635  -22.7250  -47.8123 C.2       11 UNK         0.5000 
     68 O          -0.0059  -23.1355  -48.8233 O.2       11 UNK        -0.5000 
     69 N           0.2780  -21.5497  -47.2316 N.am      12 UNK        -0.5000 
     70 CA         -0.8020  -20.6677  -47.6661 C.3       12 UNK         0.1400 
     71 CB         -0.6848  -19.3125  -46.9614 C.3       12 UNK        -0.1800 
     72 C          -2.1898  -21.2861  -47.4255 C.2       12 UNK         0.5000 
     73 O          -3.0371  -21.2141  -48.3133 O.2       12 UNK        -0.5000 
     74 N          -2.4039  -21.9157  -46.2603 N.am      13 UNK        -0.5000 
     75 CA         -3.6355  -22.6371  -45.9240 C.3       13 UNK         0.1400 
     76 CB         -3.6023  -23.0986  -44.4604 C.3       13 UNK        -0.1800 
     77 C          -3.9052  -23.8237  -46.8662 C.2       13 UNK         0.5000 
     78 O          -5.0475  -24.0138  -47.2845 O.2       13 UNK        -0.5000 
     79 N          -2.8424  -24.5496  -47.2440 N.am      14 UNK        -0.5000 
     80 CA         -2.8745  -25.6111  -48.2558 C.3       14 UNK         0.1400 
     81 CB         -1.5273  -26.3487  -48.2605 C.3       14 UNK        -0.1800 
     82 C          -3.2271  -25.1007  -49.6708 C.2       14 UNK         0.5000 
     83 O          -3.7837  -25.8571  -50.4663 O.2       14 UNK        -0.5000 
     84 N          -2.9457  -23.8194  -49.9389 N.am      15 UNK        -0.5000 
     85 CA         -3.3148  -23.0824  -51.1479 C.3       15 UNK         0.1400 
     86 CB         -2.1722  -22.1099  -51.4894 C.3       15 UNK        -0.1800 
     87 C          -4.6723  -22.3572  -50.9963 C.2       15 UNK         0.5000 
     88 O          -4.9179  -21.3735  -51.6943 O.2       15 UNK        -0.5000 
     89 N          -5.5301  -22.8367  -50.0809 N.am      16 UNK        -0.5000 
     90 CA         -6.8734  -22.3359  -49.7664 C.3       16 UNK         0.1400 
     91 CB         -7.8224  -22.5222  -50.9692 C.3       16 UNK        -0.1800 
     92 C          -6.8515  -20.8882  -49.2374 C.2       16 UNK         0.5000 
     93 O          -7.6052  -20.0403  -49.7141 O.2       16 UNK        -0.5000 
     94 N          -5.9463  -20.6279  -48.2841 N.am      17 UNK        -0.5000 
     95 CA         -5.6132  -19.3119  -47.7221 C.3       17 UNK         0.1400 
     96 CB         -6.8061  -18.7083  -46.9529 C.3       17 UNK        -0.1800 
     97 C          -5.0231  -18.3682  -48.7916 C.2       17 UNK         0.5000 
     98 O          -5.3402  -17.1791  -48.8256 O.2       17 UNK        -0.5000 
     99 N          -4.1799  -18.9518  -49.6543 N.am      18 UNK        -0.5000 
    100 CA        -3.5079  -18.3753  -50.8207 C.3       18 UNK         0.1400 
    101 CB        -2.5926  -17.2095  -50.4001 C.3       18 UNK        -0.1800 
    102 C         -4.4430  -17.9876  -51.9863 C.2       18 UNK         0.5000 
    103 O         -3.9736  -17.3528  -52.9323 O.2       18 UNK        -0.5000 
    104 N         -5.7256  -18.3708  -51.9274 N.am      19 UNK        -0.5000 
    105 CA        -6.7277  -18.0400  -52.9401 C.3       19 UNK         0.1400 
    106 CB        -8.1250  -18.0917  -52.3046 C.3       19 UNK        -0.1800 
    107 C         -6.6775  -18.9500  -54.1814 C.2       19 UNK         0.5000 
    108 O         -7.1065  -18.5132  -55.2509 O.2       19 UNK        -0.5000 
    109 N         -6.1881  -20.1876  -54.0322 N.am      20 UNK        -0.5000 
    110 CA        -6.1037  -21.1770  -55.1044 C.3       20 UNK         0.1400 
    111 CB        -6.6418  -22.5211  -54.5890 C.3       20 UNK        -0.1800 
    112 C         -4.6473  -21.3290  -55.5594 C.2       20 UNK         0.5000 
    113 O         -3.7465  -21.3275  -54.7184 O.2       20 UNK        -0.5000 
    114 N         -4.4484  -21.4927  -56.8757 N.am      21 UNK        -0.5000 
    115 CA        -3.1672  -21.7136  -57.5574 C.3       21 UNK         0.1400 
    116 CB        -2.6626  -23.1488  -57.2821 C.3       21 UNK        -0.1800 
    117 C         -2.1317  -20.6163  -57.2277 C.2       21 UNK         0.5000 
    118 O         -2.2321  -19.5094  -57.7590 O.2       21 UNK        -0.5000 
    119 N         -1.1780  -20.9408  -56.3490 N.am      22 UNK        -0.5000 
    120 CA        -0.1933  -20.0267  -55.7532 C.3       22 UNK         0.1400 
    121 C         -0.7809  -18.9773  -54.7607 C.2       22 UNK         0.5000 
    122 N         -2.0166  -19.1147  -54.2979 N.am      22 UNK        -0.7600 
    123 O         -0.1092  -18.0042  -54.4308 O.2       22 UNK        -0.5000 
    124 C124        0.9964  -20.8136  -55.1405 C.3       23 UNK        -0.0398 
    125 S125        0.4778  -22.1703  -54.0270 S.3       23 UNK        -0.2404 
    126 C126        1.9862  -22.4378  -53.0361 C.3       23 UNK        -0.0205 
    127 H127        3.2796  -15.1683  -46.2430 H         1 UNK         0.0600 
    128 H128        2.3518  -15.6040  -44.8072 H         1 UNK         0.0600 
    129 H129        2.4141  -13.9207  -45.3414 H         1 UNK         0.0600 
    130 H130        2.1481  -14.6927  -48.2128 H         1 UNK         0.3000 
    131 H131       -0.3414  -16.0719  -48.5938 H         1 UNK         0.0600 
    132 H132        0.0089  -15.5861  -51.0048 H         1 UNK         0.0800 
    133 H133        1.2936  -14.4762  -50.6206 H         1 UNK         0.0800 
    134 H134        0.2042  -18.0775  -51.2064 H         1 UNK         0.0800 
    135 H135        0.3547  -18.2450  -49.4692 H         1 UNK         0.0800 
    136 H136        0.7006  -20.0266  -52.3689 H         1 UNK         0.1150 
    137 H137        3.7617  -22.7313  -51.0560 H         1 UNK         0.1150 
    138 H138        2.8692  -19.2173  -48.7752 H         1 UNK         0.1150 
    139 H139        5.1919  -22.1418  -49.2413 H         1 UNK         0.0800 
    140 H140        5.1534  -20.5038  -48.6448 H         1 UNK         0.0800 
    141 H141        3.6300  -24.3403  -47.3206 H         1 UNK         0.0800 
    142 H142        3.0070  -23.6276  -48.7712 H         1 UNK         0.0800 
    143 H143        1.2781  -24.6562  -47.3345 H         1 UNK         0.0600 
    144 H144        2.2888  -22.9259  -45.2427 H         1 UNK         0.3000 
    145 H145       -0.2257  -24.0046  -42.9048 H         1 UNK         0.0600 
    146 H146        1.8481  -24.5027  -41.6645 H         1 UNK         0.0600 
    147 H147        1.6464  -25.6636  -42.9665 H         1 UNK         0.0600 
    148 H148        2.8108  -24.3551  -43.1344 H         1 UNK         0.0600 
    149 H149        1.8636  -22.1068  -42.5975 H         1 UNK         0.3000 
    150 H150       -0.1360  -19.2194  -43.3300 H         1 UNK         0.0600 
    151 H151       -0.7521  -20.0949  -41.0422 H         1 UNK         0.0600 
    152 H152        0.3366  -18.7256  -40.9971 H         1 UNK         0.0600 
    153 H153        0.9578  -20.3514  -40.7070 H         1 UNK         0.0600 
    154 H154        2.4037  -19.0802  -42.3729 H         1 UNK         0.3000 
    155 H155        4.5450  -19.5175  -44.3030 H         1 UNK         0.0600 
    156 H156        4.0418  -19.0963  -46.6582 H         1 UNK         0.0600 
    157 H157        4.8890  -17.6870  -46.0572 H         1 UNK         0.0600 
    158 H158        3.1391  -17.6424  -46.2799 H         1 UNK         0.0600 
    159 H159        3.0308  -17.2331  -43.2600 H         1 UNK         0.3000 
    160 H160        5.8766  -16.0759  -41.4923 H         1 UNK         0.0600 
    161 H161        5.3889  -13.8048  -42.3435 H         1 UNK         0.0600 
    162 H162        6.2212  -14.7356  -43.5779 H         1 UNK         0.0600 
    163 H163        4.4869  -14.4720  -43.7037 H         1 UNK         0.0600 
    164 H164        3.2269  -15.0230  -41.6671 H         1 UNK         0.3000 
    165 H165        1.5690  -17.2930  -39.6078 H         1 UNK         0.0600 
    166 H166        1.3284  -15.5286  -37.9037 H         1 UNK         0.0600 
    167 H167        2.9437  -16.2090  -37.8191 H         1 UNK         0.0600 
    168 H168        2.6961  -14.6411  -38.5782 H         1 UNK         0.0600 
    169 H169        0.6360  -14.7901  -40.0838 H         1 UNK         0.3000 
    170 H170       -1.1774  -14.7296  -41.5245 H         1 UNK         0.0600 
    171 H171        0.5260  -13.0032  -42.1092 H         1 UNK         0.0600 
    172 H172        0.7128  -13.7001  -43.7122 H         1 UNK         0.0600 
    173 H173       -0.8125  -12.9561  -43.2468 H         1 UNK         0.0600 
    174 H174       -0.9024  -15.4192  -44.3613 H         1 UNK         0.3000 
    175 H175       -1.6525  -17.5327  -45.0848 H         1 UNK         0.0600 
    176 H176       -3.4445  -19.2085  -45.1680 H         1 UNK         0.0600 
    177 H177       -2.6291  -19.3309  -43.6243 H         1 UNK         0.0600 
    178 H178       -4.1991  -18.5536  -43.7152 H         1 UNK         0.0600 
    179 H179       -2.9930  -16.2019  -46.2229 H         1 UNK         0.3000 
    180 H180       -5.6649  -15.5845  -46.7532 H         1 UNK         0.0600 
    181 H181       -5.8541  -13.3491  -44.6747 H         1 UNK         0.0600 
    182 H182       -7.0701  -14.5681  -45.0250 H         1 UNK         0.0600 
    183 H183       -6.6770  -13.3585  -46.2343 H         1 UNK         0.0600 
    184 H184       -4.1270  -14.3990  -47.7906 H         1 UNK         0.3000 
    185 H185       -2.9041  -12.4222  -48.2559 H         1 UNK         0.0600 
    186 H186       -2.3238  -10.6301  -46.5988 H         1 UNK         0.0600 
    187 H187       -1.0032  -11.6163  -45.9776 H         1 UNK         0.0600 
    188 H188       -0.9528  -11.0094  -47.6310 H         1 UNK         0.0600 
    189 H189       -1.0226  -14.2481  -46.8490 H         1 UNK         0.3000 
    190 H190        0.8268  -21.2386  -46.4345 H         1 UNK         0.3000 
    191 H191       -0.6916  -20.5027  -48.7399 H         1 UNK         0.0600 
    192 H192        0.2656  -18.8276  -47.1848 H         1 UNK         0.0600 
    193 H193       -0.7443  -19.4334  -45.8803 H         1 UNK         0.0600 
    194 H194       -1.4814  -18.6359  -47.2728 H         1 UNK         0.0600 
    195 H195       -1.6893  -21.8875  -45.5370 H         1 UNK         0.3000 
    196 H196       -4.4667  -21.9379  -46.0300 H         1 UNK         0.0600 
    197 H197       -4.5024  -23.6592  -44.2051 H         1 UNK         0.0600 
    198 H198       -3.5500  -22.2469  -43.7823 H         1 UNK         0.0600 
    199 H199       -2.7453  -23.7416  -44.2588 H         1 UNK         0.0600 
    200 H200       -1.9441  -24.3493  -46.8195 H         1 UNK         0.3000 
    201 H201       -3.6490  -26.3229  -47.9631 H         1 UNK         0.0600 
    202 H202       -1.2890  -26.7440  -47.2728 H         1 UNK         0.0600 
    203 H203       -0.7108  -25.6949  -48.5656 H         1 UNK         0.0600 
    204 H204       -1.5472  -27.1912  -48.9529 H         1 UNK         0.0600 
    205 H205       -2.4877  -23.2715  -49.2220 H         1 UNK         0.3000 
    206 H206       -3.4189  -23.7784  -51.9822 H         1 UNK         0.0600 
    207 H207       -1.2251  -22.6402  -51.5875 H         1 UNK         0.0600 
    208 H208       -2.3547  -21.5967  -52.4337 H         1 UNK         0.0600 
    209 H209       -2.0406  -21.3491  -50.7222 H         1 UNK         0.0600 
    210 H210       -5.2171  -23.6082  -49.5059 H         1 UNK         0.3000 
    211 H211       -7.2486  -22.9558  -48.9510 H         1 UNK         0.0600 
    212 H212       -7.5593  -21.8656  -51.7987 H         1 UNK         0.0600 
    213 H213       -8.8518  -22.2944  -50.6907 H         1 UNK         0.0600 
    214 H214       -7.8034  -23.5490  -51.3342 H         1 UNK         0.0600 
    215 H215       -5.3160  -21.3774  -48.0318 H         1 UNK         0.3000 
    216 H216       -4.8163  -19.4847  -47.0002 H         1 UNK         0.0600 
    217 H217       -6.5006  -17.8271  -46.3900 H         1 UNK         0.0600 
    218 H218       -7.2141  -19.4214  -46.2367 H         1 UNK         0.0600 
    219 H219       -7.6120  -18.4047  -47.6215 H         1 UNK         0.0600 
    220 H220       -3.9747  -19.9323  -49.4878 H         1 UNK         0.3000 
    221 H221       -2.8679  -19.1663  -51.2119 H         1 UNK         0.0600 
    222 H222       -3.1630  -16.3353  -50.0854 H         1 UNK         0.0600 
    223 H223       -1.9445  -17.5031  -49.5765 H         1 UNK         0.0600 
    224 H224       -1.9566  -16.8985  -51.2286 H         1 UNK         0.0600 
    225 H225       -6.0350  -18.9285  -51.1421 H         1 UNK         0.3000 
    226 H226       -6.5541  -17.0150  -53.2748 H         1 UNK         0.0600 
    227 H227       -8.8807  -17.7196  -52.9973 H         1 UNK         0.0600 
    228 H228       -8.4055  -19.1103  -52.0353 H         1 UNK         0.0600 
    229 H229       -8.1764  -17.4784  -51.4046 H         1 UNK         0.0600 
    230 H230       -5.7668  -20.4615  -53.1467 H         1 UNK         0.3000 
    231 H231       -6.7133  -20.8749  -55.9583 H         1 UNK         0.0600 
    232 H232       -7.6803  -22.4329  -54.2701 H         1 UNK         0.0600 
    233 H233       -6.0615  -22.8916  -53.7434 H         1 UNK         0.0600 
    234 H234       -6.6047  -23.2818  -55.3697 H         1 UNK         0.0600 
    235 H235       -5.2528  -21.4510  -57.4856 H         1 UNK         0.3000 
    236 H236       -3.3641  -21.6356  -58.6277 H         1 UNK         0.0600 
    237 H237       -1.7136  -23.3358  -57.7863 H         1 UNK         0.0600 
    238 H238       -2.5190  -23.3428  -56.2185 H         1 UNK         0.0600 
    239 H239       -3.3733  -23.8866  -57.6546 H         1 UNK         0.0600 
    240 H240       -1.2120  -21.8582  -55.9279 H         1 UNK         0.3000 
    241 H241        0.2142  -19.4348  -56.5749 H         1 UNK         0.0600 
    242 H242       -2.4311  -18.3831  -53.7358 H         1 UNK         0.3800 
    243 H243       -2.5686  -19.9385  -54.5288 H         1 UNK         0.3800 
    244 H244        1.5814  -21.2600  -55.9454 H         1 UNK         0.0800 
    245 H245        1.6822  -20.1431  -54.6197 H         1 UNK         0.0800 
    246 H246        1.9459  -23.4611  -52.6598 H         1 UNK         0.0800 
    247 H247        2.8581  -22.3863  -53.6896 H         1 UNK         0.0800 
@<TRIPOS>BOND
     1    1    2 1    
     2    1  127 1    
     3    1  128 1    
     4    1  129 1    
     5    2    3 2    
     6    2    4 am   BACKBONE|DICT|INTERRES
     7    4    5 1    
     8    4  130 1    
     9    5    6 1    
    10    5   65 1    
    11    5  131 1    
    12    6    7 1    
    13    6  132 1    
    14    6  133 1    
    15    7    8 1    
    16    8    9 1    
    17    8  134 1    
    18    8  135 1    
    19    9   10 ar   
    20    9   14 ar   
    21   10   11 ar   
    22   10  136 1    
    23   11   12 ar   
    24   11  126 1    
    25   12   13 ar   
    26   12  137 1    
    27   13   14 ar   
    28   13   15 1    
    29   14  138 1    
    30   15   16 1    
    31   15  139 1    
    32   15  140 1    
    33   16   17 1    
    34   17   18 1    
    35   17  141 1    
    36   17  142 1    
    37   18   19 1    
    38   18   67 1    
    39   18  143 1    
    40   19   20 am   BACKBONE|DICT|INTERRES
    41   19  144 1    
    42   20   21 2    
    43   20   22 1    
    44   22   23 1    
    45   22   24 1    
    46   22  145 1    
    47   23  146 1    
    48   23  147 1    
    49   23  148 1    
    50   24   25 am   BACKBONE|DICT|INTERRES
    51   24  149 1    
    52   25   26 2    
    53   25   27 1    
    54   27   28 1    
    55   27   29 1    
    56   27  150 1    
    57   28  151 1    
    58   28  152 1    
    59   28  153 1    
    60   29   30 am   BACKBONE|DICT|INTERRES
    61   29  154 1    
    62   30   31 2    
    63   30   32 1    
    64   32   33 1    
    65   32   34 1    
    66   32  155 1    
    67   33  156 1    
    68   33  157 1    
    69   33  158 1    
    70   34   35 am   BACKBONE|DICT|INTERRES
    71   34  159 1    
    72   35   36 2    
    73   35   37 1    
    74   37   38 1    
    75   37   39 1    
    76   37  160 1    
    77   38  161 1    
    78   38  162 1    
    79   38  163 1    
    80   39   40 am   BACKBONE|DICT|INTERRES
    81   39  164 1    
    82   40   41 2    
    83   40   42 1    
    84   42   43 1    
    85   42   44 1    
    86   42  165 1    
    87   43  166 1    
    88   43  167 1    
    89   43  168 1    
    90   44   45 am   BACKBONE|DICT|INTERRES
    91   44  169 1    
    92   45   46 2    
    93   45   47 1    
    94   47   48 1    
    95   47   49 1    
    96   47  170 1    
    97   48  171 1    
    98   48  172 1    
    99   48  173 1    
   100   49   50 am   BACKBONE|DICT|INTERRES
   101   49  174 1    
   102   50   51 2    
   103   50   52 1    
   104   52   53 1    
   105   52   54 1    
   106   52  175 1    
   107   53  176 1    
   108   53  177 1    
   109   53  178 1    
   110   54   55 am   BACKBONE|DICT|INTERRES
   111   54  179 1    
   112   55   56 2    
   113   55   57 1    
   114   57   58 1    
   115   57   59 1    
   116   57  180 1    
   117   58  181 1    
   118   58  182 1    
   119   58  183 1    
   120   59   60 am   BACKBONE|DICT|INTERRES
   121   59  184 1    
   122   60   61 2    
   123   60   62 1    
   124   62   63 1    
   125   62   64 1    
   126   62  185 1    
   127   63  186 1    
   128   63  187 1    
   129   63  188 1    
   130   64   65 am   BACKBONE|DICT|INTERRES
   131   64  189 1    
   132   65   66 2    
   133   67   68 2    
   134   67   69 am   BACKBONE|DICT|INTERRES
   135   69   70 1    
   136   69  190 1    
   137   70   71 1    
   138   70   72 1    
   139   70  191 1    
   140   71  192 1    
   141   71  193 1    
   142   71  194 1    
   143   72   73 2    
   144   72   74 am   BACKBONE|DICT|INTERRES
   145   74   75 1    
   146   74  195 1    
   147   75   76 1    
   148   75   77 1    
   149   75  196 1    
   150   76  197 1    
   151   76  198 1    
   152   76  199 1    
   153   77   78 2    
   154   77   79 am   BACKBONE|DICT|INTERRES
   155   79   80 1    
   156   79  200 1    
   157   80   81 1    
   158   80   82 1    
   159   80  201 1    
   160   81  202 1    
   161   81  203 1    
   162   81  204 1    
   163   82   83 2    
   164   82   84 am   BACKBONE|DICT|INTERRES
   165   84   85 1    
   166   84  205 1    
   167   85   86 1    
   168   85   87 1    
   169   85  206 1    
   170   86  207 1    
   171   86  208 1    
   172   86  209 1    
   173   87   88 2    
   174   87   89 am   BACKBONE|DICT|INTERRES
   175   89   90 1    
   176   89  210 1    
   177   90   91 1    
   178   90   92 1    
   179   90  211 1    
   180   91  212 1    
   181   91  213 1    
   182   91  214 1    
   183   92   93 2    
   184   92   94 am   BACKBONE|DICT|INTERRES
   185   94   95 1    
   186   94  215 1    
   187   95   96 1    
   188   95   97 1    
   189   95  216 1    
   190   96  217 1    
   191   96  218 1    
   192   96  219 1    
   193   97   98 2    
   194   97   99 am   BACKBONE|DICT|INTERRES
   195   99  100 1    
   196   99  220 1    
   197  100  101 1    
   198  100  102 1    
   199  100  221 1    
   200  101  222 1    
   201  101  223 1    
   202  101  224 1    
   203  102  103 2    
   204  102  104 am   BACKBONE|DICT|INTERRES
   205  104  105 1    
   206  104  225 1    
   207  105  106 1    
   208  105  107 1    
   209  105  226 1    
   210  106  227 1    
   211  106  228 1    
   212  106  229 1    
   213  107  108 2    
   214  107  109 am   BACKBONE|DICT|INTERRES
   215  109  110 1    
   216  109  230 1    
   217  110  111 1    
   218  110  112 1    
   219  110  231 1    
   220  111  232 1    
   221  111  233 1    
   222  111  234 1    
   223  112  113 2    
   224  112  114 am   BACKBONE|DICT|INTERRES
   225  114  115 1    
   226  114  235 1    
   227  115  116 1    
   228  115  117 1    
   229  115  236 1    
   230  116  237 1    
   231  116  238 1    
   232  116  239 1    
   233  117  118 2    
   234  117  119 am   BACKBONE|DICT|INTERRES
   235  119  120 1    
   236  119  240 1    
   237  120  121 1    
   238  120  124 1    
   239  120  241 1    
   240  121  122 am   BACKBONE|DICT|INTERRES
   241  121  123 2    
   242  122  242 1    
   243  122  243 1    
   244  124  125 1    
   245  124  244 1    
   246  124  245 1    
   247  125  126 1    
   248  126  246 1    
   249  126  247 1    
@<TRIPOS>SUBSTRUCTURE
     1 UNK         1 GROUP             0       ****    0 ROOT    
