@<TRIPOS>MOLECULE
3R540
247   249    1
SMALL
USER_CHARGES


@<TRIPOS>ATOM
      1 CA         -5.7873  -16.3633  -43.6456 C.3       0 UNK        -0.1800 
      2 C          -4.9635  -15.1104  -43.8951 C.2       0 UNK         0.5000 
      3 O          -4.8398  -14.2690  -43.0039 O.2       0 UNK        -0.5000 
      4 N          -4.3987  -14.9773  -45.1016 N.am      1 UNK        -0.5000 
      5 CA         -3.6408  -13.8070  -45.5671 C.3       1 UNK         0.1400 
      6 C6         -3.6590  -13.6627  -47.1118 C.3       23 UNK        -0.0398 
      7 S7         -5.3427  -13.7417  -47.8196 S.3       23 UNK        -0.2404 
      8 C8         -5.0766  -14.6870  -49.3566 C.3       23 UNK        -0.0205 
      9 C9         -4.4365  -16.0483  -49.1183 C.ar      23 UNK        -0.0193 
     10 C10        -3.1455  -16.3067  -49.5908 C.ar      23 UNK        -0.1150 
     11 C11        -2.5519  -17.5549  -49.3881 C.ar      23 UNK        -0.0193 
     12 C12        -3.2606  -18.5515  -48.7149 C.ar      23 UNK        -0.1150 
     13 C13        -4.5377  -18.2957  -48.2095 C.ar      23 UNK        -0.0193 
     14 C14        -5.1273  -17.0465  -48.4242 C.ar      23 UNK        -0.1150 
     15 C15        -5.2707  -19.3689  -47.4226 C.3       23 UNK        -0.0205 
     16 S16        -4.9775  -19.2314  -45.6245 S.3       23 UNK        -0.2404 
     17 C17        -3.1608  -19.3792  -45.4513 C.3       23 UNK        -0.0398 
     18 CA         -2.6233  -20.7775  -45.8377 C.3       11 UNK         0.1400 
     19 N          -1.2190  -20.7442  -46.2589 N.am      11 UNK        -0.5000 
     20 C          -0.6364  -21.7181  -46.9736 C.2       10 UNK         0.5000 
     21 O          -1.2322  -22.7177  -47.3651 O.2       10 UNK        -0.5000 
     22 CA          0.8699  -21.5938  -47.2597 C.3       10 UNK         0.1400 
     23 CB          1.1381  -20.6630  -48.4489 C.3       10 UNK        -0.1800 
     24 N           1.6281  -21.1449  -46.0945 N.am      10 UNK        -0.5000 
     25 C           1.7367  -21.8409  -44.9549 C.2       9 UNK         0.5000 
     26 O           1.2523  -22.9606  -44.7917 O.2       9 UNK        -0.5000 
     27 CA          2.4703  -21.1564  -43.7886 C.3       9 UNK         0.1400 
     28 CB          3.9906  -21.3127  -43.9382 C.3       9 UNK        -0.1800 
     29 N           2.1306  -19.7386  -43.6560 N.am      9 UNK        -0.5000 
     30 C           0.9061  -19.2681  -43.3755 C.2       8 UNK         0.5000 
     31 O          -0.0751  -19.9842  -43.1794 O.2       8 UNK        -0.5000 
     32 CA          0.7381  -17.7379  -43.3650 C.3       8 UNK         0.1400 
     33 CB          1.3694  -17.1279  -42.1034 C.3       8 UNK        -0.1800 
     34 N           1.3135  -17.1141  -44.5558 N.am      8 UNK        -0.5000 
     35 C           0.9147  -17.3542  -45.8138 C.2       7 UNK         0.5000 
     36 O          -0.0305  -18.0863  -46.1076 O.2       7 UNK        -0.5000 
     37 CA          1.7564  -16.7189  -46.9336 C.3       7 UNK         0.1400 
     38 CB          1.3292  -15.2681  -47.1952 C.3       7 UNK        -0.1800 
     39 N           3.1884  -16.7667  -46.6353 N.am      7 UNK        -0.5000 
     40 C           3.9164  -17.8925  -46.6149 C.2       6 UNK         0.5000 
     41 O           3.4602  -19.0066  -46.8668 O.2       6 UNK        -0.5000 
     42 CA          5.3922  -17.7543  -46.2010 C.3       6 UNK         0.1400 
     43 CB          6.2461  -17.2716  -47.3829 C.3       6 UNK        -0.1800 
     44 N           5.5712  -16.8466  -45.0677 N.am      6 UNK        -0.5000 
     45 C           5.1141  -17.0829  -43.8300 C.2       5 UNK         0.5000 
     46 O           4.5246  -18.1119  -43.5034 O.2       5 UNK        -0.5000 
     47 CA          5.3041  -15.9582  -42.7958 C.3       5 UNK         0.1400 
     48 CB          6.6680  -16.0878  -42.1018 C.3       5 UNK        -0.1800 
     49 N           5.1735  -14.6145  -43.3676 N.am      5 UNK        -0.5000 
     50 C           4.0616  -14.1407  -43.9429 C.2       4 UNK         0.5000 
     51 O           3.0270  -14.8004  -44.0872 O.2       4 UNK        -0.5000 
     52 CA          4.1263  -12.7068  -44.4814 C.3       4 UNK         0.1400 
     53 CB          4.7390  -12.6776  -45.8912 C.3       4 UNK        -0.1800 
     54 N           2.7647  -12.1987  -44.5345 N.am      4 UNK        -0.5000 
     55 C           2.3676  -10.9499  -44.2728 C.2       3 UNK         0.5000 
     56 O           3.1394  -10.0171  -44.0466 O.2       3 UNK        -0.5000 
     57 CA          0.8456  -10.7056  -44.2497 C.3       3 UNK         0.1400 
     58 CB          0.3837  -10.0589  -45.5646 C.3       3 UNK        -0.1800 
     59 N           0.0829  -11.9383  -44.0414 N.am      3 UNK        -0.5000 
     60 C          -0.0525  -12.5867  -42.8785 C.2       2 UNK         0.5000 
     61 O           0.3985  -12.1605  -41.8141 O.2       2 UNK        -0.5000 
     62 CA         -0.8121  -13.9337  -42.9237 C.3       2 UNK         0.1400 
     63 CB         -1.1170  -14.4937  -41.5225 C.3       2 UNK        -0.1800 
     64 N          -2.0660  -13.8767  -43.6791 N.am      2 UNK        -0.5000 
     65 C          -2.1992  -13.8075  -45.0086 C.2       1 UNK         0.5000 
     66 O          -1.2350  -13.7443  -45.7727 O.2       1 UNK        -0.5000 
     67 C          -2.8929  -21.8361  -44.7469 C.2       11 UNK         0.5000 
     68 O          -3.9554  -22.4569  -44.7642 O.2       11 UNK        -0.5000 
     69 N          -1.9195  -22.0911  -43.8598 N.am      12 UNK        -0.5000 
     70 CA         -1.9599  -23.1954  -42.8930 C.3       12 UNK         0.1400 
     71 CB         -0.7984  -23.0591  -41.8976 C.3       12 UNK        -0.1800 
     72 C          -1.9486  -24.5822  -43.5719 C.2       12 UNK         0.5000 
     73 O          -2.5707  -25.5151  -43.0640 O.2       12 UNK        -0.5000 
     74 N          -1.2926  -24.6715  -44.7361 N.am      13 UNK        -0.5000 
     75 CA         -1.3024  -25.8188  -45.6460 C.3       13 UNK         0.1400 
     76 CB          0.0674  -25.8945  -46.3422 C.3       13 UNK        -0.1800 
     77 C          -2.4530  -25.7540  -46.6786 C.2       13 UNK         0.5000 
     78 O          -2.4442  -26.5238  -47.6408 O.2       13 UNK        -0.5000 
     79 N          -3.4051  -24.8284  -46.4880 N.am      14 UNK        -0.5000 
     80 CA         -4.5697  -24.4874  -47.3132 C.3       14 UNK         0.1400 
     81 CB         -5.5117  -25.6918  -47.4996 C.3       14 UNK        -0.1800 
     82 C          -4.2362  -23.8318  -48.6656 C.2       14 UNK         0.5000 
     83 O          -4.9037  -22.8660  -49.0396 O.2       14 UNK        -0.5000 
     84 N          -3.2594  -24.3872  -49.3978 N.am      15 UNK        -0.5000 
     85 CA         -2.8256  -23.9970  -50.7477 C.3       15 UNK         0.1400 
     86 CB         -2.0937  -22.6381  -50.7154 C.3       15 UNK        -0.1800 
     87 C          -3.9746  -24.0230  -51.7796 C.2       15 UNK         0.5000 
     88 O          -4.0059  -23.1930  -52.6901 O.2       15 UNK        -0.5000 
     89 N          -4.9278  -24.9474  -51.5811 N.am      16 UNK        -0.5000 
     90 CA         -6.1943  -25.0819  -52.3100 C.3       16 UNK         0.1400 
     91 CB         -5.9336  -25.5482  -53.7579 C.3       16 UNK        -0.1800 
     92 C          -7.0723  -23.8111  -52.2273 C.2       16 UNK         0.5000 
     93 O          -7.7275  -23.4531  -53.2048 O.2       16 UNK        -0.5000 
     94 N          -7.0377  -23.1306  -51.0697 N.am      17 UNK        -0.5000 
     95 CA         -7.6328  -21.8154  -50.7990 C.3       17 UNK         0.1400 
     96 CB         -9.1731  -21.8619  -50.8835 C.3       17 UNK        -0.1800 
     97 C          -6.9968  -20.7188  -51.6788 C.2       17 UNK         0.5000 
     98 O          -7.7025  -19.9102  -52.2828 O.2       17 UNK        -0.5000 
     99 N          -5.6587  -20.7600  -51.7519 N.am      18 UNK        -0.5000 
    100 CA        -4.7534  -19.9283  -52.5538 C.3       18 UNK         0.1400 
    101 CB        -4.9453  -18.4285  -52.2533 C.3       18 UNK        -0.1800 
    102 C         -4.7809  -20.2175  -54.0707 C.2       18 UNK         0.5000 
    103 O         -4.0272  -19.5810  -54.8087 O.2       18 UNK        -0.5000 
    104 N         -5.5893  -21.1865  -54.5292 N.am      19 UNK        -0.5000 
    105 CA        -5.6864  -21.5866  -55.9380 C.3       19 UNK         0.1400 
    106 CB        -6.9253  -22.4671  -56.1510 C.3       19 UNK        -0.1800 
    107 C         -4.4205  -22.2864  -56.4725 C.2       19 UNK         0.5000 
    108 O         -4.2085  -22.2954  -57.6854 O.2       19 UNK        -0.5000 
    109 N         -3.5767  -22.8139  -55.5724 N.am      20 UNK        -0.5000 
    110 CA        -2.2440  -23.3407  -55.8835 C.3       20 UNK         0.1400 
    111 CB        -1.8310  -24.3374  -54.7875 C.3       20 UNK        -0.1800 
    112 C         -1.1774  -22.2330  -56.0495 C.2       20 UNK         0.5000 
    113 O          0.0003  -22.5551  -56.2119 O.2       20 UNK        -0.5000 
    114 N         -1.5906  -20.9570  -55.9743 N.am      21 UNK        -0.5000 
    115 CA        -0.7803  -19.7385  -56.0835 C.3       21 UNK         0.1400 
    116 CB        -0.1030  -19.6374  -57.4666 C.3       21 UNK        -0.1800 
    117 C          0.2055  -19.5522  -54.9123 C.2       21 UNK         0.5000 
    118 O          1.2089  -18.8526  -55.0607 O.2       21 UNK        -0.5000 
    119 N         -0.1133  -20.1686  -53.7652 N.am      22 UNK        -0.5000 
    120 CA         0.6268  -20.0883  -52.4929 C.3       22 UNK         0.1400 
    121 C          2.0411  -20.7463  -52.5212 C.2       22 UNK         0.5000 
    122 N          2.3483  -21.6074  -53.4845 N.am      22 UNK        -0.7600 
    123 O          2.8635  -20.5022  -51.6433 O.2       22 UNK        -0.5000 
    124 C124        0.6325  -18.6527  -51.8934 C.3       23 UNK        -0.0398 
    125 S125       -1.0610  -17.9995  -51.6725 S.3       23 UNK        -0.2404 
    126 C126       -1.1363  -17.8219  -49.8675 C.3       23 UNK        -0.0205 
    127 H127       -6.6023  -16.1518  -42.9534 H         1 UNK         0.0600 
    128 H128       -5.1635  -17.1453  -43.2128 H         1 UNK         0.0600 
    129 H129       -6.2246  -16.7366  -44.5716 H         1 UNK         0.0600 
    130 H130       -4.5228  -15.7085  -45.7877 H         1 UNK         0.3000 
    131 H131       -4.1247  -12.9148  -45.1639 H         1 UNK         0.0600 
    132 H132       -3.2183  -12.7087  -47.4062 H         1 UNK         0.0800 
    133 H133       -3.0318  -14.4309  -47.5629 H         1 UNK         0.0800 
    134 H134       -6.0372  -14.8296  -49.8534 H         1 UNK         0.0800 
    135 H135       -4.4686  -14.0881  -50.0364 H         1 UNK         0.0800 
    136 H136       -2.5977  -15.5377  -50.1171 H         1 UNK         0.1150 
    137 H137       -2.8053  -19.5188  -48.5571 H         1 UNK         0.1150 
    138 H138       -6.1184  -16.8456  -48.0423 H         1 UNK         0.1150 
    139 H139       -6.3429  -19.2836  -47.6048 H         1 UNK         0.0800 
    140 H140       -4.9934  -20.3610  -47.7797 H         1 UNK         0.0800 
    141 H141       -2.8810  -19.1267  -44.4269 H         1 UNK         0.0800 
    142 H142       -2.7012  -18.6058  -46.0662 H         1 UNK         0.0800 
    143 H143       -3.1774  -21.1136  -46.7147 H         1 UNK         0.0600 
    144 H144       -0.6790  -19.9220  -46.0024 H         1 UNK         0.3000 
    145 H145        1.2314  -22.5885  -47.5289 H         1 UNK         0.0600 
    146 H146        2.1784  -20.7264  -48.7686 H         1 UNK         0.0600 
    147 H147        0.5184  -20.9268  -49.3062 H         1 UNK         0.0600 
    148 H148        0.9361  -19.6245  -48.1930 H         1 UNK         0.0600 
    149 H149        2.1091  -20.2544  -46.1788 H         1 UNK         0.3000 
    150 H150        2.1670  -21.6571  -42.8672 H         1 UNK         0.0600 
    151 H151        4.2690  -22.3631  -44.0322 H         1 UNK         0.0600 
    152 H152        4.5144  -20.9141  -43.0692 H         1 UNK         0.0600 
    153 H153        4.3637  -20.7922  -44.8209 H         1 UNK         0.0600 
    154 H154        2.8969  -19.0800  -43.7682 H         1 UNK         0.3000 
    155 H155       -0.3302  -17.5116  -43.3585 H         1 UNK         0.0600 
    156 H156        0.8422  -17.4592  -41.2082 H         1 UNK         0.0600 
    157 H157        1.3328  -16.0398  -42.1221 H         1 UNK         0.0600 
    158 H158        2.4141  -17.4161  -41.9911 H         1 UNK         0.0600 
    159 H159        2.0777  -16.4618  -44.4064 H         1 UNK         0.3000 
    160 H160        1.5820  -17.2895  -47.8479 H         1 UNK         0.0600 
    161 H161        1.4508  -14.6418  -46.3111 H         1 UNK         0.0600 
    162 H162        0.2789  -15.2229  -47.4862 H         1 UNK         0.0600 
    163 H163        1.9086  -14.8239  -48.0045 H         1 UNK         0.0600 
    164 H164        3.6254  -15.9002  -46.3605 H         1 UNK         0.3000 
    165 H165        5.7485  -18.7430  -45.9036 H         1 UNK         0.0600 
    166 H166        7.3040  -17.2481  -47.1208 H         1 UNK         0.0600 
    167 H167        6.1394  -17.9394  -48.2389 H         1 UNK         0.0600 
    168 H168        5.9584  -16.2713  -47.7088 H         1 UNK         0.0600 
    169 H169        6.0463  -15.9748  -45.2476 H         1 UNK         0.3000 
    170 H170        4.5254  -16.0734  -42.0392 H         1 UNK         0.0600 
    171 H171        6.7835  -17.0740  -41.6498 H         1 UNK         0.0600 
    172 H172        7.4923  -15.9491  -42.8024 H         1 UNK         0.0600 
    173 H173        6.7766  -15.3523  -41.3045 H         1 UNK         0.0600 
    174 H174        5.9832  -14.0151  -43.2955 H         1 UNK         0.3000 
    175 H175        4.7278  -12.1023  -43.7992 H         1 UNK         0.0600 
    176 H176        4.1637  -13.2832  -46.5929 H         1 UNK         0.0600 
    177 H177        4.7755  -11.6605  -46.2817 H         1 UNK         0.0600 
    178 H178        5.7606  -13.0592  -45.8848 H         1 UNK         0.0600 
    179 H179        2.0625  -12.9182  -44.6450 H         1 UNK         0.3000 
    180 H180        0.6304  -10.0163  -43.4306 H         1 UNK         0.0600 
    181 H181        0.5652  -10.7122  -46.4191 H         1 UNK         0.0600 
    182 H182        0.9129   -9.1228  -45.7474 H         1 UNK         0.0600 
    183 H183       -0.6818   -9.8296  -45.5380 H         1 UNK         0.0600 
    184 H184       -0.3146  -12.3800  -44.8663 H         1 UNK         0.3000 
    185 H185       -0.1508  -14.6413  -43.4276 H         1 UNK         0.0600 
    186 H186       -0.2095  -14.5899  -40.9254 H         1 UNK         0.0600 
    187 H187       -1.8033  -13.8472  -40.9744 H         1 UNK         0.0600 
    188 H188       -1.5672  -15.4846  -41.5849 H         1 UNK         0.0600 
    189 H189       -2.9237  -13.9150  -43.1362 H         1 UNK         0.3000 
    190 H190       -1.0966  -21.4950  -43.8419 H         1 UNK         0.3000 
    191 H191       -2.8934  -23.1117  -42.3327 H         1 UNK         0.0600 
    192 H192        0.1693  -23.1464  -42.3898 H         1 UNK         0.0600 
    193 H193       -0.8282  -22.0973  -41.3852 H         1 UNK         0.0600 
    194 H194       -0.8476  -23.8363  -41.1341 H         1 UNK         0.0600 
    195 H195       -0.7732  -23.8615  -45.0539 H         1 UNK         0.3000 
    196 H196       -1.4390  -26.7359  -45.0698 H         1 UNK         0.0600 
    197 H197        0.8770  -25.9455  -45.6138 H         1 UNK         0.0600 
    198 H198        0.2440  -25.0245  -46.9754 H         1 UNK         0.0600 
    199 H199        0.1428  -26.7815  -46.9721 H         1 UNK         0.0600 
    200 H200       -3.2883  -24.2157  -45.6903 H         1 UNK         0.3000 
    201 H201       -5.1217  -23.7393  -46.7432 H         1 UNK         0.0600 
    202 H202       -6.4243  -25.3937  -48.0173 H         1 UNK         0.0600 
    203 H203       -5.8073  -26.1115  -46.5381 H         1 UNK         0.0600 
    204 H204       -5.0524  -26.4879  -48.0857 H         1 UNK         0.0600 
    205 H205       -2.7865  -25.1877  -48.9872 H         1 UNK         0.3000 
    206 H206       -2.1096  -24.7516  -51.0754 H         1 UNK         0.0600 
    207 H207       -1.2297  -22.6770  -50.0535 H         1 UNK         0.0600 
    208 H208       -2.7426  -21.8321  -50.3720 H         1 UNK         0.0600 
    209 H209       -1.7258  -22.3651  -51.7045 H         1 UNK         0.0600 
    210 H210       -4.8023  -25.5811  -50.8047 H         1 UNK         0.3000 
    211 H211       -6.7588  -25.8686  -51.8078 H         1 UNK         0.0600 
    212 H212       -5.3570  -26.4728  -53.7740 H         1 UNK         0.0600 
    213 H213       -6.8689  -25.7421  -54.2841 H         1 UNK         0.0600 
    214 H214       -5.3820  -24.8041  -54.3317 H         1 UNK         0.0600 
    215 H215       -6.4144  -23.4627  -50.3432 H         1 UNK         0.3000 
    216 H216       -7.3708  -21.5678  -49.7691 H         1 UNK         0.0600 
    217 H217       -9.6076  -20.9193  -50.5490 H         1 UNK         0.0600 
    218 H218       -9.5234  -22.0367  -51.9010 H         1 UNK         0.0600 
    219 H219       -9.5787  -22.6495  -50.2487 H         1 UNK         0.0600 
    220 H220       -5.1994  -21.5031  -51.2419 H         1 UNK         0.3000 
    221 H221       -3.7494  -20.1962  -52.2216 H         1 UNK         0.0600 
    222 H222       -5.8751  -18.0432  -52.6715 H         1 UNK         0.0600 
    223 H223       -4.9562  -18.2397  -51.1811 H         1 UNK         0.0600 
    224 H224       -4.1307  -17.8395  -52.6761 H         1 UNK         0.0600 
    225 H225       -6.1613  -21.6965  -53.8697 H         1 UNK         0.3000 
    226 H226       -5.8234  -20.6768  -56.5262 H         1 UNK         0.0600 
    227 H227       -7.8238  -21.9928  -55.7556 H         1 UNK         0.0600 
    228 H228       -7.0935  -22.6488  -57.2131 H         1 UNK         0.0600 
    229 H229       -6.8174  -23.4388  -55.6713 H         1 UNK         0.0600 
    230 H230       -3.8315  -22.7912  -54.5879 H         1 UNK         0.3000 
    231 H231       -2.2953  -23.8848  -56.8286 H         1 UNK         0.0600 
    232 H232       -0.9175  -24.8651  -55.0636 H         1 UNK         0.0600 
    233 H233       -2.6025  -25.0900  -54.6233 H         1 UNK         0.0600 
    234 H234       -1.6410  -23.8347  -53.8392 H         1 UNK         0.0600 
    235 H235       -2.5729  -20.7886  -55.7901 H         1 UNK         0.3000 
    236 H236       -1.4851  -18.9092  -56.0075 H         1 UNK         0.0600 
    237 H237       -0.8256  -19.7776  -58.2706 H         1 UNK         0.0600 
    238 H238        0.3508  -18.6560  -57.6083 H         1 UNK         0.0600 
    239 H239        0.6856  -20.3801  -57.5892 H         1 UNK         0.0600 
    240 H240       -0.9580  -20.7190  -53.7507 H         1 UNK         0.3000 
    241 H241        0.0652  -20.7120  -51.7980 H         1 UNK         0.0600 
    242 H242        3.2600  -22.0366  -53.4926 H         1 UNK         0.3800 
    243 H243        1.6881  -21.8162  -54.2187 H         1 UNK         0.3800 
    244 H244        1.1483  -18.6405  -50.9320 H         1 UNK         0.0800 
    245 H245        1.1873  -17.9682  -52.5359 H         1 UNK         0.0800 
    246 H246       -0.4797  -17.0108  -49.5495 H         1 UNK         0.0800 
    247 H247       -0.7594  -18.7317  -49.4040 H         1 UNK         0.0800 
@<TRIPOS>BOND
     1    1    2 1    
     2    1  127 1    
     3    1  128 1    
     4    1  129 1    
     5    2    3 2    
     6    2    4 am   BACKBONE|DICT|INTERRES
     7    4    5 1    
     8    4  130 1    
     9    5    6 1    
    10    5   65 1    
    11    5  131 1    
    12    6    7 1    
    13    6  132 1    
    14    6  133 1    
    15    7    8 1    
    16    8    9 1    
    17    8  134 1    
    18    8  135 1    
    19    9   10 ar   
    20    9   14 ar   
    21   10   11 ar   
    22   10  136 1    
    23   11   12 ar   
    24   11  126 1    
    25   12   13 ar   
    26   12  137 1    
    27   13   14 ar   
    28   13   15 1    
    29   14  138 1    
    30   15   16 1    
    31   15  139 1    
    32   15  140 1    
    33   16   17 1    
    34   17   18 1    
    35   17  141 1    
    36   17  142 1    
    37   18   19 1    
    38   18   67 1    
    39   18  143 1    
    40   19   20 am   BACKBONE|DICT|INTERRES
    41   19  144 1    
    42   20   21 2    
    43   20   22 1    
    44   22   23 1    
    45   22   24 1    
    46   22  145 1    
    47   23  146 1    
    48   23  147 1    
    49   23  148 1    
    50   24   25 am   BACKBONE|DICT|INTERRES
    51   24  149 1    
    52   25   26 2    
    53   25   27 1    
    54   27   28 1    
    55   27   29 1    
    56   27  150 1    
    57   28  151 1    
    58   28  152 1    
    59   28  153 1    
    60   29   30 am   BACKBONE|DICT|INTERRES
    61   29  154 1    
    62   30   31 2    
    63   30   32 1    
    64   32   33 1    
    65   32   34 1    
    66   32  155 1    
    67   33  156 1    
    68   33  157 1    
    69   33  158 1    
    70   34   35 am   BACKBONE|DICT|INTERRES
    71   34  159 1    
    72   35   36 2    
    73   35   37 1    
    74   37   38 1    
    75   37   39 1    
    76   37  160 1    
    77   38  161 1    
    78   38  162 1    
    79   38  163 1    
    80   39   40 am   BACKBONE|DICT|INTERRES
    81   39  164 1    
    82   40   41 2    
    83   40   42 1    
    84   42   43 1    
    85   42   44 1    
    86   42  165 1    
    87   43  166 1    
    88   43  167 1    
    89   43  168 1    
    90   44   45 am   BACKBONE|DICT|INTERRES
    91   44  169 1    
    92   45   46 2    
    93   45   47 1    
    94   47   48 1    
    95   47   49 1    
    96   47  170 1    
    97   48  171 1    
    98   48  172 1    
    99   48  173 1    
   100   49   50 am   BACKBONE|DICT|INTERRES
   101   49  174 1    
   102   50   51 2    
   103   50   52 1    
   104   52   53 1    
   105   52   54 1    
   106   52  175 1    
   107   53  176 1    
   108   53  177 1    
   109   53  178 1    
   110   54   55 am   BACKBONE|DICT|INTERRES
   111   54  179 1    
   112   55   56 2    
   113   55   57 1    
   114   57   58 1    
   115   57   59 1    
   116   57  180 1    
   117   58  181 1    
   118   58  182 1    
   119   58  183 1    
   120   59   60 am   BACKBONE|DICT|INTERRES
   121   59  184 1    
   122   60   61 2    
   123   60   62 1    
   124   62   63 1    
   125   62   64 1    
   126   62  185 1    
   127   63  186 1    
   128   63  187 1    
   129   63  188 1    
   130   64   65 am   BACKBONE|DICT|INTERRES
   131   64  189 1    
   132   65   66 2    
   133   67   68 2    
   134   67   69 am   BACKBONE|DICT|INTERRES
   135   69   70 1    
   136   69  190 1    
   137   70   71 1    
   138   70   72 1    
   139   70  191 1    
   140   71  192 1    
   141   71  193 1    
   142   71  194 1    
   143   72   73 2    
   144   72   74 am   BACKBONE|DICT|INTERRES
   145   74   75 1    
   146   74  195 1    
   147   75   76 1    
   148   75   77 1    
   149   75  196 1    
   150   76  197 1    
   151   76  198 1    
   152   76  199 1    
   153   77   78 2    
   154   77   79 am   BACKBONE|DICT|INTERRES
   155   79   80 1    
   156   79  200 1    
   157   80   81 1    
   158   80   82 1    
   159   80  201 1    
   160   81  202 1    
   161   81  203 1    
   162   81  204 1    
   163   82   83 2    
   164   82   84 am   BACKBONE|DICT|INTERRES
   165   84   85 1    
   166   84  205 1    
   167   85   86 1    
   168   85   87 1    
   169   85  206 1    
   170   86  207 1    
   171   86  208 1    
   172   86  209 1    
   173   87   88 2    
   174   87   89 am   BACKBONE|DICT|INTERRES
   175   89   90 1    
   176   89  210 1    
   177   90   91 1    
   178   90   92 1    
   179   90  211 1    
   180   91  212 1    
   181   91  213 1    
   182   91  214 1    
   183   92   93 2    
   184   92   94 am   BACKBONE|DICT|INTERRES
   185   94   95 1    
   186   94  215 1    
   187   95   96 1    
   188   95   97 1    
   189   95  216 1    
   190   96  217 1    
   191   96  218 1    
   192   96  219 1    
   193   97   98 2    
   194   97   99 am   BACKBONE|DICT|INTERRES
   195   99  100 1    
   196   99  220 1    
   197  100  101 1    
   198  100  102 1    
   199  100  221 1    
   200  101  222 1    
   201  101  223 1    
   202  101  224 1    
   203  102  103 2    
   204  102  104 am   BACKBONE|DICT|INTERRES
   205  104  105 1    
   206  104  225 1    
   207  105  106 1    
   208  105  107 1    
   209  105  226 1    
   210  106  227 1    
   211  106  228 1    
   212  106  229 1    
   213  107  108 2    
   214  107  109 am   BACKBONE|DICT|INTERRES
   215  109  110 1    
   216  109  230 1    
   217  110  111 1    
   218  110  112 1    
   219  110  231 1    
   220  111  232 1    
   221  111  233 1    
   222  111  234 1    
   223  112  113 2    
   224  112  114 am   BACKBONE|DICT|INTERRES
   225  114  115 1    
   226  114  235 1    
   227  115  116 1    
   228  115  117 1    
   229  115  236 1    
   230  116  237 1    
   231  116  238 1    
   232  116  239 1    
   233  117  118 2    
   234  117  119 am   BACKBONE|DICT|INTERRES
   235  119  120 1    
   236  119  240 1    
   237  120  121 1    
   238  120  124 1    
   239  120  241 1    
   240  121  122 am   BACKBONE|DICT|INTERRES
   241  121  123 2    
   242  122  242 1    
   243  122  243 1    
   244  124  125 1    
   245  124  244 1    
   246  124  245 1    
   247  125  126 1    
   248  126  246 1    
   249  126  247 1    
@<TRIPOS>SUBSTRUCTURE
     1 UNK         1 GROUP             0       ****    0 ROOT    
