@<TRIPOS>MOLECULE
3R540
247   249    1
SMALL
USER_CHARGES


@<TRIPOS>ATOM
      1 CA          6.0923  -14.9452  -50.1835 C.3       0 UNK        -0.1800 
      2 C           5.6903  -14.8410  -48.7189 C.2       0 UNK         0.5000 
      3 O           6.5560  -14.8298  -47.8434 O.2       0 UNK        -0.5000 
      4 N           4.3810  -14.7744  -48.4518 N.am      1 UNK        -0.5000 
      5 CA          3.8022  -14.6020  -47.1193 C.3       1 UNK         0.1400 
      6 C6          2.3068  -15.0292  -47.0750 C.3       23 UNK        -0.0398 
      7 S7          1.0874  -13.8987  -47.8497 S.3       23 UNK        -0.2404 
      8 C8          1.2798  -14.1733  -49.6414 C.3       23 UNK        -0.0205 
      9 C9          0.6940  -15.4973  -50.1075 C.ar      23 UNK        -0.0193 
     10 C10        -0.6172  -15.5495  -50.5891 C.ar      23 UNK        -0.1150 
     11 C11        -1.1526  -16.7486  -51.0677 C.ar      23 UNK        -0.0193 
     12 C12        -0.3724  -17.9078  -51.0415 C.ar      23 UNK        -0.1150 
     13 C13         0.9333  -17.8734  -50.5417 C.ar      23 UNK        -0.0193 
     14 C14         1.4671  -16.6618  -50.0952 C.ar      23 UNK        -0.1150 
     15 C15         1.7686  -19.1436  -50.4729 C.3       23 UNK        -0.0205 
     16 S16         1.8636  -19.7890  -48.7710 S.3       23 UNK        -0.2404 
     17 C17         0.1176  -20.1994  -48.4446 C.3       23 UNK        -0.0398 
     18 CA         -0.0484  -21.5662  -47.7427 C.3       11 UNK         0.1400 
     19 N           0.3641  -21.5507  -46.3367 N.am      11 UNK        -0.5000 
     20 C           0.4574  -22.6450  -45.5656 C.2       10 UNK         0.5000 
     21 O           0.3160  -23.7927  -45.9883 O.2       10 UNK        -0.5000 
     22 CA          0.6866  -22.4218  -44.0589 C.3       10 UNK         0.1400 
     23 CB          2.1755  -22.2047  -43.7520 C.3       10 UNK        -0.1800 
     24 N          -0.0971  -21.3032  -43.5324 N.am      10 UNK        -0.5000 
     25 C          -1.4369  -21.2535  -43.5095 C.2       9 UNK         0.5000 
     26 O          -2.1603  -22.1803  -43.8714 O.2       9 UNK        -0.5000 
     27 CA         -2.0771  -19.9270  -43.0621 C.3       9 UNK         0.1400 
     28 CB         -2.1781  -19.8446  -41.5315 C.3       9 UNK        -0.1800 
     29 N          -1.3530  -18.7657  -43.5806 N.am      9 UNK        -0.5000 
     30 C          -1.3051  -18.4241  -44.8766 C.2       8 UNK         0.5000 
     31 O          -1.9120  -19.0251  -45.7626 O.2       8 UNK        -0.5000 
     32 CA         -0.3848  -17.2482  -45.2493 C.3       8 UNK         0.1400 
     33 CB         -1.1148  -15.9097  -45.0748 C.3       8 UNK        -0.1800 
     34 N           0.8490  -17.2465  -44.4606 N.am      8 UNK        -0.5000 
     35 C           1.8234  -18.1576  -44.6086 C.2       7 UNK         0.5000 
     36 O           1.7863  -19.0562  -45.4470 O.2       7 UNK        -0.5000 
     37 CA          3.0114  -18.0915  -43.6270 C.3       7 UNK         0.1400 
     38 CB          4.0848  -17.1244  -44.1463 C.3       7 UNK        -0.1800 
     39 N           2.6182  -17.6890  -42.2766 N.am      7 UNK        -0.5000 
     40 C           1.7352  -18.3418  -41.5090 C.2       6 UNK         0.5000 
     41 O           1.2537  -19.4314  -41.8154 O.2       6 UNK        -0.5000 
     42 CA          1.2648  -17.6506  -40.2124 C.3       6 UNK         0.1400 
     43 CB          1.9011  -18.3248  -38.9879 C.3       6 UNK        -0.1800 
     44 N           1.5161  -16.2052  -40.1442 N.am      6 UNK        -0.5000 
     45 C           1.0749  -15.2783  -41.0069 C.2       5 UNK         0.5000 
     46 O           0.4484  -15.5432  -42.0364 O.2       5 UNK        -0.5000 
     47 CA          1.4856  -13.8269  -40.6863 C.3       5 UNK         0.1400 
     48 CB          2.9619  -13.6186  -41.0516 C.3       5 UNK        -0.1800 
     49 N           0.6841  -12.8156  -41.3801 N.am      5 UNK        -0.5000 
     50 C          -0.6355  -12.6347  -41.2238 C.2       4 UNK         0.5000 
     51 O          -1.3187  -13.2889  -40.4335 O.2       4 UNK        -0.5000 
     52 CA         -1.3174  -11.5215  -42.0486 C.3       4 UNK         0.1400 
     53 CB         -1.9086  -10.4445  -41.1229 C.3       4 UNK        -0.1800 
     54 N          -0.4403  -10.8609  -43.0176 N.am      4 UNK        -0.5000 
     55 C          -0.0865  -11.3561  -44.2103 C.2       3 UNK         0.5000 
     56 O          -0.4354  -12.4627  -44.6183 O.2       3 UNK        -0.5000 
     57 CA          0.8038  -10.4682  -45.1063 C.3       3 UNK         0.1400 
     58 CB          0.8074   -8.9751  -44.7070 C.3       3 UNK        -0.1800 
     59 N           2.1760  -10.9718  -45.1989 N.am      3 UNK        -0.5000 
     60 C           3.0317  -11.2022  -44.1934 C.2       2 UNK         0.5000 
     61 O           2.7550  -11.0320  -43.0048 O.2       2 UNK        -0.5000 
     62 CA          4.4165  -11.7438  -44.6040 C.3       2 UNK         0.1400 
     63 CB          5.3900  -11.8986  -43.4216 C.3       2 UNK        -0.1800 
     64 N           4.2827  -13.0301  -45.2904 N.am      2 UNK        -0.5000 
     65 C           4.0353  -13.1668  -46.5987 C.2       1 UNK         0.5000 
     66 O           3.9522  -12.2093  -47.3733 O.2       1 UNK        -0.5000 
     67 C          -1.4937  -22.0752  -47.8946 C.2       11 UNK         0.5000 
     68 O          -1.7208  -22.9836  -48.6913 O.2       11 UNK        -0.5000 
     69 N          -2.4383  -21.5195  -47.1217 N.am      12 UNK        -0.5000 
     70 CA         -3.8547  -21.8997  -47.1409 C.3       12 UNK         0.1400 
     71 CB         -4.6540  -20.9796  -46.2081 C.3       12 UNK        -0.1800 
     72 C          -4.1005  -23.3813  -46.7953 C.2       12 UNK         0.5000 
     73 O          -4.9355  -24.0191  -47.4361 O.2       12 UNK        -0.5000 
     74 N          -3.3252  -23.9224  -45.8453 N.am      13 UNK        -0.5000 
     75 CA         -3.3111  -25.3412  -45.4751 C.3       13 UNK         0.1400 
     76 CB         -2.4476  -25.5253  -44.2182 C.3       13 UNK        -0.1800 
     77 C          -2.8270  -26.2733  -46.6068 C.2       13 UNK         0.5000 
     78 O          -3.2344  -27.4343  -46.6492 O.2       13 UNK        -0.5000 
     79 N          -2.0018  -25.7429  -47.5185 N.am      14 UNK        -0.5000 
     80 CA         -1.5363  -26.3997  -48.7420 C.3       14 UNK         0.1400 
     81 CB         -0.0590  -26.0285  -48.9611 C.3       14 UNK        -0.1800 
     82 C          -2.3982  -26.0169  -49.9660 C.2       14 UNK         0.5000 
     83 O          -1.9682  -26.2255  -51.1027 O.2       14 UNK        -0.5000 
     84 N          -3.5765  -25.4186  -49.7258 N.am      15 UNK        -0.5000 
     85 CA         -4.5452  -24.9140  -50.7045 C.3       15 UNK         0.1400 
     86 CB         -5.1783  -26.0759  -51.4969 C.3       15 UNK        -0.1800 
     87 C          -3.9788  -23.8167  -51.6283 C.2       15 UNK         0.5000 
     88 O          -4.4932  -23.6310  -52.7316 O.2       15 UNK        -0.5000 
     89 N          -2.9378  -23.1073  -51.1696 N.am      16 UNK        -0.5000 
     90 CA         -2.1282  -22.1301  -51.9032 C.3       16 UNK         0.1400 
     91 CB         -2.9462  -20.8619  -52.2126 C.3       16 UNK        -0.1800 
     92 C          -1.4336  -22.7433  -53.1375 C.2       16 UNK         0.5000 
     93 O          -1.3031  -22.0783  -54.1646 O.2       16 UNK        -0.5000 
     94 N          -1.0139  -24.0124  -53.0029 N.am      17 UNK        -0.5000 
     95 CA         -0.4540  -24.8761  -54.0469 C.3       17 UNK         0.1400 
     96 CB          0.8891  -24.3288  -54.5753 C.3       17 UNK        -0.1800 
     97 C          -1.4886  -25.1606  -55.1546 C.2       17 UNK         0.5000 
     98 O          -1.1940  -25.0052  -56.3411 O.2       17 UNK        -0.5000 
     99 N          -2.6903  -25.5678  -54.7182 N.am      18 UNK        -0.5000 
    100 CA        -3.8801  -25.8614  -55.5233 C.3       18 UNK         0.1400 
    101 CB        -3.6439  -27.0803  -56.4401 C.3       18 UNK        -0.1800 
    102 C         -4.4075  -24.6204  -56.2742 C.2       18 UNK         0.5000 
    103 O         -4.6521  -24.6748  -57.4810 O.2       18 UNK        -0.5000 
    104 N         -4.5894  -23.5267  -55.5263 N.am      19 UNK        -0.5000 
    105 CA        -5.1660  -22.2614  -55.9802 C.3       19 UNK         0.1400 
    106 CB        -4.0607  -21.1978  -56.0970 C.3       19 UNK        -0.1800 
    107 C         -6.3151  -21.8413  -55.0437 C.2       19 UNK         0.5000 
    108 O         -6.4797  -20.6552  -54.7499 O.2       19 UNK        -0.5000 
    109 N         -7.0857  -22.8380  -54.5803 N.am      20 UNK        -0.5000 
    110 CA        -8.3139  -22.7293  -53.7824 C.3       20 UNK         0.1400 
    111 CB        -9.4463  -22.1280  -54.6414 C.3       20 UNK        -0.1800 
    112 C         -8.1439  -21.9953  -52.4339 C.2       20 UNK         0.5000 
    113 O         -9.0969  -21.3787  -51.9552 O.2       20 UNK        -0.5000 
    114 N         -6.9378  -22.0778  -51.8497 N.am      21 UNK        -0.5000 
    115 CA        -6.5095  -21.3868  -50.6264 C.3       21 UNK         0.1400 
    116 CB        -7.2635  -21.9184  -49.3892 C.3       21 UNK        -0.1800 
    117 C         -6.5781  -19.8540  -50.7812 C.2       21 UNK         0.5000 
    118 O         -7.2075  -19.1708  -49.9718 O.2       21 UNK        -0.5000 
    119 N         -5.9219  -19.3638  -51.8407 N.am      22 UNK        -0.5000 
    120 CA        -5.8607  -17.9558  -52.2636 C.3       22 UNK         0.1400 
    121 C         -7.1818  -17.4802  -52.9360 C.2       22 UNK         0.5000 
    122 N         -7.7874  -18.2922  -53.7936 N.am      22 UNK        -0.7600 
    123 O         -7.6611  -16.3742  -52.6986 O.2       22 UNK        -0.5000 
    124 C124       -5.3325  -16.9750  -51.1742 C.3       23 UNK        -0.0398 
    125 S125       -3.7419  -17.4705  -50.4236 S.3       23 UNK        -0.2404 
    126 C126       -2.5658  -16.7838  -51.6276 C.3       23 UNK        -0.0205 
    127 H127        5.2238  -14.9649  -50.8425 H         1 UNK         0.0600 
    128 H128        6.6663  -15.8565  -50.3511 H         1 UNK         0.0600 
    129 H129        6.7125  -14.0937  -50.4635 H         1 UNK         0.0600 
    130 H130        3.7261  -14.7408  -49.2166 H         1 UNK         0.3000 
    131 H131        4.3451  -15.2793  -46.4578 H         1 UNK         0.0600 
    132 H132        2.1847  -16.0327  -47.4815 H         1 UNK         0.0800 
    133 H133        2.0076  -15.1196  -46.0302 H         1 UNK         0.0800 
    134 H134        0.7727  -13.3564  -50.1572 H         1 UNK         0.0800 
    135 H135        2.3228  -14.0889  -49.9395 H         1 UNK         0.0800 
    136 H136       -1.2173  -14.6505  -50.6047 H         1 UNK         0.1150 
    137 H137       -0.7881  -18.8373  -51.4020 H         1 UNK         0.1150 
    138 H138        2.4826  -16.6353  -49.7279 H         1 UNK         0.1150 
    139 H139        1.3652  -19.9120  -51.1344 H         1 UNK         0.0800 
    140 H140        2.7783  -18.9338  -50.8288 H         1 UNK         0.0800 
    141 H141       -0.4143  -20.2036  -49.3968 H         1 UNK         0.0800 
    142 H142       -0.3260  -19.3956  -47.8568 H         1 UNK         0.0800 
    143 H143        0.5894  -22.2871  -48.2593 H         1 UNK         0.0600 
    144 H144        0.5759  -20.6441  -45.9334 H         1 UNK         0.3000 
    145 H145        0.3622  -23.3246  -43.5372 H         1 UNK         0.0600 
    146 H146        2.7673  -23.0620  -44.0745 H         1 UNK         0.0600 
    147 H147        2.5696  -21.3259  -44.2613 H         1 UNK         0.0600 
    148 H148        2.3436  -22.0754  -42.6826 H         1 UNK         0.0600 
    149 H149        0.4232  -20.5217  -43.1439 H         1 UNK         0.3000 
    150 H150       -3.0915  -19.8944  -43.4642 H         1 UNK         0.0600 
    151 H151       -2.6534  -18.9155  -41.2165 H         1 UNK         0.0600 
    152 H152       -1.2015  -19.9019  -41.0521 H         1 UNK         0.0600 
    153 H153       -2.7797  -20.6659  -41.1401 H         1 UNK         0.0600 
    154 H154       -0.7972  -18.2403  -42.9224 H         1 UNK         0.3000 
    155 H155       -0.1181  -17.3508  -46.3038 H         1 UNK         0.0600 
    156 H156       -2.0166  -15.8745  -45.6872 H         1 UNK         0.0600 
    157 H157       -0.4838  -15.0758  -45.3804 H         1 UNK         0.0600 
    158 H158       -1.4124  -15.7405  -44.0394 H         1 UNK         0.0600 
    159 H159        0.9021  -16.5718  -43.7031 H         1 UNK         0.3000 
    160 H160        3.4480  -19.0902  -43.5650 H         1 UNK         0.0600 
    161 H161        4.4023  -17.3992  -45.1532 H         1 UNK         0.0600 
    162 H162        4.9712  -17.1420  -43.5118 H         1 UNK         0.0600 
    163 H163        3.7164  -16.0990  -44.1798 H         1 UNK         0.0600 
    164 H164        2.9675  -16.8030  -41.9449 H         1 UNK         0.3000 
    165 H165        0.1838  -17.7924  -40.1554 H         1 UNK         0.0600 
    166 H166        1.4951  -17.9229  -38.0594 H         1 UNK         0.0600 
    167 H167        1.7067  -19.3984  -38.9861 H         1 UNK         0.0600 
    168 H168        2.9830  -18.1872  -38.9706 H         1 UNK         0.0600 
    169 H169        2.0489  -15.8955  -39.3439 H         1 UNK         0.3000 
    170 H170        1.3625  -13.6667  -39.6133 H         1 UNK         0.0600 
    171 H171        3.2904  -12.6075  -40.8099 H         1 UNK         0.0600 
    172 H172        3.6111  -14.3048  -40.5065 H         1 UNK         0.0600 
    173 H173        3.1276  -13.7843  -42.1165 H         1 UNK         0.0600 
    174 H174        1.1757  -12.2256  -42.0404 H         1 UNK         0.3000 
    175 H175       -2.1414  -11.9887  -42.5923 H         1 UNK         0.0600 
    176 H176       -1.1321   -9.9418  -40.5448 H         1 UNK         0.0600 
    177 H177       -2.4481   -9.6872  -41.6923 H         1 UNK         0.0600 
    178 H178       -2.6161  -10.8782  -40.4148 H         1 UNK         0.0600 
    179 H179       -0.0720   -9.9602  -42.7479 H         1 UNK         0.3000 
    180 H180        0.3834  -10.5369  -46.1109 H         1 UNK         0.0600 
    181 H181        1.3531   -8.3806  -45.4401 H         1 UNK         0.0600 
    182 H182        1.2742   -8.8045  -43.7363 H         1 UNK         0.0600 
    183 H183       -0.2071   -8.5763  -44.6651 H         1 UNK         0.0600 
    184 H184        2.4947  -11.2006  -46.1336 H         1 UNK         0.3000 
    185 H185        4.8555  -11.0092  -45.2827 H         1 UNK         0.0600 
    186 H186        5.0651  -12.6621  -42.7172 H         1 UNK         0.0600 
    187 H187        6.3854  -12.1737  -43.7705 H         1 UNK         0.0600 
    188 H188        5.4892  -10.9625  -42.8705 H         1 UNK         0.0600 
    189 H189        4.3277  -13.8503  -44.7048 H         1 UNK         0.3000 
    190 H190       -2.1857  -20.7469  -46.5101 H         1 UNK         0.3000 
    191 H191       -4.2157  -21.7404  -48.1589 H         1 UNK         0.0600 
    192 H192       -4.3274  -21.0757  -45.1731 H         1 UNK         0.0600 
    193 H193       -5.7175  -21.2192  -46.2385 H         1 UNK         0.0600 
    194 H194       -4.5473  -19.9342  -46.4987 H         1 UNK         0.0600 
    195 H195       -2.7092  -23.3098  -45.3164 H         1 UNK         0.3000 
    196 H196       -4.3351  -25.6300  -45.2301 H         1 UNK         0.0600 
    197 H197       -2.4384  -26.5679  -43.8980 H         1 UNK         0.0600 
    198 H198       -2.8303  -24.9331  -43.3868 H         1 UNK         0.0600 
    199 H199       -1.4141  -25.2258  -44.3940 H         1 UNK         0.0600 
    200 H200       -1.7317  -24.7717  -47.4168 H         1 UNK         0.3000 
    201 H201       -1.5997  -27.4835  -48.6299 H         1 UNK         0.0600 
    202 H202        0.5449  -26.2907  -48.0922 H         1 UNK         0.0600 
    203 H203        0.0668  -24.9608  -49.1425 H         1 UNK         0.0600 
    204 H204        0.3590  -26.5594  -49.8172 H         1 UNK         0.0600 
    205 H205       -3.8257  -25.2419  -48.7595 H         1 UNK         0.3000 
    206 H206       -5.3393  -24.4386  -50.1289 H         1 UNK         0.0600 
    207 H207       -5.9957  -25.7239  -52.1275 H         1 UNK         0.0600 
    208 H208       -4.4539  -26.5692  -52.1452 H         1 UNK         0.0600 
    209 H209       -5.5923  -26.8283  -50.8257 H         1 UNK         0.0600 
    210 H210       -2.5969  -23.3075  -50.2304 H         1 UNK         0.3000 
    211 H211       -1.3197  -21.8364  -51.2326 H         1 UNK         0.0600 
    212 H212       -3.8130  -21.0803  -52.8337 H         1 UNK         0.0600 
    213 H213       -2.3468  -20.1179  -52.7379 H         1 UNK         0.0600 
    214 H214       -3.2972  -20.3983  -51.2913 H         1 UNK         0.0600 
    215 H215       -1.2104  -24.4836  -52.1273 H         1 UNK         0.3000 
    216 H216       -0.2475  -25.8350  -53.5690 H         1 UNK         0.0600 
    217 H217        1.3594  -25.0443  -55.2506 H         1 UNK         0.0600 
    218 H218        1.5879  -24.1452  -53.7593 H         1 UNK         0.0600 
    219 H219        0.7645  -23.3969  -55.1271 H         1 UNK         0.0600 
    220 H220       -2.8172  -25.6373  -53.7183 H         1 UNK         0.3000 
    221 H221       -4.6624  -26.1381  -54.8150 H         1 UNK         0.0600 
    222 H222       -2.9041  -26.8732  -57.2137 H         1 UNK         0.0600 
    223 H223       -3.2994  -27.9420  -55.8686 H         1 UNK         0.0600 
    224 H224       -4.5664  -27.3731  -56.9427 H         1 UNK         0.0600 
    225 H225       -4.3972  -23.5811  -54.5267 H         1 UNK         0.3000 
    226 H226       -5.6156  -22.3863  -56.9670 H         1 UNK         0.0600 
    227 H227       -3.2656  -21.5299  -56.7647 H         1 UNK         0.0600 
    228 H228       -4.4547  -20.2638  -56.4990 H         1 UNK         0.0600 
    229 H229       -3.6103  -20.9758  -55.1312 H         1 UNK         0.0600 
    230 H230       -6.8299  -23.7765  -54.8516 H         1 UNK         0.3000 
    231 H231       -8.6013  -23.7506  -53.5290 H         1 UNK         0.0600 
    232 H232       -9.2554  -21.0823  -54.8848 H         1 UNK         0.0600 
    233 H233       -9.5639  -22.6739  -55.5774 H         1 UNK         0.0600 
    234 H234      -10.4036  -22.1737  -54.1208 H         1 UNK         0.0600 
    235 H235       -6.2190  -22.5979  -52.3413 H         1 UNK         0.3000 
    236 H236       -5.4556  -21.6223  -50.4820 H         1 UNK         0.0600 
    237 H237       -8.3283  -21.6887  -49.4280 H         1 UNK         0.0600 
    238 H238       -7.1573  -22.9986  -49.2938 H         1 UNK         0.0600 
    239 H239       -6.8700  -21.4736  -48.4750 H         1 UNK         0.0600 
    240 H240       -5.5089  -20.0193  -52.4871 H         1 UNK         0.3000 
    241 H241       -5.1273  -17.9346  -53.0703 H         1 UNK         0.0600 
    242 H242       -8.6426  -17.9966  -54.2355 H         1 UNK         0.3800 
    243 H243       -7.3687  -19.1833  -54.0519 H         1 UNK         0.3800 
    244 H244       -5.2210  -15.9733  -51.5919 H         1 UNK         0.0800 
    245 H245       -6.0623  -16.8716  -50.3706 H         1 UNK         0.0800 
    246 H246       -2.8764  -15.7779  -51.9142 H         1 UNK         0.0800 
    247 H247       -2.5884  -17.3849  -52.5377 H         1 UNK         0.0800 
@<TRIPOS>BOND
     1    1    2 1    
     2    1  127 1    
     3    1  128 1    
     4    1  129 1    
     5    2    3 2    
     6    2    4 am   BACKBONE|DICT|INTERRES
     7    4    5 1    
     8    4  130 1    
     9    5    6 1    
    10    5   65 1    
    11    5  131 1    
    12    6    7 1    
    13    6  132 1    
    14    6  133 1    
    15    7    8 1    
    16    8    9 1    
    17    8  134 1    
    18    8  135 1    
    19    9   10 ar   
    20    9   14 ar   
    21   10   11 ar   
    22   10  136 1    
    23   11   12 ar   
    24   11  126 1    
    25   12   13 ar   
    26   12  137 1    
    27   13   14 ar   
    28   13   15 1    
    29   14  138 1    
    30   15   16 1    
    31   15  139 1    
    32   15  140 1    
    33   16   17 1    
    34   17   18 1    
    35   17  141 1    
    36   17  142 1    
    37   18   19 1    
    38   18   67 1    
    39   18  143 1    
    40   19   20 am   BACKBONE|DICT|INTERRES
    41   19  144 1    
    42   20   21 2    
    43   20   22 1    
    44   22   23 1    
    45   22   24 1    
    46   22  145 1    
    47   23  146 1    
    48   23  147 1    
    49   23  148 1    
    50   24   25 am   BACKBONE|DICT|INTERRES
    51   24  149 1    
    52   25   26 2    
    53   25   27 1    
    54   27   28 1    
    55   27   29 1    
    56   27  150 1    
    57   28  151 1    
    58   28  152 1    
    59   28  153 1    
    60   29   30 am   BACKBONE|DICT|INTERRES
    61   29  154 1    
    62   30   31 2    
    63   30   32 1    
    64   32   33 1    
    65   32   34 1    
    66   32  155 1    
    67   33  156 1    
    68   33  157 1    
    69   33  158 1    
    70   34   35 am   BACKBONE|DICT|INTERRES
    71   34  159 1    
    72   35   36 2    
    73   35   37 1    
    74   37   38 1    
    75   37   39 1    
    76   37  160 1    
    77   38  161 1    
    78   38  162 1    
    79   38  163 1    
    80   39   40 am   BACKBONE|DICT|INTERRES
    81   39  164 1    
    82   40   41 2    
    83   40   42 1    
    84   42   43 1    
    85   42   44 1    
    86   42  165 1    
    87   43  166 1    
    88   43  167 1    
    89   43  168 1    
    90   44   45 am   BACKBONE|DICT|INTERRES
    91   44  169 1    
    92   45   46 2    
    93   45   47 1    
    94   47   48 1    
    95   47   49 1    
    96   47  170 1    
    97   48  171 1    
    98   48  172 1    
    99   48  173 1    
   100   49   50 am   BACKBONE|DICT|INTERRES
   101   49  174 1    
   102   50   51 2    
   103   50   52 1    
   104   52   53 1    
   105   52   54 1    
   106   52  175 1    
   107   53  176 1    
   108   53  177 1    
   109   53  178 1    
   110   54   55 am   BACKBONE|DICT|INTERRES
   111   54  179 1    
   112   55   56 2    
   113   55   57 1    
   114   57   58 1    
   115   57   59 1    
   116   57  180 1    
   117   58  181 1    
   118   58  182 1    
   119   58  183 1    
   120   59   60 am   BACKBONE|DICT|INTERRES
   121   59  184 1    
   122   60   61 2    
   123   60   62 1    
   124   62   63 1    
   125   62   64 1    
   126   62  185 1    
   127   63  186 1    
   128   63  187 1    
   129   63  188 1    
   130   64   65 am   BACKBONE|DICT|INTERRES
   131   64  189 1    
   132   65   66 2    
   133   67   68 2    
   134   67   69 am   BACKBONE|DICT|INTERRES
   135   69   70 1    
   136   69  190 1    
   137   70   71 1    
   138   70   72 1    
   139   70  191 1    
   140   71  192 1    
   141   71  193 1    
   142   71  194 1    
   143   72   73 2    
   144   72   74 am   BACKBONE|DICT|INTERRES
   145   74   75 1    
   146   74  195 1    
   147   75   76 1    
   148   75   77 1    
   149   75  196 1    
   150   76  197 1    
   151   76  198 1    
   152   76  199 1    
   153   77   78 2    
   154   77   79 am   BACKBONE|DICT|INTERRES
   155   79   80 1    
   156   79  200 1    
   157   80   81 1    
   158   80   82 1    
   159   80  201 1    
   160   81  202 1    
   161   81  203 1    
   162   81  204 1    
   163   82   83 2    
   164   82   84 am   BACKBONE|DICT|INTERRES
   165   84   85 1    
   166   84  205 1    
   167   85   86 1    
   168   85   87 1    
   169   85  206 1    
   170   86  207 1    
   171   86  208 1    
   172   86  209 1    
   173   87   88 2    
   174   87   89 am   BACKBONE|DICT|INTERRES
   175   89   90 1    
   176   89  210 1    
   177   90   91 1    
   178   90   92 1    
   179   90  211 1    
   180   91  212 1    
   181   91  213 1    
   182   91  214 1    
   183   92   93 2    
   184   92   94 am   BACKBONE|DICT|INTERRES
   185   94   95 1    
   186   94  215 1    
   187   95   96 1    
   188   95   97 1    
   189   95  216 1    
   190   96  217 1    
   191   96  218 1    
   192   96  219 1    
   193   97   98 2    
   194   97   99 am   BACKBONE|DICT|INTERRES
   195   99  100 1    
   196   99  220 1    
   197  100  101 1    
   198  100  102 1    
   199  100  221 1    
   200  101  222 1    
   201  101  223 1    
   202  101  224 1    
   203  102  103 2    
   204  102  104 am   BACKBONE|DICT|INTERRES
   205  104  105 1    
   206  104  225 1    
   207  105  106 1    
   208  105  107 1    
   209  105  226 1    
   210  106  227 1    
   211  106  228 1    
   212  106  229 1    
   213  107  108 2    
   214  107  109 am   BACKBONE|DICT|INTERRES
   215  109  110 1    
   216  109  230 1    
   217  110  111 1    
   218  110  112 1    
   219  110  231 1    
   220  111  232 1    
   221  111  233 1    
   222  111  234 1    
   223  112  113 2    
   224  112  114 am   BACKBONE|DICT|INTERRES
   225  114  115 1    
   226  114  235 1    
   227  115  116 1    
   228  115  117 1    
   229  115  236 1    
   230  116  237 1    
   231  116  238 1    
   232  116  239 1    
   233  117  118 2    
   234  117  119 am   BACKBONE|DICT|INTERRES
   235  119  120 1    
   236  119  240 1    
   237  120  121 1    
   238  120  124 1    
   239  120  241 1    
   240  121  122 am   BACKBONE|DICT|INTERRES
   241  121  123 2    
   242  122  242 1    
   243  122  243 1    
   244  124  125 1    
   245  124  244 1    
   246  124  245 1    
   247  125  126 1    
   248  126  246 1    
   249  126  247 1    
@<TRIPOS>SUBSTRUCTURE
     1 UNK         1 GROUP             0       ****    0 ROOT    
