@<TRIPOS>MOLECULE
3R540
247   249    1
SMALL
USER_CHARGES


@<TRIPOS>ATOM
      1 CA          5.0430  -16.2219  -45.6488 C.3       0 UNK        -0.1800 
      2 C           4.0951  -15.5050  -46.5996 C.2       0 UNK         0.5000 
      3 O           3.9906  -14.2796  -46.5555 O.2       0 UNK        -0.5000 
      4 N           3.4121  -16.2711  -47.4595 N.am      1 UNK        -0.5000 
      5 CA          2.4198  -15.8090  -48.4372 C.3       1 UNK         0.1400 
      6 C6          3.0307  -14.9515  -49.5867 C.3       23 UNK        -0.0398 
      7 S7          4.2786  -15.8630  -50.5582 S.3       23 UNK        -0.2404 
      8 C8          3.2894  -16.4229  -51.9851 C.3       23 UNK        -0.0205 
      9 C9          2.1852  -17.3780  -51.5582 C.ar      23 UNK        -0.0193 
     10 C10         0.8581  -16.9449  -51.4821 C.ar      23 UNK        -0.1150 
     11 C11        -0.1489  -17.8098  -51.0392 C.ar      23 UNK        -0.0193 
     12 C12         0.1847  -19.1152  -50.6638 C.ar      23 UNK        -0.1150 
     13 C13         1.5097  -19.5565  -50.7334 C.ar      23 UNK        -0.0193 
     14 C14         2.5011  -18.6887  -51.1962 C.ar      23 UNK        -0.1150 
     15 C15         1.8850  -20.9622  -50.2927 C.3       23 UNK        -0.0205 
     16 S16         2.8245  -20.9515  -48.7291 S.3       23 UNK        -0.2404 
     17 C17         1.5450  -20.4847  -47.5127 C.3       23 UNK        -0.0398 
     18 CA          1.0017  -21.7045  -46.7305 C.3       11 UNK         0.1400 
     19 N           0.2887  -21.3066  -45.5183 N.am      11 UNK        -0.5000 
     20 C           0.0761  -22.1169  -44.4726 C.2       10 UNK         0.5000 
     21 O           0.5474  -23.2502  -44.3759 O.2       10 UNK        -0.5000 
     22 CA         -0.8463  -21.5837  -43.3614 C.3       10 UNK         0.1400 
     23 CB         -0.0269  -20.9007  -42.2582 C.3       10 UNK        -0.1800 
     24 N          -1.8765  -20.6683  -43.8656 N.am      10 UNK        -0.5000 
     25 C          -2.9040  -21.0805  -44.6238 C.2       9 UNK         0.5000 
     26 O          -3.0425  -22.2424  -45.0045 O.2       9 UNK        -0.5000 
     27 CA         -3.9429  -20.0336  -45.0560 C.3       9 UNK         0.1400 
     28 CB         -4.9171  -19.7346  -43.9073 C.3       9 UNK        -0.1800 
     29 N          -3.3874  -18.7763  -45.5487 N.am      9 UNK        -0.5000 
     30 C          -2.4840  -18.6116  -46.5215 C.2       8 UNK         0.5000 
     31 O          -1.8705  -19.5324  -47.0593 O.2       8 UNK        -0.5000 
     32 CA         -2.2116  -17.1651  -46.9662 C.3       8 UNK         0.1400 
     33 CB         -3.3836  -16.6028  -47.7921 C.3       8 UNK        -0.1800 
     34 N          -1.8400  -16.2813  -45.8586 N.am      8 UNK        -0.5000 
     35 C          -2.5711  -15.8758  -44.8100 C.2       7 UNK         0.5000 
     36 O          -3.7761  -16.1033  -44.6842 O.2       7 UNK        -0.5000 
     37 CA         -1.7985  -15.1472  -43.6912 C.3       7 UNK         0.1400 
     38 CB         -2.5610  -15.1235  -42.3510 C.3       7 UNK        -0.1800 
     39 N          -0.4427  -15.6728  -43.4922 N.am      7 UNK        -0.5000 
     40 C          -0.0876  -16.9366  -43.2099 C.2       6 UNK         0.5000 
     41 O          -0.8929  -17.8647  -43.1091 O.2       6 UNK        -0.5000 
     42 CA          1.4096  -17.2323  -43.0066 C.3       6 UNK         0.1400 
     43 CB          2.0128  -17.9179  -44.2435 C.3       6 UNK        -0.1800 
     44 N           2.1977  -16.0463  -42.6530 N.am      6 UNK        -0.5000 
     45 C           3.2172  -16.0534  -41.7807 C.2       5 UNK         0.5000 
     46 O           3.6461  -17.0759  -41.2440 O.2       5 UNK        -0.5000 
     47 CA          3.8706  -14.6996  -41.4228 C.3       5 UNK         0.1400 
     48 CB          5.1329  -14.4647  -42.2668 C.3       5 UNK        -0.1800 
     49 N           2.9809  -13.5505  -41.5846 N.am      5 UNK        -0.5000 
     50 C           1.8486  -13.3373  -40.9018 C.2       4 UNK         0.5000 
     51 O           1.4926  -14.0266  -39.9455 O.2       4 UNK        -0.5000 
     52 CA          0.9405  -12.1806  -41.3766 C.3       4 UNK         0.1400 
     53 CB          0.9694  -11.0275  -40.3611 C.3       4 UNK        -0.1800 
     54 N           1.2213  -11.6329  -42.7131 N.am      4 UNK        -0.5000 
     55 C           1.2638  -12.3146  -43.8658 C.2       3 UNK         0.5000 
     56 O           1.2144  -13.5448  -43.9332 O.2       3 UNK        -0.5000 
     57 CA          1.4304  -11.4797  -45.1481 C.3       3 UNK         0.1400 
     58 CB          2.8983  -11.0680  -45.3372 C.3       3 UNK        -0.1800 
     59 N           0.9863  -12.2181  -46.3302 N.am      3 UNK        -0.5000 
     60 C          -0.2908  -12.5179  -46.6072 C.2       2 UNK         0.5000 
     61 O          -1.2436  -12.1179  -45.9369 O.2       2 UNK        -0.5000 
     62 CA         -0.5638  -13.4080  -47.8367 C.3       2 UNK         0.1400 
     63 CB         -1.1678  -12.5838  -48.9837 C.3       2 UNK        -0.1800 
     64 N           0.6181  -14.1126  -48.3384 N.am      2 UNK        -0.5000 
     65 C           1.1990  -15.1610  -47.7387 C.2       1 UNK         0.5000 
     66 O           0.7812  -15.6417  -46.6833 O.2       1 UNK        -0.5000 
     67 C           0.0896  -22.5825  -47.6050 C.2       11 UNK         0.5000 
     68 O           0.4983  -23.6655  -48.0224 O.2       11 UNK        -0.5000 
     69 N          -1.1388  -22.1073  -47.8504 N.am      12 UNK        -0.5000 
     70 CA         -2.1263  -22.7477  -48.7133 C.3       12 UNK         0.1400 
     71 CB         -3.3468  -21.8330  -48.8658 C.3       12 UNK        -0.1800 
     72 C          -2.5469  -24.1501  -48.2487 C.2       12 UNK         0.5000 
     73 O          -2.7430  -25.0188  -49.0960 O.2       12 UNK        -0.5000 
     74 N          -2.6322  -24.3645  -46.9292 N.am      13 UNK        -0.5000 
     75 CA         -2.9073  -25.6672  -46.3207 C.3       13 UNK         0.1400 
     76 CB         -3.1406  -25.4862  -44.8133 C.3       13 UNK        -0.1800 
     77 C          -1.7937  -26.7028  -46.5705 C.2       13 UNK         0.5000 
     78 O          -2.0954  -27.8851  -46.7348 O.2       13 UNK        -0.5000 
     79 N          -0.5351  -26.2444  -46.6071 N.am      14 UNK        -0.5000 
     80 CA          0.6347  -27.0737  -46.8955 C.3       14 UNK         0.1400 
     81 CB          1.8874  -26.4138  -46.2978 C.3       14 UNK        -0.1800 
     82 C           0.8056  -27.3097  -48.4063 C.2       14 UNK         0.5000 
     83 O           1.1116  -28.4288  -48.8190 O.2       14 UNK        -0.5000 
     84 N           0.5961  -26.2526  -49.2018 N.am      15 UNK        -0.5000 
     85 CA          0.7169  -26.2588  -50.6605 C.3       15 UNK         0.1400 
     86 CB          0.8367  -24.8043  -51.1446 C.3       15 UNK        -0.1800 
     87 C          -0.4483  -26.9645  -51.3830 C.2       15 UNK         0.5000 
     88 O          -0.2950  -27.3202  -52.5520 O.2       15 UNK        -0.5000 
     89 N          -1.5873  -27.1224  -50.6917 N.am      16 UNK        -0.5000 
     90 CA         -2.8914  -27.5632  -51.2016 C.3       16 UNK         0.1400 
     91 CB         -2.8387  -29.0203  -51.7066 C.3       16 UNK        -0.1800 
     92 C          -3.4571  -26.5668  -52.2369 C.2       16 UNK         0.5000 
     93 O          -3.9481  -26.9684  -53.2940 O.2       16 UNK        -0.5000 
     94 N          -3.3433  -25.2743  -51.9103 N.am      17 UNK        -0.5000 
     95 CA         -3.7623  -24.1470  -52.7383 C.3       17 UNK         0.1400 
     96 CB         -2.7048  -23.0396  -52.6195 C.3       17 UNK        -0.1800 
     97 C          -5.1426  -23.6274  -52.3008 C.2       17 UNK         0.5000 
     98 O          -5.6126  -23.9452  -51.2051 O.2       17 UNK        -0.5000 
     99 N          -5.7606  -22.8053  -53.1575 N.am      18 UNK        -0.5000 
    100 CA        -7.1044  -22.2417  -52.9915 C.3       18 UNK         0.1400 
    101 CB        -7.6537  -21.8699  -54.3812 C.3       18 UNK        -0.1800 
    102 C         -7.1634  -21.0602  -51.9960 C.2       18 UNK         0.5000 
    103 O         -7.6894  -19.9968  -52.3306 O.2       18 UNK        -0.5000 
    104 N         -6.6293  -21.2683  -50.7850 N.am      19 UNK        -0.5000 
    105 CA        -6.6233  -20.3427  -49.6471 C.3       19 UNK         0.1400 
    106 CB        -8.0262  -20.3046  -49.0002 C.3       19 UNK        -0.1800 
    107 C         -6.0605  -18.9527  -50.0203 C.2       19 UNK         0.5000 
    108 O         -4.9380  -18.8717  -50.5207 O.2       19 UNK        -0.5000 
    109 N         -6.8533  -17.8950  -49.8024 N.am      20 UNK        -0.5000 
    110 CA        -6.5210  -16.4970  -50.0827 C.3       20 UNK         0.1400 
    111 CB        -7.6011  -15.6007  -49.4577 C.3       20 UNK        -0.1800 
    112 C         -6.3356  -16.1606  -51.5762 C.2       20 UNK         0.5000 
    113 O         -5.7330  -15.1303  -51.8788 O.2       20 UNK        -0.5000 
    114 N         -6.8385  -17.0127  -52.4827 N.am      21 UNK        -0.5000 
    115 CA        -6.6090  -16.8862  -53.9247 C.3       21 UNK         0.1400 
    116 CB        -7.7397  -17.5912  -54.6906 C.3       21 UNK        -0.1800 
    117 C         -5.2319  -17.4344  -54.3507 C.2       21 UNK         0.5000 
    118 O         -4.7823  -17.1279  -55.4552 O.2       21 UNK        -0.5000 
    119 N         -4.5927  -18.2283  -53.4784 N.am      22 UNK        -0.5000 
    120 CA        -3.2451  -18.8049  -53.6310 C.3       22 UNK         0.1400 
    121 C         -3.1018  -19.8588  -54.7721 C.2       22 UNK         0.5000 
    122 N         -4.1849  -20.3688  -55.3467 N.am      22 UNK        -0.7600 
    123 O         -1.9926  -20.2497  -55.1240 O.2       22 UNK        -0.5000 
    124 C124       -2.1144  -17.7367  -53.6831 C.3       23 UNK        -0.0398 
    125 S125       -2.2170  -16.4557  -52.3830 S.3       23 UNK        -0.2404 
    126 C126       -1.5893  -17.3296  -50.9118 C.3       23 UNK        -0.0205 
    127 H127        5.2686  -17.2320  -45.9915 H         1 UNK         0.0600 
    128 H128        4.5964  -16.2913  -44.6579 H         1 UNK         0.0600 
    129 H129        5.9822  -15.6750  -45.5654 H         1 UNK         0.0600 
    130 H130        3.5469  -17.2709  -47.4333 H         1 UNK         0.3000 
    131 H131        2.0196  -16.7207  -48.8794 H         1 UNK         0.0600 
    132 H132        2.2649  -14.6091  -50.2830 H         1 UNK         0.0800 
    133 H133        3.5002  -14.0509  -49.1884 H         1 UNK         0.0800 
    134 H134        2.8767  -15.5588  -52.5081 H         1 UNK         0.0800 
    135 H135        3.9464  -16.9249  -52.6968 H         1 UNK         0.0800 
    136 H136        0.6085  -15.9286  -51.7526 H         1 UNK         0.1150 
    137 H137       -0.5839  -19.7832  -50.2999 H         1 UNK         0.1150 
    138 H138        3.5284  -19.0233  -51.2392 H         1 UNK         0.1150 
    139 H139        0.9997  -21.5912  -50.1940 H         1 UNK         0.0800 
    140 H140        2.4988  -21.4253  -51.0665 H         1 UNK         0.0800 
    141 H141        2.0183  -19.7901  -46.8180 H         1 UNK         0.0800 
    142 H142        0.7428  -19.9198  -47.9891 H         1 UNK         0.0800 
    143 H143        1.8566  -22.3145  -46.4288 H         1 UNK         0.0600 
    144 H144       -0.1983  -20.4217  -45.5440 H         1 UNK         0.3000 
    145 H145       -1.3527  -22.4424  -42.9148 H         1 UNK         0.0600 
    146 H146       -0.6702  -20.4850  -41.4825 H         1 UNK         0.0600 
    147 H147        0.6459  -21.6126  -41.7785 H         1 UNK         0.0600 
    148 H148        0.5865  -20.0949  -42.6566 H         1 UNK         0.0600 
    149 H149       -1.7922  -19.6886  -43.6121 H         1 UNK         0.3000 
    150 H150       -4.5170  -20.4679  -45.8763 H         1 UNK         0.0600 
    151 H151       -5.3639  -20.6522  -43.5220 H         1 UNK         0.0600 
    152 H152       -5.7323  -19.0914  -44.2393 H         1 UNK         0.0600 
    153 H153       -4.4159  -19.2367  -43.0760 H         1 UNK         0.0600 
    154 H154       -3.7731  -17.9257  -45.1470 H         1 UNK         0.3000 
    155 H155       -1.3395  -17.2017  -47.6204 H         1 UNK         0.0600 
    156 H156       -3.1541  -15.6135  -48.1868 H         1 UNK         0.0600 
    157 H157       -4.3033  -16.5272  -47.2123 H         1 UNK         0.0600 
    158 H158       -3.5954  -17.2516  -48.6422 H         1 UNK         0.0600 
    159 H159       -0.8505  -16.0402  -45.8519 H         1 UNK         0.3000 
    160 H160       -1.6817  -14.1154  -44.0240 H         1 UNK         0.0600 
    161 H161       -2.7575  -16.1304  -41.9810 H         1 UNK         0.0600 
    162 H162       -3.5221  -14.6187  -42.4553 H         1 UNK         0.0600 
    163 H163       -1.9962  -14.5896  -41.5867 H         1 UNK         0.0600 
    164 H164        0.2862  -14.9787  -43.6453 H         1 UNK         0.3000 
    165 H165        1.4494  -17.9393  -42.1758 H         1 UNK         0.0600 
    166 H166        2.0653  -17.2352  -45.0891 H         1 UNK         0.0600 
    167 H167        3.0205  -18.2807  -44.0415 H         1 UNK         0.0600 
    168 H168        1.4147  -18.7750  -44.5519 H         1 UNK         0.0600 
    169 H169        1.9162  -15.1618  -43.0629 H         1 UNK         0.3000 
    170 H170        4.1655  -14.7499  -40.3727 H         1 UNK         0.0600 
    171 H171        5.8087  -15.3194  -42.2133 H         1 UNK         0.0600 
    172 H172        4.8889  -14.3006  -43.3169 H         1 UNK         0.0600 
    173 H173        5.6846  -13.5935  -41.9134 H         1 UNK         0.0600 
    174 H174        3.1793  -12.9358  -42.3597 H         1 UNK         0.3000 
    175 H175       -0.0752  -12.5798  -41.4063 H         1 UNK         0.0600 
    176 H176        1.9534  -10.5591  -40.3152 H         1 UNK         0.0600 
    177 H177        0.2410  -10.2573  -40.6155 H         1 UNK         0.0600 
    178 H178        0.7266  -11.3797  -39.3575 H         1 UNK         0.0600 
    179 H179        1.3093  -10.6277  -42.7553 H         1 UNK         0.3000 
    180 H180        0.8213  -10.5779  -45.0574 H         1 UNK         0.0600 
    181 H181        3.5567  -11.9352  -45.3906 H         1 UNK         0.0600 
    182 H182        3.2428  -10.4480  -44.5088 H         1 UNK         0.0600 
    183 H183        3.0319  -10.4888  -46.2510 H         1 UNK         0.0600 
    184 H184        1.7107  -12.6466  -46.8874 H         1 UNK         0.3000 
    185 H185       -1.3036  -14.1505  -47.5360 H         1 UNK         0.0600 
    186 H186       -1.4402  -13.2206  -49.8260 H         1 UNK         0.0600 
    187 H187       -2.0748  -12.0704  -48.6616 H         1 UNK         0.0600 
    188 H188       -0.4719  -11.8255  -49.3446 H         1 UNK         0.0600 
    189 H189        1.0048  -13.7605  -49.2011 H         1 UNK         0.3000 
    190 H190       -1.4024  -21.1991  -47.4710 H         1 UNK         0.3000 
    191 H191       -1.6591  -22.8609  -49.6917 H         1 UNK         0.0600 
    192 H192       -3.0731  -20.8750  -49.3091 H         1 UNK         0.0600 
    193 H193       -4.0952  -22.2895  -49.5134 H         1 UNK         0.0600 
    194 H194       -3.8184  -21.6360  -47.9032 H         1 UNK         0.0600 
    195 H195       -2.5274  -23.5782  -46.2934 H         1 UNK         0.3000 
    196 H196       -3.8260  -26.0572  -46.7639 H         1 UNK         0.0600 
    197 H197       -3.3409  -26.4427  -44.3288 H         1 UNK         0.0600 
    198 H198       -3.9982  -24.8408  -44.6231 H         1 UNK         0.0600 
    199 H199       -2.2727  -25.0425  -44.3233 H         1 UNK         0.0600 
    200 H200       -0.3734  -25.2517  -46.5031 H         1 UNK         0.3000 
    201 H201        0.5075  -28.0462  -46.4150 H         1 UNK         0.0600 
    202 H202        1.7871  -26.2841  -45.2200 H         1 UNK         0.0600 
    203 H203        2.0791  -25.4331  -46.7341 H         1 UNK         0.0600 
    204 H204        2.7716  -27.0283  -46.4714 H         1 UNK         0.0600 
    205 H205        0.4112  -25.3506  -48.7680 H         1 UNK         0.3000 
    206 H206        1.6359  -26.7847  -50.9273 H         1 UNK         0.0600 
    207 H207        1.6926  -24.3054  -50.6895 H         1 UNK         0.0600 
    208 H208        0.9705  -24.7590  -52.2261 H         1 UNK         0.0600 
    209 H209       -0.0551  -24.2271  -50.8997 H         1 UNK         0.0600 
    210 H210       -1.6141  -26.7223  -49.7620 H         1 UNK         0.3000 
    211 H211       -3.5735  -27.5369  -50.3505 H         1 UNK         0.0600 
    212 H212       -2.2300  -29.1210  -52.6053 H         1 UNK         0.0600 
    213 H213       -3.8383  -29.3823  -51.9497 H         1 UNK         0.0600 
    214 H214       -2.4284  -29.6853  -50.9467 H         1 UNK         0.0600 
    215 H215       -3.0333  -25.0561  -50.9675 H         1 UNK         0.3000 
    216 H216       -3.8216  -24.4586  -53.7832 H         1 UNK         0.0600 
    217 H217       -2.8632  -22.2796  -53.3806 H         1 UNK         0.0600 
    218 H218       -1.6971  -23.4299  -52.7635 H         1 UNK         0.0600 
    219 H219       -2.7418  -22.5398  -51.6536 H         1 UNK         0.0600 
    220 H220       -5.2844  -22.5561  -54.0123 H         1 UNK         0.3000 
    221 H221       -7.7530  -23.0203  -52.5846 H         1 UNK         0.0600 
    222 H222       -7.0569  -21.0921  -54.8570 H         1 UNK         0.0600 
    223 H223       -7.6672  -22.7350  -55.0443 H         1 UNK         0.0600 
    224 H224       -8.6784  -21.5022  -54.3134 H         1 UNK         0.0600 
    225 H225       -6.2043  -22.1772  -50.6278 H         1 UNK         0.3000 
    226 H226       -5.9386  -20.7557  -48.9075 H         1 UNK         0.0600 
    227 H227       -8.3433  -21.3055  -48.7072 H         1 UNK         0.0600 
    228 H228       -8.0316  -19.6949  -48.0957 H         1 UNK         0.0600 
    229 H229       -8.7820  -19.9092  -49.6802 H         1 UNK         0.0600 
    230 H230       -7.7722  -18.0637  -49.4199 H         1 UNK         0.3000 
    231 H231       -5.5732  -16.2752  -49.5913 H         1 UNK         0.0600 
    232 H232       -7.3731  -14.5452  -49.6129 H         1 UNK         0.0600 
    233 H233       -7.6722  -15.7597  -48.3815 H         1 UNK         0.0600 
    234 H234       -8.5828  -15.7919  -49.8929 H         1 UNK         0.0600 
    235 H235       -7.3048  -17.8575  -52.1710 H         1 UNK         0.3000 
    236 H236       -6.6376  -15.8287  -54.1960 H         1 UNK         0.0600 
    237 H237       -8.7176  -17.2216  -54.3820 H         1 UNK         0.0600 
    238 H238       -7.6495  -17.4143  -55.7630 H         1 UNK         0.0600 
    239 H239       -7.7245  -18.6695  -54.5393 H         1 UNK         0.0600 
    240 H240       -5.0255  -18.4008  -52.5786 H         1 UNK         0.3000 
    241 H241       -3.0899  -19.3807  -52.7182 H         1 UNK         0.0600 
    242 H242       -5.0952  -20.0100  -55.1128 H         1 UNK         0.3800 
    243 H243       -4.0762  -21.0299  -56.0995 H         1 UNK         0.3800 
    244 H244       -2.1329  -17.2244  -54.6460 H         1 UNK         0.0800 
    245 H245       -1.1351  -18.2139  -53.6216 H         1 UNK         0.0800 
    246 H246       -1.6409  -16.6436  -50.0670 H         1 UNK         0.0800 
    247 H247       -2.2599  -18.1587  -50.6808 H         1 UNK         0.0800 
@<TRIPOS>BOND
     1    1    2 1    
     2    1  127 1    
     3    1  128 1    
     4    1  129 1    
     5    2    3 2    
     6    2    4 am   BACKBONE|DICT|INTERRES
     7    4    5 1    
     8    4  130 1    
     9    5    6 1    
    10    5   65 1    
    11    5  131 1    
    12    6    7 1    
    13    6  132 1    
    14    6  133 1    
    15    7    8 1    
    16    8    9 1    
    17    8  134 1    
    18    8  135 1    
    19    9   10 ar   
    20    9   14 ar   
    21   10   11 ar   
    22   10  136 1    
    23   11   12 ar   
    24   11  126 1    
    25   12   13 ar   
    26   12  137 1    
    27   13   14 ar   
    28   13   15 1    
    29   14  138 1    
    30   15   16 1    
    31   15  139 1    
    32   15  140 1    
    33   16   17 1    
    34   17   18 1    
    35   17  141 1    
    36   17  142 1    
    37   18   19 1    
    38   18   67 1    
    39   18  143 1    
    40   19   20 am   BACKBONE|DICT|INTERRES
    41   19  144 1    
    42   20   21 2    
    43   20   22 1    
    44   22   23 1    
    45   22   24 1    
    46   22  145 1    
    47   23  146 1    
    48   23  147 1    
    49   23  148 1    
    50   24   25 am   BACKBONE|DICT|INTERRES
    51   24  149 1    
    52   25   26 2    
    53   25   27 1    
    54   27   28 1    
    55   27   29 1    
    56   27  150 1    
    57   28  151 1    
    58   28  152 1    
    59   28  153 1    
    60   29   30 am   BACKBONE|DICT|INTERRES
    61   29  154 1    
    62   30   31 2    
    63   30   32 1    
    64   32   33 1    
    65   32   34 1    
    66   32  155 1    
    67   33  156 1    
    68   33  157 1    
    69   33  158 1    
    70   34   35 am   BACKBONE|DICT|INTERRES
    71   34  159 1    
    72   35   36 2    
    73   35   37 1    
    74   37   38 1    
    75   37   39 1    
    76   37  160 1    
    77   38  161 1    
    78   38  162 1    
    79   38  163 1    
    80   39   40 am   BACKBONE|DICT|INTERRES
    81   39  164 1    
    82   40   41 2    
    83   40   42 1    
    84   42   43 1    
    85   42   44 1    
    86   42  165 1    
    87   43  166 1    
    88   43  167 1    
    89   43  168 1    
    90   44   45 am   BACKBONE|DICT|INTERRES
    91   44  169 1    
    92   45   46 2    
    93   45   47 1    
    94   47   48 1    
    95   47   49 1    
    96   47  170 1    
    97   48  171 1    
    98   48  172 1    
    99   48  173 1    
   100   49   50 am   BACKBONE|DICT|INTERRES
   101   49  174 1    
   102   50   51 2    
   103   50   52 1    
   104   52   53 1    
   105   52   54 1    
   106   52  175 1    
   107   53  176 1    
   108   53  177 1    
   109   53  178 1    
   110   54   55 am   BACKBONE|DICT|INTERRES
   111   54  179 1    
   112   55   56 2    
   113   55   57 1    
   114   57   58 1    
   115   57   59 1    
   116   57  180 1    
   117   58  181 1    
   118   58  182 1    
   119   58  183 1    
   120   59   60 am   BACKBONE|DICT|INTERRES
   121   59  184 1    
   122   60   61 2    
   123   60   62 1    
   124   62   63 1    
   125   62   64 1    
   126   62  185 1    
   127   63  186 1    
   128   63  187 1    
   129   63  188 1    
   130   64   65 am   BACKBONE|DICT|INTERRES
   131   64  189 1    
   132   65   66 2    
   133   67   68 2    
   134   67   69 am   BACKBONE|DICT|INTERRES
   135   69   70 1    
   136   69  190 1    
   137   70   71 1    
   138   70   72 1    
   139   70  191 1    
   140   71  192 1    
   141   71  193 1    
   142   71  194 1    
   143   72   73 2    
   144   72   74 am   BACKBONE|DICT|INTERRES
   145   74   75 1    
   146   74  195 1    
   147   75   76 1    
   148   75   77 1    
   149   75  196 1    
   150   76  197 1    
   151   76  198 1    
   152   76  199 1    
   153   77   78 2    
   154   77   79 am   BACKBONE|DICT|INTERRES
   155   79   80 1    
   156   79  200 1    
   157   80   81 1    
   158   80   82 1    
   159   80  201 1    
   160   81  202 1    
   161   81  203 1    
   162   81  204 1    
   163   82   83 2    
   164   82   84 am   BACKBONE|DICT|INTERRES
   165   84   85 1    
   166   84  205 1    
   167   85   86 1    
   168   85   87 1    
   169   85  206 1    
   170   86  207 1    
   171   86  208 1    
   172   86  209 1    
   173   87   88 2    
   174   87   89 am   BACKBONE|DICT|INTERRES
   175   89   90 1    
   176   89  210 1    
   177   90   91 1    
   178   90   92 1    
   179   90  211 1    
   180   91  212 1    
   181   91  213 1    
   182   91  214 1    
   183   92   93 2    
   184   92   94 am   BACKBONE|DICT|INTERRES
   185   94   95 1    
   186   94  215 1    
   187   95   96 1    
   188   95   97 1    
   189   95  216 1    
   190   96  217 1    
   191   96  218 1    
   192   96  219 1    
   193   97   98 2    
   194   97   99 am   BACKBONE|DICT|INTERRES
   195   99  100 1    
   196   99  220 1    
   197  100  101 1    
   198  100  102 1    
   199  100  221 1    
   200  101  222 1    
   201  101  223 1    
   202  101  224 1    
   203  102  103 2    
   204  102  104 am   BACKBONE|DICT|INTERRES
   205  104  105 1    
   206  104  225 1    
   207  105  106 1    
   208  105  107 1    
   209  105  226 1    
   210  106  227 1    
   211  106  228 1    
   212  106  229 1    
   213  107  108 2    
   214  107  109 am   BACKBONE|DICT|INTERRES
   215  109  110 1    
   216  109  230 1    
   217  110  111 1    
   218  110  112 1    
   219  110  231 1    
   220  111  232 1    
   221  111  233 1    
   222  111  234 1    
   223  112  113 2    
   224  112  114 am   BACKBONE|DICT|INTERRES
   225  114  115 1    
   226  114  235 1    
   227  115  116 1    
   228  115  117 1    
   229  115  236 1    
   230  116  237 1    
   231  116  238 1    
   232  116  239 1    
   233  117  118 2    
   234  117  119 am   BACKBONE|DICT|INTERRES
   235  119  120 1    
   236  119  240 1    
   237  120  121 1    
   238  120  124 1    
   239  120  241 1    
   240  121  122 am   BACKBONE|DICT|INTERRES
   241  121  123 2    
   242  122  242 1    
   243  122  243 1    
   244  124  125 1    
   245  124  244 1    
   246  124  245 1    
   247  125  126 1    
   248  126  246 1    
   249  126  247 1    
@<TRIPOS>SUBSTRUCTURE
     1 UNK         1 GROUP             0       ****    0 ROOT    
