@<TRIPOS>MOLECULE
3R540
247   249    1
SMALL
USER_CHARGES


@<TRIPOS>ATOM
      1 CA         -1.4803   -8.8434  -45.2246 C.3       0 UNK        -0.1800 
      2 C          -0.8948   -9.6068  -46.4041 C.2       0 UNK         0.5000 
      3 O          -0.3115   -8.9968  -47.3001 O.2       0 UNK        -0.5000 
      4 N          -1.0489  -10.9378  -46.4054 N.am      1 UNK        -0.5000 
      5 CA         -0.5233  -11.8505  -47.4313 C.3       1 UNK         0.1400 
      6 C6         -1.1475  -13.2616  -47.2834 C.3       23 UNK        -0.0398 
      7 S7         -1.1734  -14.2121  -48.8417 S.3       23 UNK        -0.2404 
      8 C8         -2.8834  -14.8298  -48.8265 C.3       23 UNK        -0.0205 
      9 C9         -3.1572  -15.7902  -49.9728 C.ar      23 UNK        -0.0193 
     10 C10        -3.9490  -15.3950  -51.0550 C.ar      23 UNK        -0.1150 
     11 C11        -4.2556  -16.2986  -52.0770 C.ar      23 UNK        -0.0193 
     12 C12        -3.7634  -17.6045  -52.0119 C.ar      23 UNK        -0.1150 
     13 C13        -2.9628  -18.0087  -50.9396 C.ar      23 UNK        -0.0193 
     14 C14        -2.6552  -17.0937  -49.9278 C.ar      23 UNK        -0.1150 
     15 C15        -2.4448  -19.4368  -50.8772 C.3       23 UNK        -0.0205 
     16 S16        -3.5352  -20.4883  -49.8715 S.3       23 UNK        -0.2404 
     17 C17        -2.8585  -20.2315  -48.1989 C.3       23 UNK        -0.0398 
     18 CA         -2.2402  -21.5256  -47.6141 C.3       11 UNK         0.1400 
     19 N          -1.0776  -21.2568  -46.7620 N.am      11 UNK        -0.5000 
     20 C          -0.2772  -22.1987  -46.2410 C.2       10 UNK         0.5000 
     21 O          -0.4047  -23.4014  -46.4619 O.2       10 UNK        -0.5000 
     22 CA          0.8161  -21.7273  -45.2659 C.3       10 UNK         0.1400 
     23 CB          2.0423  -21.2081  -46.0304 C.3       10 UNK        -0.1800 
     24 N           0.3347  -20.7017  -44.3401 N.am      10 UNK        -0.5000 
     25 C          -0.6391  -20.8911  -43.4375 C.2       9 UNK         0.5000 
     26 O          -1.1849  -21.9770  -43.2388 O.2       9 UNK        -0.5000 
     27 CA         -1.1306  -19.6448  -42.6777 C.3       9 UNK         0.1400 
     28 CB         -0.1898  -19.2970  -41.5149 C.3       9 UNK        -0.1800 
     29 N          -1.2797  -18.4817  -43.5537 N.am      9 UNK        -0.5000 
     30 C          -2.1285  -18.4109  -44.5896 C.2       8 UNK         0.5000 
     31 O          -2.9244  -19.3011  -44.8876 O.2       8 UNK        -0.5000 
     32 CA         -2.0279  -17.1593  -45.4762 C.3       8 UNK         0.1400 
     33 CB         -2.8044  -15.9866  -44.8591 C.3       8 UNK        -0.1800 
     34 N          -0.6329  -16.7775  -45.7027 N.am      8 UNK        -0.5000 
     35 C           0.2061  -17.4599  -46.4959 C.2       7 UNK         0.5000 
     36 O          -0.1290  -18.4470  -47.1478 O.2       7 UNK        -0.5000 
     37 CA          1.6738  -16.9994  -46.5376 C.3       7 UNK         0.1400 
     38 CB          1.8877  -15.9467  -47.6328 C.3       7 UNK        -0.1800 
     39 N           2.1452  -16.4785  -45.2544 N.am      7 UNK        -0.5000 
     40 C           2.3457  -17.2347  -44.1670 C.2       6 UNK         0.5000 
     41 O           2.1659  -18.4516  -44.1413 O.2       6 UNK        -0.5000 
     42 CA          2.7725  -16.5025  -42.8814 C.3       6 UNK         0.1400 
     43 CB          4.2958  -16.3131  -42.8514 C.3       6 UNK        -0.1800 
     44 N           2.1191  -15.2049  -42.6806 N.am      6 UNK        -0.5000 
     45 C           0.7920  -15.0117  -42.6094 C.2       5 UNK         0.5000 
     46 O          -0.0312  -15.9057  -42.8135 O.2       5 UNK        -0.5000 
     47 CA          0.3055  -13.5835  -42.2777 C.3       5 UNK         0.1400 
     48 CB         -1.1068  -13.5581  -41.6585 C.3       5 UNK        -0.1800 
     49 N           1.2523  -12.8221  -41.4560 N.am      5 UNK        -0.5000 
     50 C           1.6905  -13.1219  -40.2211 C.2       4 UNK         0.5000 
     51 O           1.2681  -14.0723  -39.5610 O.2       4 UNK        -0.5000 
     52 CA          2.7950  -12.2144  -39.6264 C.3       4 UNK         0.1400 
     53 CB          3.7795  -13.0004  -38.7349 C.3       4 UNK        -0.1800 
     54 N           3.5280  -11.4224  -40.6255 N.am      4 UNK        -0.5000 
     55 C           4.2449  -11.8899  -41.6572 C.2       3 UNK         0.5000 
     56 O           4.4143  -13.0875  -41.8987 O.2       3 UNK        -0.5000 
     57 CA          4.8043  -10.8338  -42.6292 C.3       3 UNK         0.1400 
     58 CB          6.3335  -10.7455  -42.5149 C.3       3 UNK        -0.1800 
     59 N           4.4389  -11.1352  -44.0154 N.am      3 UNK        -0.5000 
     60 C           3.1855  -11.2884  -44.4624 C.2       2 UNK         0.5000 
     61 O           2.1805  -11.1029  -43.7660 O.2       2 UNK        -0.5000 
     62 CA          3.0279  -11.7624  -45.9153 C.3       2 UNK         0.1400 
     63 CB          3.6592  -13.1542  -46.1155 C.3       2 UNK        -0.1800 
     64 N           1.6014  -11.7993  -46.2143 N.am      2 UNK        -0.5000 
     65 C           1.0227  -11.9130  -47.4148 C.2       1 UNK         0.5000 
     66 O           1.6475  -12.0385  -48.4685 O.2       1 UNK        -0.5000 
     67 C          -3.3049  -22.3712  -46.8882 C.2       11 UNK         0.5000 
     68 O          -3.7951  -23.3464  -47.4558 O.2       11 UNK        -0.5000 
     69 N          -3.6092  -22.0098  -45.6336 N.am      12 UNK        -0.5000 
     70 CA         -4.5336  -22.7328  -44.7607 C.3       12 UNK         0.1400 
     71 CB         -4.7669  -21.9281  -43.4734 C.3       12 UNK        -0.1800 
     72 C          -4.0558  -24.1619  -44.4454 C.2       12 UNK         0.5000 
     73 O          -4.8508  -25.0974  -44.5386 O.2       12 UNK        -0.5000 
     74 N          -2.7598  -24.3153  -44.1359 N.am      13 UNK        -0.5000 
     75 CA         -2.1045  -25.6074  -43.9077 C.3       13 UNK         0.1400 
     76 CB         -0.6766  -25.3703  -43.3938 C.3       13 UNK        -0.1800 
     77 C          -2.0923  -26.5094  -45.1590 C.2       13 UNK         0.5000 
     78 O          -2.2519  -27.7243  -45.0393 O.2       13 UNK        -0.5000 
     79 N          -1.9432  -25.8910  -46.3367 N.am      14 UNK        -0.5000 
     80 CA         -2.0068  -26.5248  -47.6545 C.3       14 UNK         0.1400 
     81 CB         -1.2789  -25.6112  -48.6526 C.3       14 UNK        -0.1800 
     82 C          -3.4442  -26.8112  -48.1412 C.2       14 UNK         0.5000 
     83 O          -3.6044  -27.3681  -49.2289 O.2       14 UNK        -0.5000 
     84 N          -4.4593  -26.3947  -47.3662 N.am      15 UNK        -0.5000 
     85 CA         -5.8950  -26.4632  -47.6662 C.3       15 UNK         0.1400 
     86 CB         -6.3828  -27.9264  -47.6519 C.3       15 UNK        -0.1800 
     87 C          -6.2679  -25.7173  -48.9662 C.2       15 UNK         0.5000 
     88 O          -7.1488  -26.1586  -49.7071 O.2       15 UNK        -0.5000 
     89 N          -5.5517  -24.6157  -49.2314 N.am      16 UNK        -0.5000 
     90 CA         -5.5512  -23.7516  -50.4137 C.3       16 UNK         0.1400 
     91 CB         -6.9137  -23.0652  -50.6157 C.3       16 UNK        -0.1800 
     92 C          -5.0655  -24.4321  -51.7066 C.2       16 UNK         0.5000 
     93 O          -4.2095  -23.8753  -52.3952 O.2       16 UNK        -0.5000 
     94 N          -5.6119  -25.6141  -52.0114 N.am      17 UNK        -0.5000 
     95 CA         -5.4313  -26.3616  -53.2549 C.3       17 UNK         0.1400 
     96 CB         -6.3309  -27.6063  -53.2220 C.3       17 UNK        -0.1800 
     97 C          -3.9776  -26.7571  -53.5661 C.2       17 UNK         0.5000 
     98 O          -3.5871  -26.7213  -54.7334 O.2       17 UNK        -0.5000 
     99 N          -3.2009  -27.1201  -52.5351 N.am      18 UNK        -0.5000 
    100 CA        -1.7944  -27.5025  -52.6912 C.3       18 UNK         0.1400 
    101 CB        -1.4016  -28.4980  -51.5879 C.3       18 UNK        -0.1800 
    102 C         -0.8390  -26.2925  -52.7305 C.2       18 UNK         0.5000 
    103 O          0.3153  -26.4611  -53.1258 O.2       18 UNK        -0.5000 
    104 N         -1.3193  -25.1051  -52.3331 N.am      19 UNK        -0.5000 
    105 CA        -0.5777  -23.8483  -52.4176 C.3       19 UNK         0.1400 
    106 CB        -0.9543  -22.9300  -51.2421 C.3       19 UNK        -0.1800 
    107 C         -0.8397  -23.1737  -53.7719 C.2       19 UNK         0.5000 
    108 O          0.0974  -22.9955  -54.5503 O.2       19 UNK        -0.5000 
    109 N         -2.1140  -22.8322  -54.0245 N.am      20 UNK        -0.5000 
    110 CA        -2.6584  -22.2455  -55.2564 C.3       20 UNK         0.1400 
    111 CB        -2.7175  -23.3183  -56.3623 C.3       20 UNK        -0.1800 
    112 C         -1.9474  -20.9521  -55.7205 C.2       20 UNK         0.5000 
    113 O         -1.8283  -20.7127  -56.9236 O.2       20 UNK        -0.5000 
    114 N         -1.4827  -20.1392  -54.7593 N.am      21 UNK        -0.5000 
    115 CA        -0.6188  -18.9714  -54.9780 C.3       21 UNK         0.1400 
    116 CB        -0.1969  -18.3910  -53.6196 C.3       21 UNK        -0.1800 
    117 C         -1.2257  -17.8686  -55.8685 C.2       21 UNK         0.5000 
    118 O         -0.4794  -17.1796  -56.5655 O.2       21 UNK        -0.5000 
    119 N         -2.5574  -17.7389  -55.8471 N.am      22 UNK        -0.5000 
    120 CA        -3.3245  -16.8389  -56.7248 C.3       22 UNK         0.1400 
    121 C         -3.6849  -17.4615  -58.1083 C.2       22 UNK         0.5000 
    122 N         -3.3054  -18.6955  -58.4199 N.am      22 UNK        -0.7600 
    123 O         -4.3144  -16.8026  -58.9317 O.2       22 UNK        -0.5000 
    124 C124       -4.5795  -16.2721  -56.0117 C.3       23 UNK        -0.0398 
    125 S125       -4.1451  -15.1898  -54.6037 S.3       23 UNK        -0.2404 
    126 C126       -5.1382  -15.8708  -53.2378 C.3       23 UNK        -0.0205 
    127 H127       -1.9776   -9.5074  -44.5172 H         1 UNK         0.0600 
    128 H128       -2.2091   -8.1124  -45.5748 H         1 UNK         0.0600 
    129 H129       -0.6904   -8.3121  -44.6936 H         1 UNK         0.0600 
    130 H130       -1.5537  -11.3695  -45.6447 H         1 UNK         0.3000 
    131 H131       -0.8232  -11.4415  -48.3989 H         1 UNK         0.0600 
    132 H132       -0.6424  -13.8470  -46.5134 H         1 UNK         0.0800 
    133 H133       -2.1787  -13.1619  -46.9420 H         1 UNK         0.0800 
    134 H134       -3.5715  -13.9837  -48.8636 H         1 UNK         0.0800 
    135 H135       -3.0754  -15.3431  -47.8841 H         1 UNK         0.0800 
    136 H136       -4.3389  -14.3877  -51.0969 H         1 UNK         0.1150 
    137 H137       -4.0089  -18.3081  -52.7946 H         1 UNK         0.1150 
    138 H138       -2.0348  -17.3919  -49.0954 H         1 UNK         0.1150 
    139 H139       -1.4233  -19.4600  -50.4940 H         1 UNK         0.0800 
    140 H140       -2.3993  -19.8585  -51.8812 H         1 UNK         0.0800 
    141 H141       -3.6360  -19.8152  -47.5555 H         1 UNK         0.0800 
    142 H142       -2.0991  -19.4587  -48.2618 H         1 UNK         0.0800 
    143 H143       -1.8604  -22.1295  -48.4405 H         1 UNK         0.0600 
    144 H144       -0.8708  -20.2829  -46.5709 H         1 UNK         0.3000 
    145 H145        1.1269  -22.5899  -44.6730 H         1 UNK         0.0600 
    146 H146        2.4333  -21.9713  -46.7044 H         1 UNK         0.0600 
    147 H147        2.8463  -20.9350  -45.3468 H         1 UNK         0.0600 
    148 H148        1.8021  -20.3314  -46.6316 H         1 UNK         0.0600 
    149 H149        0.7845  -19.7924  -44.3933 H         1 UNK         0.3000 
    150 H150       -2.1138  -19.8751  -42.2624 H         1 UNK         0.0600 
    151 H151        0.8141  -19.0567  -41.8643 H         1 UNK         0.0600 
    152 H152       -0.1039  -20.1334  -40.8203 H         1 UNK         0.0600 
    153 H153       -0.5601  -18.4406  -40.9508 H         1 UNK         0.0600 
    154 H154       -0.6895  -17.6789  -43.3563 H         1 UNK         0.3000 
    155 H155       -2.4818  -17.3932  -46.4417 H         1 UNK         0.0600 
    156 H156       -2.7260  -15.0888  -45.4698 H         1 UNK         0.0600 
    157 H157       -2.4470  -15.7438  -43.8592 H         1 UNK         0.0600 
    158 H158       -3.8643  -16.2293  -44.7737 H         1 UNK         0.0600 
    159 H159       -0.2627  -16.0435  -45.1169 H         1 UNK         0.3000 
    160 H160        2.2791  -17.8718  -46.7930 H         1 UNK         0.0600 
    161 H161        1.4103  -15.0001  -47.3823 H         1 UNK         0.0600 
    162 H162        1.4752  -16.2804  -48.5861 H         1 UNK         0.0600 
    163 H163        2.9492  -15.7573  -47.7903 H         1 UNK         0.0600 
    164 H164        2.3120  -15.4867  -45.1898 H         1 UNK         0.3000 
    165 H165        2.4937  -17.1384  -42.0389 H         1 UNK         0.0600 
    166 H166        4.8131  -17.2620  -42.9996 H         1 UNK         0.0600 
    167 H167        4.6320  -15.6278  -43.6306 H         1 UNK         0.0600 
    168 H168        4.6229  -15.9127  -41.8915 H         1 UNK         0.0600 
    169 H169        2.7330  -14.4248  -42.4762 H         1 UNK         0.3000 
    170 H170        0.2498  -13.0611  -43.2333 H         1 UNK         0.0600 
    171 H171       -1.4166  -12.5397  -41.4246 H         1 UNK         0.0600 
    172 H172       -1.1578  -14.1443  -40.7405 H         1 UNK         0.0600 
    173 H173       -1.8449  -13.9681  -42.3477 H         1 UNK         0.0600 
    174 H174        1.6733  -12.0283  -41.9266 H         1 UNK         0.3000 
    175 H175        2.2778  -11.4950  -38.9901 H         1 UNK         0.0600 
    176 H176        4.2800  -13.7961  -39.2877 H         1 UNK         0.0600 
    177 H177        3.2637  -13.4635  -37.8930 H         1 UNK         0.0600 
    178 H178        4.5464  -12.3456  -38.3212 H         1 UNK         0.0600 
    179 H179        3.4231  -10.4209  -40.5358 H         1 UNK         0.3000 
    180 H180        4.3827   -9.8579  -42.3799 H         1 UNK         0.0600 
    181 H181        6.8121  -11.6884  -42.7833 H         1 UNK         0.0600 
    182 H182        6.6349  -10.5033  -41.4950 H         1 UNK         0.0600 
    183 H183        6.7346   -9.9677  -43.1650 H         1 UNK         0.0600 
    184 H184        5.2056  -11.3301  -44.6422 H         1 UNK         0.3000 
    185 H185        3.5107  -11.0348  -46.5704 H         1 UNK         0.0600 
    186 H186        4.7289  -13.1413  -45.9053 H         1 UNK         0.0600 
    187 H187        3.2065  -13.8937  -45.4566 H         1 UNK         0.0600 
    188 H188        3.5468  -13.4977  -47.1430 H         1 UNK         0.0600 
    189 H189        1.0251  -11.6124  -45.4025 H         1 UNK         0.3000 
    190 H190       -3.1912  -21.1638  -45.2551 H         1 UNK         0.3000 
    191 H191       -5.4875  -22.8120  -45.2863 H         1 UNK         0.0600 
    192 H192       -5.1648  -20.9377  -43.6952 H         1 UNK         0.0600 
    193 H193       -5.4851  -22.4305  -42.8244 H         1 UNK         0.0600 
    194 H194       -3.8465  -21.7970  -42.9046 H         1 UNK         0.0600 
    195 H195       -2.1793  -23.4866  -44.0414 H         1 UNK         0.3000 
    196 H196       -2.6636  -26.1304  -43.1292 H         1 UNK         0.0600 
    197 H197       -0.1753  -26.3154  -43.1819 H         1 UNK         0.0600 
    198 H198       -0.6812  -24.7895  -42.4712 H         1 UNK         0.0600 
    199 H199       -0.0704  -24.8328  -44.1233 H         1 UNK         0.0600 
    200 H200       -1.7461  -24.8950  -46.3339 H         1 UNK         0.3000 
    201 H201       -1.4796  -27.4797  -47.6129 H         1 UNK         0.0600 
    202 H202       -1.2609  -26.0386  -49.6524 H         1 UNK         0.0600 
    203 H203       -0.2433  -25.4453  -48.3557 H         1 UNK         0.0600 
    204 H204       -1.7667  -24.6397  -48.7258 H         1 UNK         0.0600 
    205 H205       -4.2249  -25.9198  -46.5033 H         1 UNK         0.3000 
    206 H206       -6.4017  -25.9358  -46.8570 H         1 UNK         0.0600 
    207 H207       -6.1097  -28.4228  -46.7207 H         1 UNK         0.0600 
    208 H208       -7.4686  -27.9778  -47.7397 H         1 UNK         0.0600 
    209 H209       -5.9606  -28.5024  -48.4758 H         1 UNK         0.0600 
    210 H210       -4.8603  -24.3430  -48.5336 H         1 UNK         0.3000 
    211 H211       -4.8242  -22.9736  -50.1900 H         1 UNK         0.0600 
    212 H212       -7.2095  -22.5118  -49.7245 H         1 UNK         0.0600 
    213 H213       -6.8694  -22.3526  -51.4403 H         1 UNK         0.0600 
    214 H214       -7.7036  -23.7807  -50.8452 H         1 UNK         0.0600 
    215 H215       -6.2820  -25.9904  -51.3452 H         1 UNK         0.3000 
    216 H216       -5.7719  -25.7182  -54.0686 H         1 UNK         0.0600 
    217 H217       -6.0704  -28.2670  -52.3940 H         1 UNK         0.0600 
    218 H218       -6.2396  -28.1814  -54.1445 H         1 UNK         0.0600 
    219 H219       -7.3803  -27.3316  -53.1135 H         1 UNK         0.0600 
    220 H220       -3.5831  -27.1327  -51.5970 H         1 UNK         0.3000 
    221 H221       -1.6753  -28.0249  -53.6430 H         1 UNK         0.0600 
    222 H222       -1.4719  -28.0622  -50.5941 H         1 UNK         0.0600 
    223 H223       -2.0420  -29.3799  -51.6094 H         1 UNK         0.0600 
    224 H224       -0.3748  -28.8410  -51.7201 H         1 UNK         0.0600 
    225 H225       -2.2997  -25.0385  -52.0951 H         1 UNK         0.3000 
    226 H226        0.4948  -24.0420  -52.3462 H         1 UNK         0.0600 
    227 H227       -0.5699  -23.3262  -50.3033 H         1 UNK         0.0600 
    228 H228       -0.5242  -21.9354  -51.3660 H         1 UNK         0.0600 
    229 H229       -2.0329  -22.8138  -51.1395 H         1 UNK         0.0600 
    230 H230       -2.8158  -23.0752  -53.3279 H         1 UNK         0.3000 
    231 H231       -3.6844  -21.9563  -55.0249 H         1 UNK         0.0600 
    232 H232       -1.7201  -23.6326  -56.6714 H         1 UNK         0.0600 
    233 H233       -3.2351  -22.9463  -57.2472 H         1 UNK         0.0600 
    234 H234       -3.2564  -24.2029  -56.0224 H         1 UNK         0.0600 
    235 H235       -1.6207  -20.4238  -53.8024 H         1 UNK         0.3000 
    236 H236        0.2798  -19.3329  -55.4821 H         1 UNK         0.0600 
    237 H237       -1.0450  -17.9643  -53.0852 H         1 UNK         0.0600 
    238 H238        0.2597  -19.1500  -52.9841 H         1 UNK         0.0600 
    239 H239        0.5360  -17.5938  -53.7497 H         1 UNK         0.0600 
    240 H240       -3.0921  -18.3563  -55.2562 H         1 UNK         0.3000 
    241 H241       -2.6924  -15.9827  -56.9681 H         1 UNK         0.0600 
    242 H242       -2.7570  -19.2664  -57.7834 H         1 UNK         0.3800 
    243 H243       -3.5476  -19.0663  -59.3249 H         1 UNK         0.3800 
    244 H244       -5.1739  -15.6661  -56.6977 H         1 UNK         0.0800 
    245 H245       -5.2289  -17.0881  -55.6940 H         1 UNK         0.0800 
    246 H246       -5.8434  -15.1075  -52.9057 H         1 UNK         0.0800 
    247 H247       -5.7479  -16.7123  -53.5675 H         1 UNK         0.0800 
@<TRIPOS>BOND
     1    1    2 1    
     2    1  127 1    
     3    1  128 1    
     4    1  129 1    
     5    2    3 2    
     6    2    4 am   BACKBONE|DICT|INTERRES
     7    4    5 1    
     8    4  130 1    
     9    5    6 1    
    10    5   65 1    
    11    5  131 1    
    12    6    7 1    
    13    6  132 1    
    14    6  133 1    
    15    7    8 1    
    16    8    9 1    
    17    8  134 1    
    18    8  135 1    
    19    9   10 ar   
    20    9   14 ar   
    21   10   11 ar   
    22   10  136 1    
    23   11   12 ar   
    24   11  126 1    
    25   12   13 ar   
    26   12  137 1    
    27   13   14 ar   
    28   13   15 1    
    29   14  138 1    
    30   15   16 1    
    31   15  139 1    
    32   15  140 1    
    33   16   17 1    
    34   17   18 1    
    35   17  141 1    
    36   17  142 1    
    37   18   19 1    
    38   18   67 1    
    39   18  143 1    
    40   19   20 am   BACKBONE|DICT|INTERRES
    41   19  144 1    
    42   20   21 2    
    43   20   22 1    
    44   22   23 1    
    45   22   24 1    
    46   22  145 1    
    47   23  146 1    
    48   23  147 1    
    49   23  148 1    
    50   24   25 am   BACKBONE|DICT|INTERRES
    51   24  149 1    
    52   25   26 2    
    53   25   27 1    
    54   27   28 1    
    55   27   29 1    
    56   27  150 1    
    57   28  151 1    
    58   28  152 1    
    59   28  153 1    
    60   29   30 am   BACKBONE|DICT|INTERRES
    61   29  154 1    
    62   30   31 2    
    63   30   32 1    
    64   32   33 1    
    65   32   34 1    
    66   32  155 1    
    67   33  156 1    
    68   33  157 1    
    69   33  158 1    
    70   34   35 am   BACKBONE|DICT|INTERRES
    71   34  159 1    
    72   35   36 2    
    73   35   37 1    
    74   37   38 1    
    75   37   39 1    
    76   37  160 1    
    77   38  161 1    
    78   38  162 1    
    79   38  163 1    
    80   39   40 am   BACKBONE|DICT|INTERRES
    81   39  164 1    
    82   40   41 2    
    83   40   42 1    
    84   42   43 1    
    85   42   44 1    
    86   42  165 1    
    87   43  166 1    
    88   43  167 1    
    89   43  168 1    
    90   44   45 am   BACKBONE|DICT|INTERRES
    91   44  169 1    
    92   45   46 2    
    93   45   47 1    
    94   47   48 1    
    95   47   49 1    
    96   47  170 1    
    97   48  171 1    
    98   48  172 1    
    99   48  173 1    
   100   49   50 am   BACKBONE|DICT|INTERRES
   101   49  174 1    
   102   50   51 2    
   103   50   52 1    
   104   52   53 1    
   105   52   54 1    
   106   52  175 1    
   107   53  176 1    
   108   53  177 1    
   109   53  178 1    
   110   54   55 am   BACKBONE|DICT|INTERRES
   111   54  179 1    
   112   55   56 2    
   113   55   57 1    
   114   57   58 1    
   115   57   59 1    
   116   57  180 1    
   117   58  181 1    
   118   58  182 1    
   119   58  183 1    
   120   59   60 am   BACKBONE|DICT|INTERRES
   121   59  184 1    
   122   60   61 2    
   123   60   62 1    
   124   62   63 1    
   125   62   64 1    
   126   62  185 1    
   127   63  186 1    
   128   63  187 1    
   129   63  188 1    
   130   64   65 am   BACKBONE|DICT|INTERRES
   131   64  189 1    
   132   65   66 2    
   133   67   68 2    
   134   67   69 am   BACKBONE|DICT|INTERRES
   135   69   70 1    
   136   69  190 1    
   137   70   71 1    
   138   70   72 1    
   139   70  191 1    
   140   71  192 1    
   141   71  193 1    
   142   71  194 1    
   143   72   73 2    
   144   72   74 am   BACKBONE|DICT|INTERRES
   145   74   75 1    
   146   74  195 1    
   147   75   76 1    
   148   75   77 1    
   149   75  196 1    
   150   76  197 1    
   151   76  198 1    
   152   76  199 1    
   153   77   78 2    
   154   77   79 am   BACKBONE|DICT|INTERRES
   155   79   80 1    
   156   79  200 1    
   157   80   81 1    
   158   80   82 1    
   159   80  201 1    
   160   81  202 1    
   161   81  203 1    
   162   81  204 1    
   163   82   83 2    
   164   82   84 am   BACKBONE|DICT|INTERRES
   165   84   85 1    
   166   84  205 1    
   167   85   86 1    
   168   85   87 1    
   169   85  206 1    
   170   86  207 1    
   171   86  208 1    
   172   86  209 1    
   173   87   88 2    
   174   87   89 am   BACKBONE|DICT|INTERRES
   175   89   90 1    
   176   89  210 1    
   177   90   91 1    
   178   90   92 1    
   179   90  211 1    
   180   91  212 1    
   181   91  213 1    
   182   91  214 1    
   183   92   93 2    
   184   92   94 am   BACKBONE|DICT|INTERRES
   185   94   95 1    
   186   94  215 1    
   187   95   96 1    
   188   95   97 1    
   189   95  216 1    
   190   96  217 1    
   191   96  218 1    
   192   96  219 1    
   193   97   98 2    
   194   97   99 am   BACKBONE|DICT|INTERRES
   195   99  100 1    
   196   99  220 1    
   197  100  101 1    
   198  100  102 1    
   199  100  221 1    
   200  101  222 1    
   201  101  223 1    
   202  101  224 1    
   203  102  103 2    
   204  102  104 am   BACKBONE|DICT|INTERRES
   205  104  105 1    
   206  104  225 1    
   207  105  106 1    
   208  105  107 1    
   209  105  226 1    
   210  106  227 1    
   211  106  228 1    
   212  106  229 1    
   213  107  108 2    
   214  107  109 am   BACKBONE|DICT|INTERRES
   215  109  110 1    
   216  109  230 1    
   217  110  111 1    
   218  110  112 1    
   219  110  231 1    
   220  111  232 1    
   221  111  233 1    
   222  111  234 1    
   223  112  113 2    
   224  112  114 am   BACKBONE|DICT|INTERRES
   225  114  115 1    
   226  114  235 1    
   227  115  116 1    
   228  115  117 1    
   229  115  236 1    
   230  116  237 1    
   231  116  238 1    
   232  116  239 1    
   233  117  118 2    
   234  117  119 am   BACKBONE|DICT|INTERRES
   235  119  120 1    
   236  119  240 1    
   237  120  121 1    
   238  120  124 1    
   239  120  241 1    
   240  121  122 am   BACKBONE|DICT|INTERRES
   241  121  123 2    
   242  122  242 1    
   243  122  243 1    
   244  124  125 1    
   245  124  244 1    
   246  124  245 1    
   247  125  126 1    
   248  126  246 1    
   249  126  247 1    
@<TRIPOS>SUBSTRUCTURE
     1 UNK         1 GROUP             0       ****    0 ROOT    
