@<TRIPOS>MOLECULE
3R540
247   249    1
SMALL
USER_CHARGES


@<TRIPOS>ATOM
      1 CA          4.3803   -8.1773  -49.5646 C.3       0 UNK        -0.1800 
      2 C           4.8941   -9.4956  -49.0036 C.2       0 UNK         0.5000 
      3 O           5.7394   -9.4910  -48.1076 O.2       0 UNK        -0.5000 
      4 N           4.3899  -10.6217  -49.5273 N.am      1 UNK        -0.5000 
      5 CA          4.6898  -11.9773  -49.0560 C.3       1 UNK         0.1400 
      6 C6          4.0759  -13.0521  -49.9908 C.3       23 UNK        -0.0398 
      7 S7          4.7973  -14.7096  -49.7284 S.3       23 UNK        -0.2404 
      8 C8          3.5850  -15.4731  -48.6027 C.3       23 UNK        -0.0205 
      9 C9          2.6424  -16.4197  -49.3259 C.ar      23 UNK        -0.0193 
     10 C10         1.4706  -15.9464  -49.9227 C.ar      23 UNK        -0.1150 
     11 C11         0.6024  -16.8277  -50.5765 C.ar      23 UNK        -0.0193 
     12 C12         0.9034  -18.1930  -50.6145 C.ar      23 UNK        -0.1150 
     13 C13         2.0715  -18.6751  -50.0171 C.ar      23 UNK        -0.0193 
     14 C14         2.9371  -17.7835  -49.3792 C.ar      23 UNK        -0.1150 
     15 C15         2.4210  -20.1528  -50.0647 C.3       23 UNK        -0.0205 
     16 S16         2.0364  -20.9725  -48.4872 S.3       23 UNK        -0.2404 
     17 C17         0.2882  -21.4371  -48.7198 C.3       23 UNK        -0.0398 
     18 CA         -0.0428  -22.7217  -47.9273 C.3       11 UNK         0.1400 
     19 N          -0.0052  -22.5093  -46.4790 N.am      11 UNK        -0.5000 
     20 C          -0.0420  -23.4891  -45.5668 C.2       10 UNK         0.5000 
     21 O          -0.0806  -24.6869  -45.8476 O.2       10 UNK        -0.5000 
     22 CA         -0.0948  -23.0529  -44.0943 C.3       10 UNK         0.1400 
     23 CB          1.3054  -22.6937  -43.5743 C.3       10 UNK        -0.1800 
     24 N          -0.9997  -21.9204  -43.9021 N.am      10 UNK        -0.5000 
     25 C          -2.3346  -22.0004  -43.9889 C.2       9 UNK         0.5000 
     26 O          -2.9447  -23.0480  -44.2051 O.2       9 UNK        -0.5000 
     27 CA         -3.1142  -20.6795  -43.8482 C.3       9 UNK         0.1400 
     28 CB         -3.3006  -20.3130  -42.3684 C.3       9 UNK        -0.1800 
     29 N          -2.4745  -19.5635  -44.5477 N.am      9 UNK        -0.5000 
     30 C          -2.3272  -19.4943  -45.8782 C.2       8 UNK         0.5000 
     31 O          -2.7225  -20.3602  -46.6538 O.2       8 UNK        -0.5000 
     32 CA         -1.5809  -18.2748  -46.4418 C.3       8 UNK         0.1400 
     33 CB         -2.5701  -17.1231  -46.6618 C.3       8 UNK        -0.1800 
     34 N          -0.4520  -17.8200  -45.6223 N.am      8 UNK        -0.5000 
     35 C           0.5857  -18.5875  -45.2469 C.2       7 UNK         0.5000 
     36 O           0.6435  -19.7982  -45.4656 O.2       7 UNK        -0.5000 
     37 CA          1.7662  -17.9163  -44.5157 C.3       7 UNK         0.1400 
     38 CB          3.0161  -17.9355  -45.4089 C.3       7 UNK        -0.1800 
     39 N           1.5062  -16.5344  -44.1129 N.am      7 UNK        -0.5000 
     40 C           0.7770  -16.1557  -43.0549 C.2       6 UNK         0.5000 
     41 O           0.2649  -16.9459  -42.2618 O.2       6 UNK        -0.5000 
     42 CA          0.5601  -14.6371  -42.8711 C.3       6 UNK         0.1400 
     43 CB          1.5397  -14.0726  -41.8316 C.3       6 UNK        -0.1800 
     44 N           0.6754  -13.8636  -44.1152 N.am      6 UNK        -0.5000 
     45 C          -0.1454  -14.0075  -45.1676 C.2       5 UNK         0.5000 
     46 O          -1.0686  -14.8203  -45.1847 O.2       5 UNK        -0.5000 
     47 CA          0.1349  -13.1342  -46.4068 C.3       5 UNK         0.1400 
     48 CB         -1.0089  -13.1540  -47.4422 C.3       5 UNK        -0.1800 
     49 N           0.5144  -11.7598  -46.0721 N.am      5 UNK        -0.5000 
     50 C          -0.2177  -10.8461  -45.4178 C.2       4 UNK         0.5000 
     51 O          -1.3516  -11.0565  -44.9842 O.2       4 UNK        -0.5000 
     52 CA          0.4521   -9.4785  -45.1972 C.3       4 UNK         0.1400 
     53 CB         -0.3247   -8.5668  -44.2258 C.3       4 UNK        -0.1800 
     54 N           1.8139   -9.6783  -44.7144 N.am      4 UNK        -0.5000 
     55 C           2.8374   -8.8330  -44.8520 C.2       3 UNK         0.5000 
     56 O           2.7567   -7.7473  -45.4279 O.2       3 UNK        -0.5000 
     57 CA          4.1842   -9.2761  -44.2466 C.3       3 UNK         0.1400 
     58 CB          4.1560   -9.2168  -42.7067 C.3       3 UNK        -0.1800 
     59 N           4.6551  -10.5814  -44.7273 N.am      3 UNK        -0.5000 
     60 C           4.1221  -11.7984  -44.5417 C.2       2 UNK         0.5000 
     61 O           3.1021  -12.0206  -43.8835 O.2       2 UNK        -0.5000 
     62 CA          4.8202  -12.9461  -45.3017 C.3       2 UNK         0.1400 
     63 CB          4.0682  -14.2867  -45.1873 C.3       2 UNK        -0.1800 
     64 N           5.0740  -12.6321  -46.7151 N.am      2 UNK        -0.5000 
     65 C           4.1915  -12.1568  -47.6083 C.2       1 UNK         0.5000 
     66 O           3.0209  -11.8756  -47.3463 O.2       1 UNK        -0.5000 
     67 C          -1.3743  -23.3519  -48.3808 C.2       11 UNK         0.5000 
     68 O          -1.3477  -24.2840  -49.1819 O.2       11 UNK        -0.5000 
     69 N          -2.5039  -22.8869  -47.8291 N.am      12 UNK        -0.5000 
     70 CA         -3.8325  -23.4560  -48.0568 C.3       12 UNK         0.1400 
     71 CB         -4.9033  -22.5679  -47.4067 C.3       12 UNK        -0.1800 
     72 C          -3.9505  -24.9031  -47.5522 C.2       12 UNK         0.5000 
     73 O          -4.5040  -25.7443  -48.2587 O.2       12 UNK        -0.5000 
     74 N          -3.3972  -25.1834  -46.3630 N.am      13 UNK        -0.5000 
     75 CA         -3.3277  -26.5278  -45.7875 C.3       13 UNK         0.1400 
     76 CB         -2.8050  -26.4549  -44.3452 C.3       13 UNK        -0.1800 
     77 C          -2.4786  -27.4885  -46.6406 C.2       13 UNK         0.5000 
     78 O          -2.9226  -28.6031  -46.9195 O.2       13 UNK        -0.5000 
     79 N          -1.3045  -27.0213  -47.0900 N.am      14 UNK        -0.5000 
     80 CA         -0.4098  -27.7436  -47.9993 C.3       14 UNK         0.1400 
     81 CB          0.9082  -26.9679  -48.1417 C.3       14 UNK        -0.1800 
     82 C          -1.0378  -28.0102  -49.3821 C.2       14 UNK         0.5000 
     83 O          -0.8046  -29.0706  -49.9625 O.2       14 UNK        -0.5000 
     84 N          -1.8561  -27.0647  -49.8611 N.am      15 UNK        -0.5000 
     85 CA         -2.6309  -27.1502  -51.0997 C.3       15 UNK         0.1400 
     86 CB         -2.8752  -25.7272  -51.6285 C.3       15 UNK        -0.1800 
     87 C          -3.9564  -27.9320  -50.9512 C.2       15 UNK         0.5000 
     88 O          -4.7550  -27.9297  -51.8881 O.2       15 UNK        -0.5000 
     89 N          -4.1741  -28.5849  -49.7989 N.am      16 UNK        -0.5000 
     90 CA         -5.3173  -29.4390  -49.4605 C.3       16 UNK         0.1400 
     91 CB         -5.3576  -30.6907  -50.3629 C.3       16 UNK        -0.1800 
     92 C          -6.6554  -28.6726  -49.4164 C.2       16 UNK         0.5000 
     93 O          -7.6563  -29.1313  -49.9697 O.2       16 UNK        -0.5000 
     94 N          -6.6353  -27.5173  -48.7387 N.am      17 UNK        -0.5000 
     95 CA         -7.7492  -26.5983  -48.4798 C.3       17 UNK         0.1400 
     96 CB         -8.9237  -27.3011  -47.7659 C.3       17 UNK        -0.1800 
     97 C          -8.1881  -25.7799  -49.7106 C.2       17 UNK         0.5000 
     98 O          -9.2805  -25.2087  -49.7047 O.2       17 UNK        -0.5000 
     99 N          -7.3187  -25.6919  -50.7253 N.am      18 UNK        -0.5000 
    100 CA        -7.4340  -24.7377  -51.8278 C.3       18 UNK         0.1400 
    101 CB        -6.5833  -25.2347  -53.0056 C.3       18 UNK        -0.1800 
    102 C         -6.9859  -23.3313  -51.3807 C.2       18 UNK         0.5000 
    103 O         -6.3701  -23.1841  -50.3235 O.2       18 UNK        -0.5000 
    104 N         -7.2873  -22.3178  -52.2025 N.am      19 UNK        -0.5000 
    105 CA        -6.9738  -20.9103  -51.9300 C.3       19 UNK         0.1400 
    106 CB        -7.6933  -20.0308  -52.9645 C.3       19 UNK        -0.1800 
    107 C         -5.4661  -20.5861  -51.9141 C.2       19 UNK         0.5000 
    108 O         -5.0667  -19.6183  -51.2686 O.2       19 UNK        -0.5000 
    109 N         -4.6628  -21.3759  -52.6450 N.am      20 UNK        -0.5000 
    110 CA        -3.2019  -21.2647  -52.7722 C.3       20 UNK         0.1400 
    111 CB        -2.5151  -21.6744  -51.4540 C.3       20 UNK        -0.1800 
    112 C         -2.7297  -19.8864  -53.2914 C.2       20 UNK         0.5000 
    113 O         -1.6699  -19.4041  -52.8929 O.2       20 UNK        -0.5000 
    114 N         -3.5441  -19.2871  -54.1731 N.am      21 UNK        -0.5000 
    115 CA        -3.3855  -17.9712  -54.8030 C.3       21 UNK         0.1400 
    116 CB        -2.0708  -17.8863  -55.6082 C.3       21 UNK        -0.1800 
    117 C         -3.5745  -16.7671  -53.8525 C.2       21 UNK         0.5000 
    118 O         -3.2599  -15.6433  -54.2487 O.2       21 UNK        -0.5000 
    119 N         -4.1175  -16.9864  -52.6486 N.am      22 UNK        -0.5000 
    120 CA        -4.4669  -15.9320  -51.6877 C.3       22 UNK         0.1400 
    121 C         -5.5932  -16.4021  -50.7269 C.2       22 UNK         0.5000 
    122 N         -5.4120  -16.3384  -49.4145 N.am      22 UNK        -0.7600 
    123 O         -6.6753  -16.7716  -51.1763 O.2       22 UNK        -0.5000 
    124 C124       -3.2400  -15.2348  -51.0283 C.3       23 UNK        -0.0398 
    125 S125       -2.0858  -16.3482  -50.1519 S.3       23 UNK        -0.2404 
    126 C126       -0.6464  -16.2969  -51.2607 C.3       23 UNK        -0.0205 
    127 H127        3.9045   -7.5959  -48.7745 H         1 UNK         0.0600 
    128 H128        3.6506   -8.3313  -50.3600 H         1 UNK         0.0600 
    129 H129        5.2070   -7.5935  -49.9692 H         1 UNK         0.0600 
    130 H130        3.6813  -10.5535  -50.2435 H         1 UNK         0.3000 
    131 H131        5.7766  -12.0857  -49.0727 H         1 UNK         0.0600 
    132 H132        2.9885  -13.0900  -49.9026 H         1 UNK         0.0800 
    133 H133        4.2776  -12.7883  -51.0299 H         1 UNK         0.0800 
    134 H134        3.0073  -14.7147  -48.0756 H         1 UNK         0.0800 
    135 H135        4.1367  -16.0178  -47.8361 H         1 UNK         0.0800 
    136 H136        1.2363  -14.8920  -49.8843 H         1 UNK         0.1150 
    137 H137        0.2309  -18.8761  -51.1143 H         1 UNK         0.1150 
    138 H138        3.8403  -18.1564  -48.9165 H         1 UNK         0.1150 
    139 H139        1.9134  -20.6495  -50.8927 H         1 UNK         0.0800 
    140 H140        3.4888  -20.2609  -50.2604 H         1 UNK         0.0800 
    141 H141        0.1108  -21.5929  -49.7842 H         1 UNK         0.0800 
    142 H142       -0.3515  -20.6079  -48.4153 H         1 UNK         0.0800 
    143 H143        0.7305  -23.4578  -48.1588 H         1 UNK         0.0600 
    144 H144        0.0778  -21.5478  -46.1608 H         1 UNK         0.3000 
    145 H145       -0.4684  -23.8950  -43.5078 H         1 UNK         0.0600 
    146 H146        1.2768  -22.4258  -42.5181 H         1 UNK         0.0600 
    147 H147        1.9858  -23.5399  -43.6769 H         1 UNK         0.0600 
    148 H148        1.7406  -21.8567  -44.1212 H         1 UNK         0.0600 
    149 H149       -0.5725  -21.0101  -43.8050 H         1 UNK         0.3000 
    150 H150       -4.1020  -20.8305  -44.2886 H         1 UNK         0.0600 
    151 H151       -3.7872  -21.1235  -41.8241 H         1 UNK         0.0600 
    152 H152       -3.9262  -19.4271  -42.2576 H         1 UNK         0.0600 
    153 H153       -2.3467  -20.1139  -41.8781 H         1 UNK         0.0600 
    154 H154       -2.1060  -18.8130  -43.9817 H         1 UNK         0.3000 
    155 H155       -1.1756  -18.5580  -47.4152 H         1 UNK         0.0600 
    156 H156       -2.9832  -16.7597  -45.7202 H         1 UNK         0.0600 
    157 H157       -2.0903  -16.2849  -47.1641 H         1 UNK         0.0600 
    158 H158       -3.4048  -17.4397  -47.2885 H         1 UNK         0.0600 
    159 H159       -0.4503  -16.8360  -45.3803 H         1 UNK         0.3000 
    160 H160        1.9751  -18.5086  -43.6225 H         1 UNK         0.0600 
    161 H161        2.8577  -17.3663  -46.3244 H         1 UNK         0.0600 
    162 H162        3.2754  -18.9545  -45.7005 H         1 UNK         0.0600 
    163 H163        3.8801  -17.5165  -44.8931 H         1 UNK         0.0600 
    164 H164        1.8810  -15.8132  -44.7087 H         1 UNK         0.3000 
    165 H165       -0.4539  -14.4990  -42.4903 H         1 UNK         0.0600 
    166 H166        1.3576  -13.0127  -41.6522 H         1 UNK         0.0600 
    167 H167        1.4344  -14.5869  -40.8755 H         1 UNK         0.0600 
    168 H168        2.5760  -14.1839  -42.1511 H         1 UNK         0.0600 
    169 H169        1.4183  -13.1732  -44.1504 H         1 UNK         0.3000 
    170 H170        1.0052  -13.5793  -46.8893 H         1 UNK         0.0600 
    171 H171       -1.1768  -14.1631  -47.8192 H         1 UNK         0.0600 
    172 H172       -1.9487  -12.8019  -47.0161 H         1 UNK         0.0600 
    173 H173       -0.7728  -12.5269  -48.3018 H         1 UNK         0.0600 
    174 H174        1.4442  -11.5009  -46.3964 H         1 UNK         0.3000 
    175 H175        0.4905   -8.9913  -46.1737 H         1 UNK         0.0600 
    176 H176       -0.3915   -9.0091  -43.2312 H         1 UNK         0.0600 
    177 H177        0.1534   -7.5923  -44.1272 H         1 UNK         0.0600 
    178 H178       -1.3413   -8.3914  -44.5797 H         1 UNK         0.0600 
    179 H179        2.0087  -10.5717  -44.2675 H         1 UNK         0.3000 
    180 H180        4.9295   -8.5542  -44.5844 H         1 UNK         0.0600 
    181 H181        3.4302   -9.9098  -42.2804 H         1 UNK         0.0600 
    182 H182        3.8896   -8.2168  -42.3626 H         1 UNK         0.0600 
    183 H183        5.1328   -9.4555  -42.2863 H         1 UNK         0.0600 
    184 H184        5.4456  -10.5292  -45.3555 H         1 UNK         0.3000 
    185 H185        5.7944  -13.0743  -44.8276 H         1 UNK         0.0600 
    186 H186        3.9196  -14.5668  -44.1442 H         1 UNK         0.0600 
    187 H187        3.0907  -14.2406  -45.6645 H         1 UNK         0.0600 
    188 H188        4.6345  -15.0915  -45.6547 H         1 UNK         0.0600 
    189 H189        6.0174  -12.8102  -47.0307 H         1 UNK         0.3000 
    190 H190       -2.4653  -22.0677  -47.2260 H         1 UNK         0.3000 
    191 H191       -4.0083  -23.4679  -49.1334 H         1 UNK         0.0600 
    192 H192       -4.7388  -22.4539  -46.3350 H         1 UNK         0.0600 
    193 H193       -5.8989  -22.9913  -47.5457 H         1 UNK         0.0600 
    194 H194       -4.9107  -21.5742  -47.8551 H         1 UNK         0.0600 
    195 H195       -2.9929  -24.4305  -45.8174 H         1 UNK         0.3000 
    196 H196       -4.3440  -26.9260  -45.7556 H         1 UNK         0.0600 
    197 H197       -2.7710  -27.4464  -43.8922 H         1 UNK         0.0600 
    198 H198       -3.4518  -25.8354  -43.7236 H         1 UNK         0.0600 
    199 H199       -1.7992  -26.0381  -44.2979 H         1 UNK         0.0600 
    200 H200       -0.9939  -26.1035  -46.7817 H         1 UNK         0.3000 
    201 H201       -0.1875  -28.7115  -47.5457 H         1 UNK         0.0600 
    202 H202        1.3935  -26.8342  -47.1747 H         1 UNK         0.0600 
    203 H203        0.7486  -25.9801  -48.5745 H         1 UNK         0.0600 
    204 H204        1.6078  -27.5006  -48.7869 H         1 UNK         0.0600 
    205 H205       -1.9353  -26.1918  -49.3485 H         1 UNK         0.3000 
    206 H206       -2.0331  -27.6804  -51.8436 H         1 UNK         0.0600 
    207 H207       -1.9440  -25.1647  -51.6970 H         1 UNK         0.0600 
    208 H208       -3.3015  -25.7526  -52.6309 H         1 UNK         0.0600 
    209 H209       -3.5579  -25.1705  -50.9852 H         1 UNK         0.0600 
    210 H210       -3.4818  -28.4871  -49.0664 H         1 UNK         0.3000 
    211 H211       -5.1388  -29.7841  -48.4411 H         1 UNK         0.0600 
    212 H212       -5.5832  -30.4393  -51.3996 H         1 UNK         0.0600 
    213 H213       -6.1223  -31.3905  -50.0241 H         1 UNK         0.0600 
    214 H214       -4.4047  -31.2195  -50.3454 H         1 UNK         0.0600 
    215 H215       -5.7331  -27.1688  -48.4215 H         1 UNK         0.3000 
    216 H216       -7.3500  -25.8629  -47.7798 H         1 UNK         0.0600 
    217 H217       -9.6506  -26.5734  -47.4034 H         1 UNK         0.0600 
    218 H218       -8.5786  -27.8693  -46.9022 H         1 UNK         0.0600 
    219 H219       -9.4547  -27.9838  -48.4294 H         1 UNK         0.0600 
    220 H220       -6.4355  -26.1732  -50.6348 H         1 UNK         0.3000 
    221 H221       -8.4767  -24.6853  -52.1481 H         1 UNK         0.0600 
    222 H222       -5.5235  -25.2359  -52.7580 H         1 UNK         0.0600 
    223 H223       -6.8598  -26.2496  -53.2926 H         1 UNK         0.0600 
    224 H224       -6.7147  -24.6025  -53.8843 H         1 UNK         0.0600 
    225 H225       -7.7930  -22.5096  -53.0554 H         1 UNK         0.3000 
    226 H226       -7.3669  -20.6637  -50.9413 H         1 UNK         0.0600 
    227 H227       -8.7733  -20.1728  -52.9207 H         1 UNK         0.0600 
    228 H228       -7.4999  -18.9730  -52.7804 H         1 UNK         0.0600 
    229 H229       -7.3651  -20.2521  -53.9807 H         1 UNK         0.0600 
    230 H230       -5.0928  -22.1353  -53.1527 H         1 UNK         0.3000 
    231 H231       -2.9057  -21.9885  -53.5326 H         1 UNK         0.0600 
    232 H232       -1.4345  -21.7351  -51.5820 H         1 UNK         0.0600 
    233 H233       -2.8552  -22.6554  -51.1242 H         1 UNK         0.0600 
    234 H234       -2.7144  -20.9628  -50.6518 H         1 UNK         0.0600 
    235 H235       -4.3927  -19.7778  -54.4165 H         1 UNK         0.3000 
    236 H236       -4.2027  -17.8984  -55.5219 H         1 UNK         0.0600 
    237 H237       -1.9563  -18.7439  -56.2711 H         1 UNK         0.0600 
    238 H238       -2.0517  -16.9923  -56.2324 H         1 UNK         0.0600 
    239 H239       -1.1972  -17.8438  -54.9575 H         1 UNK         0.0600 
    240 H240       -4.3630  -17.9284  -52.3620 H         1 UNK         0.3000 
    241 H241       -4.9628  -15.1506  -52.2672 H         1 UNK         0.0600 
    242 H242       -4.5218  -16.0646  -49.0298 H         1 UNK         0.3800 
    243 H243       -6.1580  -16.6268  -48.8019 H         1 UNK         0.3800 
    244 H244       -2.6925  -14.6826  -51.7920 H         1 UNK         0.0800 
    245 H245       -3.5736  -14.4689  -50.3266 H         1 UNK         0.0800 
    246 H246       -0.4686  -15.2729  -51.5919 H         1 UNK         0.0800 
    247 H247       -0.8622  -16.8780  -52.1584 H         1 UNK         0.0800 
@<TRIPOS>BOND
     1    1    2 1    
     2    1  127 1    
     3    1  128 1    
     4    1  129 1    
     5    2    3 2    
     6    2    4 am   BACKBONE|DICT|INTERRES
     7    4    5 1    
     8    4  130 1    
     9    5    6 1    
    10    5   65 1    
    11    5  131 1    
    12    6    7 1    
    13    6  132 1    
    14    6  133 1    
    15    7    8 1    
    16    8    9 1    
    17    8  134 1    
    18    8  135 1    
    19    9   10 ar   
    20    9   14 ar   
    21   10   11 ar   
    22   10  136 1    
    23   11   12 ar   
    24   11  126 1    
    25   12   13 ar   
    26   12  137 1    
    27   13   14 ar   
    28   13   15 1    
    29   14  138 1    
    30   15   16 1    
    31   15  139 1    
    32   15  140 1    
    33   16   17 1    
    34   17   18 1    
    35   17  141 1    
    36   17  142 1    
    37   18   19 1    
    38   18   67 1    
    39   18  143 1    
    40   19   20 am   BACKBONE|DICT|INTERRES
    41   19  144 1    
    42   20   21 2    
    43   20   22 1    
    44   22   23 1    
    45   22   24 1    
    46   22  145 1    
    47   23  146 1    
    48   23  147 1    
    49   23  148 1    
    50   24   25 am   BACKBONE|DICT|INTERRES
    51   24  149 1    
    52   25   26 2    
    53   25   27 1    
    54   27   28 1    
    55   27   29 1    
    56   27  150 1    
    57   28  151 1    
    58   28  152 1    
    59   28  153 1    
    60   29   30 am   BACKBONE|DICT|INTERRES
    61   29  154 1    
    62   30   31 2    
    63   30   32 1    
    64   32   33 1    
    65   32   34 1    
    66   32  155 1    
    67   33  156 1    
    68   33  157 1    
    69   33  158 1    
    70   34   35 am   BACKBONE|DICT|INTERRES
    71   34  159 1    
    72   35   36 2    
    73   35   37 1    
    74   37   38 1    
    75   37   39 1    
    76   37  160 1    
    77   38  161 1    
    78   38  162 1    
    79   38  163 1    
    80   39   40 am   BACKBONE|DICT|INTERRES
    81   39  164 1    
    82   40   41 2    
    83   40   42 1    
    84   42   43 1    
    85   42   44 1    
    86   42  165 1    
    87   43  166 1    
    88   43  167 1    
    89   43  168 1    
    90   44   45 am   BACKBONE|DICT|INTERRES
    91   44  169 1    
    92   45   46 2    
    93   45   47 1    
    94   47   48 1    
    95   47   49 1    
    96   47  170 1    
    97   48  171 1    
    98   48  172 1    
    99   48  173 1    
   100   49   50 am   BACKBONE|DICT|INTERRES
   101   49  174 1    
   102   50   51 2    
   103   50   52 1    
   104   52   53 1    
   105   52   54 1    
   106   52  175 1    
   107   53  176 1    
   108   53  177 1    
   109   53  178 1    
   110   54   55 am   BACKBONE|DICT|INTERRES
   111   54  179 1    
   112   55   56 2    
   113   55   57 1    
   114   57   58 1    
   115   57   59 1    
   116   57  180 1    
   117   58  181 1    
   118   58  182 1    
   119   58  183 1    
   120   59   60 am   BACKBONE|DICT|INTERRES
   121   59  184 1    
   122   60   61 2    
   123   60   62 1    
   124   62   63 1    
   125   62   64 1    
   126   62  185 1    
   127   63  186 1    
   128   63  187 1    
   129   63  188 1    
   130   64   65 am   BACKBONE|DICT|INTERRES
   131   64  189 1    
   132   65   66 2    
   133   67   68 2    
   134   67   69 am   BACKBONE|DICT|INTERRES
   135   69   70 1    
   136   69  190 1    
   137   70   71 1    
   138   70   72 1    
   139   70  191 1    
   140   71  192 1    
   141   71  193 1    
   142   71  194 1    
   143   72   73 2    
   144   72   74 am   BACKBONE|DICT|INTERRES
   145   74   75 1    
   146   74  195 1    
   147   75   76 1    
   148   75   77 1    
   149   75  196 1    
   150   76  197 1    
   151   76  198 1    
   152   76  199 1    
   153   77   78 2    
   154   77   79 am   BACKBONE|DICT|INTERRES
   155   79   80 1    
   156   79  200 1    
   157   80   81 1    
   158   80   82 1    
   159   80  201 1    
   160   81  202 1    
   161   81  203 1    
   162   81  204 1    
   163   82   83 2    
   164   82   84 am   BACKBONE|DICT|INTERRES
   165   84   85 1    
   166   84  205 1    
   167   85   86 1    
   168   85   87 1    
   169   85  206 1    
   170   86  207 1    
   171   86  208 1    
   172   86  209 1    
   173   87   88 2    
   174   87   89 am   BACKBONE|DICT|INTERRES
   175   89   90 1    
   176   89  210 1    
   177   90   91 1    
   178   90   92 1    
   179   90  211 1    
   180   91  212 1    
   181   91  213 1    
   182   91  214 1    
   183   92   93 2    
   184   92   94 am   BACKBONE|DICT|INTERRES
   185   94   95 1    
   186   94  215 1    
   187   95   96 1    
   188   95   97 1    
   189   95  216 1    
   190   96  217 1    
   191   96  218 1    
   192   96  219 1    
   193   97   98 2    
   194   97   99 am   BACKBONE|DICT|INTERRES
   195   99  100 1    
   196   99  220 1    
   197  100  101 1    
   198  100  102 1    
   199  100  221 1    
   200  101  222 1    
   201  101  223 1    
   202  101  224 1    
   203  102  103 2    
   204  102  104 am   BACKBONE|DICT|INTERRES
   205  104  105 1    
   206  104  225 1    
   207  105  106 1    
   208  105  107 1    
   209  105  226 1    
   210  106  227 1    
   211  106  228 1    
   212  106  229 1    
   213  107  108 2    
   214  107  109 am   BACKBONE|DICT|INTERRES
   215  109  110 1    
   216  109  230 1    
   217  110  111 1    
   218  110  112 1    
   219  110  231 1    
   220  111  232 1    
   221  111  233 1    
   222  111  234 1    
   223  112  113 2    
   224  112  114 am   BACKBONE|DICT|INTERRES
   225  114  115 1    
   226  114  235 1    
   227  115  116 1    
   228  115  117 1    
   229  115  236 1    
   230  116  237 1    
   231  116  238 1    
   232  116  239 1    
   233  117  118 2    
   234  117  119 am   BACKBONE|DICT|INTERRES
   235  119  120 1    
   236  119  240 1    
   237  120  121 1    
   238  120  124 1    
   239  120  241 1    
   240  121  122 am   BACKBONE|DICT|INTERRES
   241  121  123 2    
   242  122  242 1    
   243  122  243 1    
   244  124  125 1    
   245  124  244 1    
   246  124  245 1    
   247  125  126 1    
   248  126  246 1    
   249  126  247 1    
@<TRIPOS>SUBSTRUCTURE
     1 UNK         1 GROUP             0       ****    0 ROOT    
