@<TRIPOS>MOLECULE
3R540
247   249    1
SMALL
USER_CHARGES


@<TRIPOS>ATOM
      1 CA          3.9404  -12.5048  -50.7341 C.3       0 UNK        -0.1800 
      2 C           2.9680  -13.3478  -49.9221 C.2       0 UNK         0.5000 
      3 O           2.5496  -12.9337  -48.8411 O.2       0 UNK        -0.5000 
      4 N           2.5991  -14.5249  -50.4401 N.am      1 UNK        -0.5000 
      5 CA          1.6716  -15.4920  -49.8404 C.3       1 UNK         0.1400 
      6 C6          1.9428  -16.9451  -50.3193 C.3       23 UNK        -0.0398 
      7 S7          2.2325  -17.1140  -52.1192 S.3       23 UNK        -0.2404 
      8 C8          3.9497  -17.7291  -52.1480 C.3       23 UNK        -0.0205 
      9 C9          4.0009  -19.2078  -51.7982 C.ar      23 UNK        -0.0193 
     10 C10         3.7088  -20.1570  -52.7799 C.ar      23 UNK        -0.1150 
     11 C11         3.6505  -21.5139  -52.4557 C.ar      23 UNK        -0.0193 
     12 C12         3.9270  -21.9234  -51.1480 C.ar      23 UNK        -0.1150 
     13 C13         4.2433  -20.9870  -50.1601 C.ar      23 UNK        -0.0193 
     14 C14         4.2921  -19.6295  -50.4962 C.ar      23 UNK        -0.1150 
     15 C15         4.5366  -21.4539  -48.7382 C.3       23 UNK        -0.0205 
     16 S16         3.5179  -20.6254  -47.4722 S.3       23 UNK        -0.2404 
     17 C17         1.8339  -21.2318  -47.8329 C.3       23 UNK        -0.0398 
     18 CA          1.3668  -22.4085  -46.9354 C.3       11 UNK         0.1400 
     19 N           1.6402  -22.2027  -45.5087 N.am      11 UNK        -0.5000 
     20 C           1.5530  -23.1427  -44.5577 C.2       10 UNK         0.5000 
     21 O           1.3302  -24.3291  -44.8034 O.2       10 UNK        -0.5000 
     22 CA          1.6580  -22.6671  -43.0919 C.3       10 UNK         0.1400 
     23 CB          2.2682  -23.7310  -42.1561 C.3       10 UNK        -0.1800 
     24 N           2.3166  -21.3650  -42.9341 N.am      10 UNK        -0.5000 
     25 C           3.6055  -21.0601  -43.1437 C.2       9 UNK         0.5000 
     26 O           4.4599  -21.8819  -43.4764 O.2       9 UNK        -0.5000 
     27 CA          4.0156  -19.5828  -42.9687 C.3       9 UNK         0.1400 
     28 CB          4.3793  -18.9608  -44.3252 C.3       9 UNK        -0.1800 
     29 N           2.9846  -18.7533  -42.3395 N.am      9 UNK        -0.5000 
     30 C           2.7229  -18.7153  -41.0266 C.2       8 UNK         0.5000 
     31 O           3.3319  -19.3808  -40.1883 O.2       8 UNK        -0.5000 
     32 CA          1.5723  -17.7929  -40.5788 C.3       8 UNK         0.1400 
     33 CB          2.0411  -16.3321  -40.4970 C.3       8 UNK        -0.1800 
     34 N           0.3984  -17.8790  -41.4500 N.am      8 UNK        -0.5000 
     35 C          -0.3819  -18.9630  -41.5686 C.2       7 UNK         0.5000 
     36 O          -0.1998  -20.0102  -40.9477 O.2       7 UNK        -0.5000 
     37 CA         -1.5378  -18.8777  -42.5809 C.3       7 UNK         0.1400 
     38 CB         -2.7332  -18.1136  -41.9933 C.3       7 UNK        -0.1800 
     39 N          -1.1197  -18.2634  -43.8408 N.am      7 UNK        -0.5000 
     40 C          -0.2619  -18.8341  -44.6972 C.2       6 UNK         0.5000 
     41 O           0.1736  -19.9749  -44.5584 O.2       6 UNK        -0.5000 
     42 CA          0.2080  -18.0032  -45.9006 C.3       6 UNK         0.1400 
     43 CB         -0.7659  -18.1663  -47.0718 C.3       6 UNK        -0.1800 
     44 N           0.3488  -16.5852  -45.5901 N.am      6 UNK        -0.5000 
     45 C           1.2217  -16.0646  -44.7201 C.2       5 UNK         0.5000 
     46 O           2.0438  -16.7292  -44.0927 O.2       5 UNK        -0.5000 
     47 CA          1.1139  -14.5525  -44.4724 C.3       5 UNK         0.1400 
     48 CB          1.7814  -13.7620  -45.6073 C.3       5 UNK        -0.1800 
     49 N          -0.2782  -14.1263  -44.3306 N.am      5 UNK        -0.5000 
     50 C          -1.0627  -14.4375  -43.2904 C.2       4 UNK         0.5000 
     51 O          -0.6861  -15.1055  -42.3264 O.2       4 UNK        -0.5000 
     52 CA         -2.5184  -13.9387  -43.3536 C.3       4 UNK         0.1400 
     53 CB         -2.6102  -12.4765  -42.8923 C.3       4 UNK        -0.1800 
     54 N          -3.1085  -14.0643  -44.6889 N.am      4 UNK        -0.5000 
     55 C          -3.4252  -15.2345  -45.2600 C.2       3 UNK         0.5000 
     56 O          -3.2363  -16.3270  -44.7264 O.2       3 UNK        -0.5000 
     57 CA         -4.0196  -15.1796  -46.6820 C.3       3 UNK         0.1400 
     58 CB         -5.4986  -14.7663  -46.6254 C.3       3 UNK        -0.1800 
     59 N          -3.3118  -14.3120  -47.6342 N.am      3 UNK        -0.5000 
     60 C          -1.9905  -14.3049  -47.8533 C.2       2 UNK         0.5000 
     61 O          -1.1810  -14.9104  -47.1503 O.2       2 UNK        -0.5000 
     62 CA         -1.4740  -13.4651  -49.0384 C.3       2 UNK         0.1400 
     63 CB         -1.4395  -11.9749  -48.6668 C.3       2 UNK        -0.1800 
     64 N          -0.1198  -13.8856  -49.3999 N.am      2 UNK        -0.5000 
     65 C           0.1939  -15.0549  -49.9721 C.2       1 UNK         0.5000 
     66 O          -0.6282  -15.7734  -50.5433 O.2       1 UNK        -0.5000 
     67 C          -0.1357  -22.6827  -47.1682 C.2       11 UNK         0.5000 
     68 O          -0.4859  -23.4360  -48.0756 O.2       11 UNK        -0.5000 
     69 N          -1.0014  -22.1145  -46.3139 N.am      12 UNK        -0.5000 
     70 CA         -2.4618  -22.2602  -46.3467 C.3       12 UNK         0.1400 
     71 CB         -3.0754  -21.3046  -45.3118 C.3       12 UNK        -0.1800 
     72 C          -2.9828  -23.7008  -46.1380 C.2       12 UNK         0.5000 
     73 O          -4.1716  -23.9482  -46.3387 O.2       12 UNK        -0.5000 
     74 N          -2.1012  -24.6303  -45.7473 N.am      13 UNK        -0.5000 
     75 CA         -2.3789  -26.0641  -45.7115 C.3       13 UNK         0.1400 
     76 CB         -1.3811  -26.7344  -44.7545 C.3       13 UNK        -0.1800 
     77 C          -2.3070  -26.7204  -47.1071 C.2       13 UNK         0.5000 
     78 O          -2.9151  -27.7738  -47.3012 O.2       13 UNK        -0.5000 
     79 N          -1.5562  -26.1178  -48.0419 N.am      14 UNK        -0.5000 
     80 CA         -1.2830  -26.6743  -49.3685 C.3       14 UNK         0.1400 
     81 CB          0.1527  -26.3090  -49.7798 C.3       14 UNK        -0.1800 
     82 C          -2.2831  -26.2101  -50.4425 C.2       14 UNK         0.5000 
     83 O          -2.4714  -26.9267  -51.4269 O.2       14 UNK        -0.5000 
     84 N          -2.9070  -25.0413  -50.2533 N.am      15 UNK        -0.5000 
     85 CA         -3.8903  -24.4612  -51.1662 C.3       15 UNK         0.1400 
     86 CB         -3.1856  -23.7535  -52.3388 C.3       15 UNK        -0.1800 
     87 C          -4.7876  -23.4833  -50.3977 C.2       15 UNK         0.5000 
     88 O          -4.4245  -23.0423  -49.3046 O.2       15 UNK        -0.5000 
     89 N          -5.9424  -23.1553  -50.9907 N.am      16 UNK        -0.5000 
     90 CA         -6.9641  -22.2580  -50.4483 C.3       16 UNK         0.1400 
     91 CB         -8.2812  -22.4963  -51.2087 C.3       16 UNK        -0.1800 
     92 C          -6.5267  -20.7796  -50.4918 C.2       16 UNK         0.5000 
     93 O          -7.0703  -19.9920  -51.2693 O.2       16 UNK        -0.5000 
     94 N          -5.5519  -20.4300  -49.6440 N.am      17 UNK        -0.5000 
     95 CA         -4.8908  -19.1231  -49.5484 C.3       17 UNK         0.1400 
     96 CB         -3.8017  -19.2022  -48.4734 C.3       17 UNK        -0.1800 
     97 C          -5.8159  -17.9180  -49.2719 C.2       17 UNK         0.5000 
     98 O          -5.3995  -16.7760  -49.4619 O.2       17 UNK        -0.5000 
     99 N          -7.0516  -18.1835  -48.8287 N.am      18 UNK        -0.5000 
    100 CA        -8.1160  -17.1943  -48.6665 C.3       18 UNK         0.1400 
    101 CB        -9.2684  -17.8364  -47.8791 C.3       18 UNK        -0.1800 
    102 C         -8.6317  -16.6189  -50.0033 C.2       18 UNK         0.5000 
    103 O         -9.2010  -15.5265  -49.9976 O.2       18 UNK        -0.5000 
    104 N         -8.4401  -17.3526  -51.1091 N.am      19 UNK        -0.5000 
    105 CA        -8.8680  -16.9639  -52.4539 C.3       19 UNK         0.1400 
    106 CB       -10.0634  -17.8346  -52.8744 C.3       19 UNK        -0.1800 
    107 C         -7.7259  -17.0790  -53.4767 C.2       19 UNK         0.5000 
    108 O         -7.5820  -16.1949  -54.3226 O.2       19 UNK        -0.5000 
    109 N         -6.9428  -18.1599  -53.3937 N.am      20 UNK        -0.5000 
    110 CA        -5.8002  -18.4431  -54.2590 C.3       20 UNK         0.1400 
    111 CB        -5.7410  -19.9669  -54.4762 C.3       20 UNK        -0.1800 
    112 C         -4.4883  -17.9283  -53.6365 C.2       20 UNK         0.5000 
    113 O         -4.4847  -17.4156  -52.5168 O.2       20 UNK        -0.5000 
    114 N         -3.3855  -18.1054  -54.3705 N.am      21 UNK        -0.5000 
    115 CA        -2.0222  -18.0318  -53.8421 C.3       21 UNK         0.1400 
    116 CB        -1.0976  -17.4992  -54.9510 C.3       21 UNK        -0.1800 
    117 C         -1.5754  -19.4313  -53.3691 C.2       21 UNK         0.5000 
    118 O         -2.3170  -20.4037  -53.5366 O.2       21 UNK        -0.5000 
    119 N         -0.3553  -19.5182  -52.8268 N.am      22 UNK        -0.5000 
    120 CA         0.2619  -20.7559  -52.3240 C.3       22 UNK         0.1400 
    121 C         -0.3864  -21.2684  -51.0036 C.2       22 UNK         0.5000 
    122 N         -0.2572  -22.5465  -50.6877 N.am      22 UNK        -0.7600 
    123 O         -0.9286  -20.4977  -50.2161 O.2       22 UNK        -0.5000 
    124 C124        0.4577  -21.8139  -53.4629 C.3       23 UNK        -0.0398 
    125 S125        1.5842  -23.2175  -53.1192 S.3       23 UNK        -0.2404 
    126 C126        3.2271  -22.5320  -53.5003 C.3       23 UNK        -0.0205 
    127 H127        4.2259  -12.9976  -51.6638 H         1 UNK         0.0600 
    128 H128        4.8456  -12.3169  -50.1567 H         1 UNK         0.0600 
    129 H129        3.4874  -11.5450  -50.9823 H         1 UNK         0.0600 
    130 H130        2.9490  -14.7939  -51.3492 H         1 UNK         0.3000 
    131 H131        1.8618  -15.4968  -48.7642 H         1 UNK         0.0600 
    132 H132        2.8173  -17.3147  -49.7859 H         1 UNK         0.0800 
    133 H133        1.1371  -17.6219  -50.0281 H         1 UNK         0.0800 
    134 H134        4.5717  -17.1445  -51.4683 H         1 UNK         0.0800 
    135 H135        4.3629  -17.5764  -53.1462 H         1 UNK         0.0800 
    136 H136        3.4713  -19.8320  -53.7833 H         1 UNK         0.1150 
    137 H137        3.8724  -22.9740  -50.8986 H         1 UNK         0.1150 
    138 H138        4.5319  -18.9022  -49.7338 H         1 UNK         0.1150 
    139 H139        4.4000  -22.5324  -48.6445 H         1 UNK         0.0800 
    140 H140        5.5873  -21.2586  -48.5206 H         1 UNK         0.0800 
    141 H141        1.7771  -21.5191  -48.8836 H         1 UNK         0.0800 
    142 H142        1.1635  -20.3786  -47.7261 H         1 UNK         0.0800 
    143 H143        1.9132  -23.3009  -47.2477 H         1 UNK         0.0600 
    144 H144        1.7462  -21.2429  -45.2064 H         1 UNK         0.3000 
    145 H145        0.6290  -22.5068  -42.7666 H         1 UNK         0.0600 
    146 H146        2.3263  -23.3670  -41.1303 H         1 UNK         0.0600 
    147 H147        1.6587  -24.6354  -42.1440 H         1 UNK         0.0600 
    148 H148        3.2714  -24.0212  -42.4685 H         1 UNK         0.0600 
    149 H149        1.6977  -20.6019  -42.6944 H         1 UNK         0.3000 
    150 H150        4.9081  -19.5675  -42.3399 H         1 UNK         0.0600 
    151 H151        5.1548  -19.5374  -44.8310 H         1 UNK         0.0600 
    152 H152        4.7557  -17.9449  -44.2047 H         1 UNK         0.0600 
    153 H153        3.5146  -18.9184  -44.9880 H         1 UNK         0.0600 
    154 H154        2.4813  -18.1176  -42.9556 H         1 UNK         0.3000 
    155 H155        1.2687  -18.1053  -39.5775 H         1 UNK         0.0600 
    156 H156        2.8999  -16.2338  -39.8319 H         1 UNK         0.0600 
    157 H157        1.2526  -15.6870  -40.1087 H         1 UNK         0.0600 
    158 H158        2.3355  -15.9464  -41.4734 H         1 UNK         0.0600 
    159 H159        0.1631  -17.0471  -41.9798 H         1 UNK         0.3000 
    160 H160       -1.8653  -19.8971  -42.7919 H         1 UNK         0.0600 
    161 H161       -2.4923  -17.0679  -41.8024 H         1 UNK         0.0600 
    162 H162       -3.0535  -18.5554  -41.0490 H         1 UNK         0.0600 
    163 H163       -3.5870  -18.1418  -42.6704 H         1 UNK         0.0600 
    164 H164       -1.5095  -17.3541  -44.0606 H         1 UNK         0.3000 
    165 H165        1.1863  -18.3802  -46.2052 H         1 UNK         0.0600 
    166 H166       -0.3997  -17.6650  -47.9676 H         1 UNK         0.0600 
    167 H167       -0.9189  -19.2165  -47.3236 H         1 UNK         0.0600 
    168 H168       -1.7383  -17.7402  -46.8250 H         1 UNK         0.0600 
    169 H169       -0.2825  -15.9507  -46.0798 H         1 UNK         0.3000 
    170 H170        1.6400  -14.3260  -43.5426 H         1 UNK         0.0600 
    171 H171        2.8253  -14.0546  -45.7267 H         1 UNK         0.0600 
    172 H172        1.2849  -13.9289  -46.5633 H         1 UNK         0.0600 
    173 H173        1.7653  -12.6910  -45.4058 H         1 UNK         0.0600 
    174 H174       -0.6879  -13.6465  -45.1186 H         1 UNK         0.3000 
    175 H175       -3.1058  -14.5481  -42.6632 H         1 UNK         0.0600 
    176 H176       -2.1920  -12.3563  -41.8920 H         1 UNK         0.0600 
    177 H177       -2.0649  -11.8071  -43.5588 H         1 UNK         0.0600 
    178 H178       -3.6464  -12.1403  -42.8525 H         1 UNK         0.0600 
    179 H179       -3.2791  -13.2117  -45.2015 H         1 UNK         0.3000 
    180 H180       -3.9691  -16.1919  -47.0871 H         1 UNK         0.0600 
    181 H181       -5.6212  -13.7575  -46.2296 H         1 UNK         0.0600 
    182 H182       -6.0694  -15.4430  -45.9882 H         1 UNK         0.0600 
    183 H183       -5.9535  -14.7916  -47.6152 H         1 UNK         0.0600 
    184 H184       -3.9007  -13.7706  -48.2500 H         1 UNK         0.3000 
    185 H185       -2.1356  -13.6126  -49.8944 H         1 UNK         0.0600 
    186 H186       -2.4354  -11.6071  -48.4172 H         1 UNK         0.0600 
    187 H187       -0.7947  -11.7900  -47.8063 H         1 UNK         0.0600 
    188 H188       -1.0703  -11.3714  -49.4963 H         1 UNK         0.0600 
    189 H189        0.6420  -13.3697  -48.9706 H         1 UNK         0.3000 
    190 H190       -0.6253  -21.5114  -45.5895 H         1 UNK         0.3000 
    191 H191       -2.7959  -21.9504  -47.3381 H         1 UNK         0.0600 
    192 H192       -2.7537  -21.5539  -44.3005 H         1 UNK         0.0600 
    193 H193       -4.1650  -21.3506  -45.3314 H         1 UNK         0.0600 
    194 H194       -2.7958  -20.2705  -45.5118 H         1 UNK         0.0600 
    195 H195       -1.1438  -24.3508  -45.5856 H         1 UNK         0.3000 
    196 H196       -3.3854  -26.2236  -45.3185 H         1 UNK         0.0600 
    197 H197       -1.5779  -27.8039  -44.6705 H         1 UNK         0.0600 
    198 H198       -1.4500  -26.3115  -43.7521 H         1 UNK         0.0600 
    199 H199       -0.3525  -26.6157  -45.0981 H         1 UNK         0.0600 
    200 H200       -1.1239  -25.2218  -47.8375 H         1 UNK         0.3000 
    201 H201       -1.3405  -27.7640  -49.3213 H         1 UNK         0.0600 
    202 H202        0.8765  -26.6730  -49.0507 H         1 UNK         0.0600 
    203 H203        0.2873  -25.2323  -49.8753 H         1 UNK         0.0600 
    204 H204        0.4082  -26.7550  -50.7419 H         1 UNK         0.0600 
    205 H205       -2.7551  -24.5143  -49.4026 H         1 UNK         0.3000 
    206 H206       -4.5237  -25.2614  -51.5551 H         1 UNK         0.0600 
    207 H207       -2.4798  -24.4120  -52.8447 H         1 UNK         0.0600 
    208 H208       -3.9066  -23.4181  -53.0849 H         1 UNK         0.0600 
    209 H209       -2.6407  -22.8721  -52.0033 H         1 UNK         0.0600 
    210 H210       -6.1401  -23.5400  -51.9029 H         1 UNK         0.3000 
    211 H211       -7.1335  -22.5186  -49.4014 H         1 UNK         0.0600 
    212 H212       -9.0767  -21.8571  -50.8231 H         1 UNK         0.0600 
    213 H213       -8.6165  -23.5282  -51.1036 H         1 UNK         0.0600 
    214 H214       -8.1771  -22.2839  -52.2737 H         1 UNK         0.0600 
    215 H215       -5.1273  -21.1830  -49.1114 H         1 UNK         0.3000 
    216 H216       -4.3999  -18.9483  -50.5052 H         1 UNK         0.0600 
    217 H217       -3.2399  -18.2694  -48.4439 H         1 UNK         0.0600 
    218 H218       -3.0906  -19.9993  -48.6877 H         1 UNK         0.0600 
    219 H219       -4.2206  -19.3739  -47.4814 H         1 UNK         0.0600 
    220 H220       -7.3048  -19.1498  -48.6876 H         1 UNK         0.3000 
    221 H221       -7.7239  -16.3626  -48.0791 H         1 UNK         0.0600 
    222 H222       -9.6944  -18.6875  -48.4121 H         1 UNK         0.0600 
    223 H223       -8.9335  -18.1840  -46.9016 H         1 UNK         0.0600 
    224 H224      -10.0729  -17.1195  -47.7093 H         1 UNK         0.0600 
    225 H225       -7.9425  -18.2332  -51.0280 H         1 UNK         0.3000 
    226 H226       -9.1911  -15.9209  -52.4629 H         1 UNK         0.0600 
    227 H227      -10.9097  -17.6897  -52.2028 H         1 UNK         0.0600 
    228 H228      -10.3988  -17.5802  -53.8806 H         1 UNK         0.0600 
    229 H229       -9.8098  -18.8955  -52.8688 H         1 UNK         0.0600 
    230 H230       -7.0851  -18.8256  -52.6382 H         1 UNK         0.3000 
    231 H231       -5.9357  -17.9572  -55.2274 H         1 UNK         0.0600 
    232 H232       -6.6895  -20.3496  -54.8536 H         1 UNK         0.0600 
    233 H233       -5.5118  -20.4963  -53.5502 H         1 UNK         0.0600 
    234 H234       -4.9741  -20.2371  -55.2027 H         1 UNK         0.0600 
    235 H235       -3.4770  -18.5721  -55.2610 H         1 UNK         0.3000 
    236 H236       -1.9779  -17.3499  -52.9897 H         1 UNK         0.0600 
    237 H237       -0.0798  -17.3588  -54.5854 H         1 UNK         0.0600 
    238 H238       -1.0512  -18.1822  -55.8002 H         1 UNK         0.0600 
    239 H239       -1.4416  -16.5319  -55.3178 H         1 UNK         0.0600 
    240 H240        0.1854  -18.6753  -52.6909 H         1 UNK         0.3000 
    241 H241        1.2433  -20.4326  -51.9945 H         1 UNK         0.0600 
    242 H242       -0.5815  -22.8759  -49.7837 H         1 UNK         0.3800 
    243 H243        0.2341  -23.1721  -51.3090 H         1 UNK         0.3800 
    244 H244       -0.5066  -22.2428  -53.7374 H         1 UNK         0.0800 
    245 H245        0.8216  -21.3157  -54.3624 H         1 UNK         0.0800 
    246 H246        3.9543  -23.3449  -53.5214 H         1 UNK         0.0800 
    247 H247        3.2219  -22.0967  -54.5009 H         1 UNK         0.0800 
@<TRIPOS>BOND
     1    1    2 1    
     2    1  127 1    
     3    1  128 1    
     4    1  129 1    
     5    2    3 2    
     6    2    4 am   BACKBONE|DICT|INTERRES
     7    4    5 1    
     8    4  130 1    
     9    5    6 1    
    10    5   65 1    
    11    5  131 1    
    12    6    7 1    
    13    6  132 1    
    14    6  133 1    
    15    7    8 1    
    16    8    9 1    
    17    8  134 1    
    18    8  135 1    
    19    9   10 ar   
    20    9   14 ar   
    21   10   11 ar   
    22   10  136 1    
    23   11   12 ar   
    24   11  126 1    
    25   12   13 ar   
    26   12  137 1    
    27   13   14 ar   
    28   13   15 1    
    29   14  138 1    
    30   15   16 1    
    31   15  139 1    
    32   15  140 1    
    33   16   17 1    
    34   17   18 1    
    35   17  141 1    
    36   17  142 1    
    37   18   19 1    
    38   18   67 1    
    39   18  143 1    
    40   19   20 am   BACKBONE|DICT|INTERRES
    41   19  144 1    
    42   20   21 2    
    43   20   22 1    
    44   22   23 1    
    45   22   24 1    
    46   22  145 1    
    47   23  146 1    
    48   23  147 1    
    49   23  148 1    
    50   24   25 am   BACKBONE|DICT|INTERRES
    51   24  149 1    
    52   25   26 2    
    53   25   27 1    
    54   27   28 1    
    55   27   29 1    
    56   27  150 1    
    57   28  151 1    
    58   28  152 1    
    59   28  153 1    
    60   29   30 am   BACKBONE|DICT|INTERRES
    61   29  154 1    
    62   30   31 2    
    63   30   32 1    
    64   32   33 1    
    65   32   34 1    
    66   32  155 1    
    67   33  156 1    
    68   33  157 1    
    69   33  158 1    
    70   34   35 am   BACKBONE|DICT|INTERRES
    71   34  159 1    
    72   35   36 2    
    73   35   37 1    
    74   37   38 1    
    75   37   39 1    
    76   37  160 1    
    77   38  161 1    
    78   38  162 1    
    79   38  163 1    
    80   39   40 am   BACKBONE|DICT|INTERRES
    81   39  164 1    
    82   40   41 2    
    83   40   42 1    
    84   42   43 1    
    85   42   44 1    
    86   42  165 1    
    87   43  166 1    
    88   43  167 1    
    89   43  168 1    
    90   44   45 am   BACKBONE|DICT|INTERRES
    91   44  169 1    
    92   45   46 2    
    93   45   47 1    
    94   47   48 1    
    95   47   49 1    
    96   47  170 1    
    97   48  171 1    
    98   48  172 1    
    99   48  173 1    
   100   49   50 am   BACKBONE|DICT|INTERRES
   101   49  174 1    
   102   50   51 2    
   103   50   52 1    
   104   52   53 1    
   105   52   54 1    
   106   52  175 1    
   107   53  176 1    
   108   53  177 1    
   109   53  178 1    
   110   54   55 am   BACKBONE|DICT|INTERRES
   111   54  179 1    
   112   55   56 2    
   113   55   57 1    
   114   57   58 1    
   115   57   59 1    
   116   57  180 1    
   117   58  181 1    
   118   58  182 1    
   119   58  183 1    
   120   59   60 am   BACKBONE|DICT|INTERRES
   121   59  184 1    
   122   60   61 2    
   123   60   62 1    
   124   62   63 1    
   125   62   64 1    
   126   62  185 1    
   127   63  186 1    
   128   63  187 1    
   129   63  188 1    
   130   64   65 am   BACKBONE|DICT|INTERRES
   131   64  189 1    
   132   65   66 2    
   133   67   68 2    
   134   67   69 am   BACKBONE|DICT|INTERRES
   135   69   70 1    
   136   69  190 1    
   137   70   71 1    
   138   70   72 1    
   139   70  191 1    
   140   71  192 1    
   141   71  193 1    
   142   71  194 1    
   143   72   73 2    
   144   72   74 am   BACKBONE|DICT|INTERRES
   145   74   75 1    
   146   74  195 1    
   147   75   76 1    
   148   75   77 1    
   149   75  196 1    
   150   76  197 1    
   151   76  198 1    
   152   76  199 1    
   153   77   78 2    
   154   77   79 am   BACKBONE|DICT|INTERRES
   155   79   80 1    
   156   79  200 1    
   157   80   81 1    
   158   80   82 1    
   159   80  201 1    
   160   81  202 1    
   161   81  203 1    
   162   81  204 1    
   163   82   83 2    
   164   82   84 am   BACKBONE|DICT|INTERRES
   165   84   85 1    
   166   84  205 1    
   167   85   86 1    
   168   85   87 1    
   169   85  206 1    
   170   86  207 1    
   171   86  208 1    
   172   86  209 1    
   173   87   88 2    
   174   87   89 am   BACKBONE|DICT|INTERRES
   175   89   90 1    
   176   89  210 1    
   177   90   91 1    
   178   90   92 1    
   179   90  211 1    
   180   91  212 1    
   181   91  213 1    
   182   91  214 1    
   183   92   93 2    
   184   92   94 am   BACKBONE|DICT|INTERRES
   185   94   95 1    
   186   94  215 1    
   187   95   96 1    
   188   95   97 1    
   189   95  216 1    
   190   96  217 1    
   191   96  218 1    
   192   96  219 1    
   193   97   98 2    
   194   97   99 am   BACKBONE|DICT|INTERRES
   195   99  100 1    
   196   99  220 1    
   197  100  101 1    
   198  100  102 1    
   199  100  221 1    
   200  101  222 1    
   201  101  223 1    
   202  101  224 1    
   203  102  103 2    
   204  102  104 am   BACKBONE|DICT|INTERRES
   205  104  105 1    
   206  104  225 1    
   207  105  106 1    
   208  105  107 1    
   209  105  226 1    
   210  106  227 1    
   211  106  228 1    
   212  106  229 1    
   213  107  108 2    
   214  107  109 am   BACKBONE|DICT|INTERRES
   215  109  110 1    
   216  109  230 1    
   217  110  111 1    
   218  110  112 1    
   219  110  231 1    
   220  111  232 1    
   221  111  233 1    
   222  111  234 1    
   223  112  113 2    
   224  112  114 am   BACKBONE|DICT|INTERRES
   225  114  115 1    
   226  114  235 1    
   227  115  116 1    
   228  115  117 1    
   229  115  236 1    
   230  116  237 1    
   231  116  238 1    
   232  116  239 1    
   233  117  118 2    
   234  117  119 am   BACKBONE|DICT|INTERRES
   235  119  120 1    
   236  119  240 1    
   237  120  121 1    
   238  120  124 1    
   239  120  241 1    
   240  121  122 am   BACKBONE|DICT|INTERRES
   241  121  123 2    
   242  122  242 1    
   243  122  243 1    
   244  124  125 1    
   245  124  244 1    
   246  124  245 1    
   247  125  126 1    
   248  126  246 1    
   249  126  247 1    
@<TRIPOS>SUBSTRUCTURE
     1 UNK         1 GROUP             0       ****    0 ROOT    
