@<TRIPOS>MOLECULE
3R540
247   249    1
SMALL
USER_CHARGES


@<TRIPOS>ATOM
      1 CA         -3.9050  -11.5094  -44.9567 C.3       0 UNK        -0.1800 
      2 C          -2.5571  -11.8584  -45.5721 C.2       0 UNK         0.5000 
      3 O          -1.5496  -11.8453  -44.8661 O.2       0 UNK        -0.5000 
      4 N          -2.5500  -12.1805  -46.8745 N.am      1 UNK        -0.5000 
      5 CA         -1.3847  -12.5230  -47.7026 C.3       1 UNK         0.1400 
      6 C6         -0.5232  -13.6603  -47.0848 C.3       23 UNK        -0.0398 
      7 S7          0.4800  -14.5863  -48.2936 S.3       23 UNK        -0.2404 
      8 C8         -0.7089  -15.8539  -48.8240 C.3       23 UNK        -0.0205 
      9 C9         -0.0602  -16.8714  -49.7480 C.ar      23 UNK        -0.0193 
     10 C10         0.2821  -16.5183  -51.0562 C.ar      23 UNK        -0.1150 
     11 C11         0.8751  -17.4516  -51.9111 C.ar      23 UNK        -0.0193 
     12 C12         1.1135  -18.7504  -51.4522 C.ar      23 UNK        -0.1150 
     13 C13         0.7686  -19.1178  -50.1483 C.ar      23 UNK        -0.0193 
     14 C14         0.1859  -18.1722  -49.3014 C.ar      23 UNK        -0.1150 
     15 C15         1.0417  -20.5312  -49.6574 C.3       23 UNK        -0.0205 
     16 S16        -0.3864  -21.6246  -49.9330 S.3       23 UNK        -0.2404 
     17 C17        -1.2442  -21.5303  -48.3268 C.3       23 UNK        -0.0398 
     18 CA         -0.8987  -22.7432  -47.4158 C.3       11 UNK         0.1400 
     19 N          -0.1421  -22.3629  -46.2185 N.am      11 UNK        -0.5000 
     20 C           0.4229  -23.2334  -45.3684 C.2       10 UNK         0.5000 
     21 O           0.4189  -24.4520  -45.5362 O.2       10 UNK        -0.5000 
     22 CA          1.0406  -22.6586  -44.0819 C.3       10 UNK         0.1400 
     23 CB          2.4493  -22.1067  -44.3442 C.3       10 UNK        -0.1800 
     24 N           0.1963  -21.6298  -43.4728 N.am      10 UNK        -0.5000 
     25 C          -1.0329  -21.8591  -42.9870 C.2       9 UNK         0.5000 
     26 O          -1.5477  -22.9766  -42.9405 O.2       9 UNK        -0.5000 
     27 CA         -1.8429  -20.6351  -42.5199 C.3       9 UNK         0.1400 
     28 CB         -1.4468  -20.2303  -41.0926 C.3       9 UNK        -0.1800 
     29 N          -1.7025  -19.4849  -43.4140 N.am      9 UNK        -0.5000 
     30 C          -2.0919  -19.4590  -44.6968 C.2       8 UNK         0.5000 
     31 O          -2.6599  -20.3931  -45.2615 O.2       8 UNK        -0.5000 
     32 CA         -1.7210  -18.2033  -45.5062 C.3       8 UNK         0.1400 
     33 CB         -2.7044  -17.0549  -45.2350 C.3       8 UNK        -0.1800 
     34 N          -0.3472  -17.7667  -45.2459 N.am      8 UNK        -0.5000 
     35 C           0.7398  -18.4997  -45.5313 C.2       7 UNK         0.5000 
     36 O           0.6964  -19.5884  -46.1025 O.2       7 UNK        -0.5000 
     37 CA          2.0928  -17.9533  -45.0524 C.3       7 UNK         0.1400 
     38 CB          2.6502  -16.9264  -46.0486 C.3       7 UNK        -0.1800 
     39 N           1.9873  -17.3606  -43.7188 N.am      7 UNK        -0.5000 
     40 C           1.8387  -18.0788  -42.5947 C.2       6 UNK         0.5000 
     41 O           1.8220  -19.3089  -42.5742 O.2       6 UNK        -0.5000 
     42 CA          1.6337  -17.3035  -41.2777 C.3       6 UNK         0.1400 
     43 CB          2.9875  -16.9771  -40.6303 C.3       6 UNK        -0.1800 
     44 N           0.8739  -16.0657  -41.4499 N.am      6 UNK        -0.5000 
     45 C          -0.3910  -15.9957  -41.8873 C.2       5 UNK         0.5000 
     46 O          -1.0887  -16.9854  -42.1054 O.2       5 UNK        -0.5000 
     47 CA         -0.9527  -14.5908  -42.1885 C.3       5 UNK         0.1400 
     48 CB         -1.8159  -14.0934  -41.0203 C.3       5 UNK        -0.1800 
     49 N           0.0697  -13.5833  -42.4963 N.am      5 UNK        -0.5000 
     50 C           0.9442  -13.6611  -43.5076 C.2       4 UNK         0.5000 
     51 O           1.0259  -14.6325  -44.2655 O.2       4 UNK        -0.5000 
     52 CA          1.9216  -12.4893  -43.6663 C.3       4 UNK         0.1400 
     53 CB          2.9811  -12.5086  -42.5475 C.3       4 UNK        -0.1800 
     54 N           2.5683  -12.6055  -44.9685 N.am      4 UNK        -0.5000 
     55 C           3.2178  -11.6355  -45.6195 C.2       3 UNK         0.5000 
     56 O           3.3671  -10.4962  -45.1764 O.2       3 UNK        -0.5000 
     57 CA          3.7817  -11.9932  -47.0073 C.3       3 UNK         0.1400 
     58 CB          4.2401  -13.4609  -47.1180 C.3       3 UNK        -0.1800 
     59 N           2.7690  -11.7350  -48.0249 N.am      3 UNK        -0.5000 
     60 C           2.5266  -10.5467  -48.5970 C.2       2 UNK         0.5000 
     61 O           3.2124   -9.5404  -48.4142 O.2       2 UNK        -0.5000 
     62 CA          1.3008  -10.4709  -49.5302 C.3       2 UNK         0.1400 
     63 CB          1.7123  -10.7428  -50.9853 C.3       2 UNK        -0.1800 
     64 N           0.2572  -11.4225  -49.1429 N.am      2 UNK        -0.5000 
     65 C          -0.5301  -11.2860  -48.0679 C.2       1 UNK         0.5000 
     66 O          -0.5711  -10.2574  -47.3890 O.2       1 UNK        -0.5000 
     67 C          -2.1544  -23.5630  -47.0571 C.2       11 UNK         0.5000 
     68 O          -2.3906  -24.6037  -47.6691 O.2       11 UNK        -0.5000 
     69 N          -2.9206  -23.1129  -46.0533 N.am      12 UNK        -0.5000 
     70 CA         -4.0997  -23.8087  -45.5288 C.3       12 UNK         0.1400 
     71 CB         -4.7625  -22.9620  -44.4327 C.3       12 UNK        -0.1800 
     72 C          -3.7904  -25.2305  -45.0239 C.2       12 UNK         0.5000 
     73 O          -4.5690  -26.1482  -45.2843 O.2       12 UNK        -0.5000 
     74 N          -2.6467  -25.3862  -44.3466 N.am      13 UNK        -0.5000 
     75 CA         -2.1483  -26.6622  -43.8467 C.3       13 UNK         0.1400 
     76 CB         -1.0891  -26.4021  -42.7627 C.3       13 UNK        -0.1800 
     77 C          -1.5897  -27.5693  -44.9598 C.2       13 UNK         0.5000 
     78 O          -2.0422  -28.7067  -45.0963 O.2       13 UNK        -0.5000 
     79 N          -0.5888  -27.0762  -45.7013 N.am      14 UNK        -0.5000 
     80 CA          0.2518  -27.8970  -46.5755 C.3       14 UNK         0.1400 
     81 CB          1.6783  -27.3248  -46.5796 C.3       14 UNK        -0.1800 
     82 C          -0.2698  -28.0139  -48.0159 C.2       14 UNK         0.5000 
     83 O          -0.1223  -29.0775  -48.6194 O.2       14 UNK        -0.5000 
     84 N          -0.8409  -26.9296  -48.5543 N.am      15 UNK        -0.5000 
     85 CA         -1.2769  -26.8354  -49.9523 C.3       15 UNK         0.1400 
     86 CB         -0.8351  -25.4749  -50.5197 C.3       15 UNK        -0.1800 
     87 C          -2.7963  -27.0266  -50.1149 C.2       15 UNK         0.5000 
     88 O          -3.2790  -27.0323  -51.2479 O.2       15 UNK        -0.5000 
     89 N          -3.5168  -27.1705  -48.9918 N.am      16 UNK        -0.5000 
     90 CA         -4.9778  -27.2086  -48.8734 C.3       16 UNK         0.1400 
     91 CB         -5.5705  -28.4476  -49.5777 C.3       16 UNK        -0.1800 
     92 C          -5.6244  -25.8779  -49.3141 C.2       16 UNK         0.5000 
     93 O          -6.6377  -25.8764  -50.0156 O.2       16 UNK        -0.5000 
     94 N          -5.0099  -24.7718  -48.8736 N.am      17 UNK        -0.5000 
     95 CA         -5.3585  -23.3776  -49.1437 C.3       17 UNK         0.1400 
     96 CB         -6.7905  -23.0384  -48.6680 C.3       17 UNK        -0.1800 
     97 C          -5.0371  -22.9878  -50.5981 C.2       17 UNK         0.5000 
     98 O          -3.9325  -23.2764  -51.0593 O.2       17 UNK        -0.5000 
     99 N          -5.9691  -22.2890  -51.2637 N.am      18 UNK        -0.5000 
    100 CA        -5.8419  -21.6905  -52.6000 C.3       18 UNK         0.1400 
    101 CB        -5.6345  -22.7679  -53.6851 C.3       18 UNK        -0.1800 
    102 C         -4.7889  -20.5616  -52.6667 C.2       18 UNK         0.5000 
    103 O         -4.2596  -20.2765  -53.7404 O.2       18 UNK        -0.5000 
    104 N         -4.5375  -19.9001  -51.5264 N.am      19 UNK        -0.5000 
    105 CA        -3.5809  -18.7986  -51.3648 C.3       19 UNK         0.1400 
    106 CB        -3.5018  -18.4338  -49.8742 C.3       19 UNK        -0.1800 
    107 C         -3.9135  -17.5503  -52.2090 C.2       19 UNK         0.5000 
    108 O         -3.0141  -16.7829  -52.5447 O.2       19 UNK        -0.5000 
    109 N         -5.1960  -17.3805  -52.5566 N.am      20 UNK        -0.5000 
    110 CA        -5.6925  -16.3242  -53.4398 C.3       20 UNK         0.1400 
    111 CB        -7.1960  -16.1395  -53.1781 C.3       20 UNK        -0.1800 
    112 C         -5.4371  -16.6015  -54.9374 C.2       20 UNK         0.5000 
    113 O         -5.6185  -15.6936  -55.7498 O.2       20 UNK        -0.5000 
    114 N         -5.0458  -17.8347  -55.2855 N.am      21 UNK        -0.5000 
    115 CA        -4.8309  -18.3051  -56.6539 C.3       21 UNK         0.1400 
    116 CB        -6.0564  -19.1254  -57.0985 C.3       21 UNK        -0.1800 
    117 C         -3.5139  -19.0975  -56.7511 C.2       21 UNK         0.5000 
    118 O         -3.4336  -20.0766  -57.4952 O.2       21 UNK        -0.5000 
    119 N         -2.5052  -18.6676  -55.9831 N.am      22 UNK        -0.5000 
    120 CA        -1.1883  -19.3141  -55.8689 C.3       22 UNK         0.1400 
    121 C         -0.2608  -19.1948  -57.1166 C.2       22 UNK         0.5000 
    122 N         -0.5760  -18.3705  -58.1085 N.am      22 UNK        -0.7600 
    123 O          0.7595  -19.8743  -57.1902 O.2       22 UNK        -0.5000 
    124 C124       -0.4683  -18.8863  -54.5652 C.3       23 UNK        -0.0398 
    125 S125       -0.1420  -17.0902  -54.4647 S.3       23 UNK        -0.2404 
    126 C126        1.2728  -17.0489  -53.3232 C.3       23 UNK        -0.0205 
    127 H127       -4.7164  -11.5900  -45.6805 H         1 UNK         0.0600 
    128 H128       -3.8891  -10.4884  -44.5754 H         1 UNK         0.0600 
    129 H129       -4.1223  -12.1811  -44.1262 H         1 UNK         0.0600 
    130 H130       -3.4244  -12.1392  -47.3792 H         1 UNK         0.3000 
    131 H131       -1.8144  -12.8933  -48.6347 H         1 UNK         0.0600 
    132 H132        0.1503  -13.2542  -46.3317 H         1 UNK         0.0800 
    133 H133       -1.1548  -14.3712  -46.5528 H         1 UNK         0.0800 
    134 H134       -1.1228  -16.3512  -47.9464 H         1 UNK         0.0800 
    135 H135       -1.5456  -15.3785  -49.3379 H         1 UNK         0.0800 
    136 H136        0.0894  -15.5147  -51.4083 H         1 UNK         0.1150 
    137 H137        1.5699  -19.4770  -52.1094 H         1 UNK         0.1150 
    138 H138       -0.0814  -18.4515  -48.2953 H         1 UNK         0.1150 
    139 H139        1.9011  -20.9439  -50.1877 H         1 UNK         0.0800 
    140 H140        1.3180  -20.5246  -48.6018 H         1 UNK         0.0800 
    141 H141       -2.3114  -21.4733  -48.5491 H         1 UNK         0.0800 
    142 H142       -1.0129  -20.5842  -47.8395 H         1 UNK         0.0800 
    143 H143       -0.2518  -23.4286  -47.9683 H         1 UNK         0.0600 
    144 H144       -0.0455  -21.3689  -46.0311 H         1 UNK         0.3000 
    145 H145        1.1310  -23.4779  -43.3656 H         1 UNK         0.0600 
    146 H146        2.9130  -21.7560  -43.4222 H         1 UNK         0.0600 
    147 H147        3.0974  -22.8788  -44.7605 H         1 UNK         0.0600 
    148 H148        2.4365  -21.2765  -45.0493 H         1 UNK         0.0600 
    149 H149        0.5821  -20.6934  -43.4211 H         1 UNK         0.3000 
    150 H150       -2.8971  -20.9185  -42.5107 H         1 UNK         0.0600 
    151 H151       -1.5853  -21.0607  -40.3992 H         1 UNK         0.0600 
    152 H152       -2.0568  -19.4009  -40.7343 H         1 UNK         0.0600 
    153 H153       -0.4019  -19.9257  -41.0355 H         1 UNK         0.0600 
    154 H154       -1.2928  -18.6450  -43.0137 H         1 UNK         0.3000 
    155 H155       -1.7950  -18.4622  -46.5642 H         1 UNK         0.0600 
    156 H156       -2.6849  -16.7374  -44.1931 H         1 UNK         0.0600 
    157 H157       -3.7266  -17.3601  -45.4623 H         1 UNK         0.0600 
    158 H158       -2.4832  -16.1870  -45.8541 H         1 UNK         0.0600 
    159 H159       -0.2224  -16.8903  -44.7592 H         1 UNK         0.3000 
    160 H160        2.7955  -18.7878  -45.0043 H         1 UNK         0.0600 
    161 H161        1.9735  -16.0838  -46.1815 H         1 UNK         0.0600 
    162 H162        2.7975  -17.3785  -47.0304 H         1 UNK         0.0600 
    163 H163        3.6135  -16.5367  -45.7198 H         1 UNK         0.0600 
    164 H164        1.9090  -16.3504  -43.6795 H         1 UNK         0.3000 
    165 H165        1.0742  -17.9477  -40.5967 H         1 UNK         0.0600 
    166 H166        2.8558  -16.5007  -39.6587 H         1 UNK         0.0600 
    167 H167        3.5718  -17.8842  -40.4697 H         1 UNK         0.0600 
    168 H168        3.5823  -16.3093  -41.2549 H         1 UNK         0.0600 
    169 H169        1.3710  -15.2017  -41.2947 H         1 UNK         0.3000 
    170 H170       -1.5920  -14.6827  -43.0690 H         1 UNK         0.0600 
    171 H171       -2.6035  -14.8100  -40.7831 H         1 UNK         0.0600 
    172 H172       -1.2231  -13.9451  -40.1169 H         1 UNK         0.0600 
    173 H173       -2.3019  -13.1484  -41.2641 H         1 UNK         0.0600 
    174 H174        0.0664  -12.7548  -41.9191 H         1 UNK         0.3000 
    175 H175        1.3513  -11.5587  -43.6299 H         1 UNK         0.0600 
    176 H176        3.5653  -13.4296  -42.5655 H         1 UNK         0.0600 
    177 H177        3.6746  -11.6729  -42.6410 H         1 UNK         0.0600 
    178 H178        2.5194  -12.4304  -41.5627 H         1 UNK         0.0600 
    179 H179        2.4451  -13.5132  -45.3996 H         1 UNK         0.3000 
    180 H180        4.6522  -11.3578  -47.1842 H         1 UNK         0.0600 
    181 H181        3.4055  -14.1607  -47.0708 H         1 UNK         0.0600 
    182 H182        4.9362  -13.7170  -46.3182 H         1 UNK         0.0600 
    183 H183        4.7568  -13.6343  -48.0621 H         1 UNK         0.0600 
    184 H184        2.1432  -12.4987  -48.2352 H         1 UNK         0.3000 
    185 H185        0.8948   -9.4587  -49.4716 H         1 UNK         0.0600 
    186 H186        2.4759  -10.0361  -51.3129 H         1 UNK         0.0600 
    187 H187        2.1197  -11.7471  -51.1089 H         1 UNK         0.0600 
    188 H188        0.8633  -10.6389  -51.6612 H         1 UNK         0.0600 
    189 H189        0.2275  -12.2892  -49.6616 H         1 UNK         0.3000 
    190 H190       -2.6927  -22.2184  -45.6245 H         1 UNK         0.3000 
    191 H191       -4.8188  -23.9030  -46.3405 H         1 UNK         0.0600 
    192 H192       -5.0324  -21.9741  -44.8063 H         1 UNK         0.0600 
    193 H193       -5.6775  -23.4360  -44.0756 H         1 UNK         0.0600 
    194 H194       -4.1079  -22.8276  -43.5727 H         1 UNK         0.0600 
    195 H195       -2.0901  -24.5636  -44.1389 H         1 UNK         0.3000 
    196 H196       -2.9791  -27.1914  -43.3750 H         1 UNK         0.0600 
    197 H197       -0.6938  -27.3389  -42.3682 H         1 UNK         0.0600 
    198 H198       -1.5139  -25.8492  -41.9247 H         1 UNK         0.0600 
    199 H199       -0.2474  -25.8247  -43.1468 H         1 UNK         0.0600 
    200 H200       -0.2840  -26.1146  -45.5560 H         1 UNK         0.3000 
    201 H201        0.3101  -28.9078  -46.1653 H         1 UNK         0.0600 
    202 H202        2.0840  -27.2682  -45.5694 H         1 UNK         0.0600 
    203 H203        1.7105  -26.3231  -47.0099 H         1 UNK         0.0600 
    204 H204        2.3497  -27.9539  -47.1653 H         1 UNK         0.0600 
    205 H205       -0.9951  -26.1065  -47.9831 H         1 UNK         0.3000 
    206 H206       -0.7922  -27.6107  -50.5490 H         1 UNK         0.0600 
    207 H207        0.2319  -25.3084  -50.3717 H         1 UNK         0.0600 
    208 H208       -1.0262  -25.4206  -51.5920 H         1 UNK         0.0600 
    209 H209       -1.3722  -24.6465  -50.0586 H         1 UNK         0.0600 
    210 H210       -3.0085  -27.1311  -48.1195 H         1 UNK         0.3000 
    211 H211       -5.1914  -27.3089  -47.8083 H         1 UNK         0.0600 
    212 H212       -5.4668  -28.3918  -50.6614 H         1 UNK         0.0600 
    213 H213       -6.6343  -28.5457  -49.3587 H         1 UNK         0.0600 
    214 H214       -5.0845  -29.3629  -49.2400 H         1 UNK         0.0600 
    215 H215       -4.1202  -24.8966  -48.3977 H         1 UNK         0.3000 
    216 H216       -4.6784  -22.7813  -48.5353 H         1 UNK         0.0600 
    217 H217       -6.9728  -21.9637  -48.7009 H         1 UNK         0.0600 
    218 H218       -6.9423  -23.3518  -47.6350 H         1 UNK         0.0600 
    219 H219       -7.5558  -23.5240  -49.2740 H         1 UNK         0.0600 
    220 H220       -6.8479  -22.1173  -50.7950 H         1 UNK         0.3000 
    221 H221       -6.7998  -21.2102  -52.8038 H         1 UNK         0.0600 
    222 H222       -4.6533  -23.2374  -53.6106 H         1 UNK         0.0600 
    223 H223       -6.3883  -23.5518  -53.6123 H         1 UNK         0.0600 
    224 H224       -5.7116  -22.3362  -54.6838 H         1 UNK         0.0600 
    225 H225       -5.0297  -20.1900  -50.6953 H         1 UNK         0.3000 
    226 H226       -2.5989  -19.1553  -51.6830 H         1 UNK         0.0600 
    227 H227       -3.1206  -19.2655  -49.2827 H         1 UNK         0.0600 
    228 H228       -2.8311  -17.5909  -49.7142 H         1 UNK         0.0600 
    229 H229       -4.4769  -18.1527  -49.4748 H         1 UNK         0.0600 
    230 H230       -5.8734  -18.0530  -52.2297 H         1 UNK         0.3000 
    231 H231       -5.1858  -15.3897  -53.1895 H         1 UNK         0.0600 
    232 H232       -7.7595  -17.0432  -53.4139 H         1 UNK         0.0600 
    233 H233       -7.6036  -15.3309  -53.7863 H         1 UNK         0.0600 
    234 H234       -7.3870  -15.8860  -52.1351 H         1 UNK         0.0600 
    235 H235       -4.8651  -18.5249  -54.5630 H         1 UNK         0.3000 
    236 H236       -4.7229  -17.4569  -57.3326 H         1 UNK         0.0600 
    237 H237       -6.9703  -18.5349  -57.0331 H         1 UNK         0.0600 
    238 H238       -5.9576  -19.4535  -58.1338 H         1 UNK         0.0600 
    239 H239       -6.1863  -20.0142  -56.4797 H         1 UNK         0.0600 
    240 H240       -2.6451  -17.8508  -55.4056 H         1 UNK         0.3000 
    241 H241       -1.3847  -20.3836  -55.7705 H         1 UNK         0.0600 
    242 H242        0.0279  -18.3055  -58.9128 H         1 UNK         0.3800 
    243 H243       -1.4082  -17.8056  -58.0582 H         1 UNK         0.3800 
    244 H244       -1.0757  -19.1663  -53.7034 H         1 UNK         0.0800 
    245 H245        0.4691  -19.4341  -54.4558 H         1 UNK         0.0800 
    246 H246        1.6826  -16.0379  -53.3092 H         1 UNK         0.0800 
    247 H247        2.0688  -17.6928  -53.7002 H         1 UNK         0.0800 
@<TRIPOS>BOND
     1    1    2 1    
     2    1  127 1    
     3    1  128 1    
     4    1  129 1    
     5    2    3 2    
     6    2    4 am   BACKBONE|DICT|INTERRES
     7    4    5 1    
     8    4  130 1    
     9    5    6 1    
    10    5   65 1    
    11    5  131 1    
    12    6    7 1    
    13    6  132 1    
    14    6  133 1    
    15    7    8 1    
    16    8    9 1    
    17    8  134 1    
    18    8  135 1    
    19    9   10 ar   
    20    9   14 ar   
    21   10   11 ar   
    22   10  136 1    
    23   11   12 ar   
    24   11  126 1    
    25   12   13 ar   
    26   12  137 1    
    27   13   14 ar   
    28   13   15 1    
    29   14  138 1    
    30   15   16 1    
    31   15  139 1    
    32   15  140 1    
    33   16   17 1    
    34   17   18 1    
    35   17  141 1    
    36   17  142 1    
    37   18   19 1    
    38   18   67 1    
    39   18  143 1    
    40   19   20 am   BACKBONE|DICT|INTERRES
    41   19  144 1    
    42   20   21 2    
    43   20   22 1    
    44   22   23 1    
    45   22   24 1    
    46   22  145 1    
    47   23  146 1    
    48   23  147 1    
    49   23  148 1    
    50   24   25 am   BACKBONE|DICT|INTERRES
    51   24  149 1    
    52   25   26 2    
    53   25   27 1    
    54   27   28 1    
    55   27   29 1    
    56   27  150 1    
    57   28  151 1    
    58   28  152 1    
    59   28  153 1    
    60   29   30 am   BACKBONE|DICT|INTERRES
    61   29  154 1    
    62   30   31 2    
    63   30   32 1    
    64   32   33 1    
    65   32   34 1    
    66   32  155 1    
    67   33  156 1    
    68   33  157 1    
    69   33  158 1    
    70   34   35 am   BACKBONE|DICT|INTERRES
    71   34  159 1    
    72   35   36 2    
    73   35   37 1    
    74   37   38 1    
    75   37   39 1    
    76   37  160 1    
    77   38  161 1    
    78   38  162 1    
    79   38  163 1    
    80   39   40 am   BACKBONE|DICT|INTERRES
    81   39  164 1    
    82   40   41 2    
    83   40   42 1    
    84   42   43 1    
    85   42   44 1    
    86   42  165 1    
    87   43  166 1    
    88   43  167 1    
    89   43  168 1    
    90   44   45 am   BACKBONE|DICT|INTERRES
    91   44  169 1    
    92   45   46 2    
    93   45   47 1    
    94   47   48 1    
    95   47   49 1    
    96   47  170 1    
    97   48  171 1    
    98   48  172 1    
    99   48  173 1    
   100   49   50 am   BACKBONE|DICT|INTERRES
   101   49  174 1    
   102   50   51 2    
   103   50   52 1    
   104   52   53 1    
   105   52   54 1    
   106   52  175 1    
   107   53  176 1    
   108   53  177 1    
   109   53  178 1    
   110   54   55 am   BACKBONE|DICT|INTERRES
   111   54  179 1    
   112   55   56 2    
   113   55   57 1    
   114   57   58 1    
   115   57   59 1    
   116   57  180 1    
   117   58  181 1    
   118   58  182 1    
   119   58  183 1    
   120   59   60 am   BACKBONE|DICT|INTERRES
   121   59  184 1    
   122   60   61 2    
   123   60   62 1    
   124   62   63 1    
   125   62   64 1    
   126   62  185 1    
   127   63  186 1    
   128   63  187 1    
   129   63  188 1    
   130   64   65 am   BACKBONE|DICT|INTERRES
   131   64  189 1    
   132   65   66 2    
   133   67   68 2    
   134   67   69 am   BACKBONE|DICT|INTERRES
   135   69   70 1    
   136   69  190 1    
   137   70   71 1    
   138   70   72 1    
   139   70  191 1    
   140   71  192 1    
   141   71  193 1    
   142   71  194 1    
   143   72   73 2    
   144   72   74 am   BACKBONE|DICT|INTERRES
   145   74   75 1    
   146   74  195 1    
   147   75   76 1    
   148   75   77 1    
   149   75  196 1    
   150   76  197 1    
   151   76  198 1    
   152   76  199 1    
   153   77   78 2    
   154   77   79 am   BACKBONE|DICT|INTERRES
   155   79   80 1    
   156   79  200 1    
   157   80   81 1    
   158   80   82 1    
   159   80  201 1    
   160   81  202 1    
   161   81  203 1    
   162   81  204 1    
   163   82   83 2    
   164   82   84 am   BACKBONE|DICT|INTERRES
   165   84   85 1    
   166   84  205 1    
   167   85   86 1    
   168   85   87 1    
   169   85  206 1    
   170   86  207 1    
   171   86  208 1    
   172   86  209 1    
   173   87   88 2    
   174   87   89 am   BACKBONE|DICT|INTERRES
   175   89   90 1    
   176   89  210 1    
   177   90   91 1    
   178   90   92 1    
   179   90  211 1    
   180   91  212 1    
   181   91  213 1    
   182   91  214 1    
   183   92   93 2    
   184   92   94 am   BACKBONE|DICT|INTERRES
   185   94   95 1    
   186   94  215 1    
   187   95   96 1    
   188   95   97 1    
   189   95  216 1    
   190   96  217 1    
   191   96  218 1    
   192   96  219 1    
   193   97   98 2    
   194   97   99 am   BACKBONE|DICT|INTERRES
   195   99  100 1    
   196   99  220 1    
   197  100  101 1    
   198  100  102 1    
   199  100  221 1    
   200  101  222 1    
   201  101  223 1    
   202  101  224 1    
   203  102  103 2    
   204  102  104 am   BACKBONE|DICT|INTERRES
   205  104  105 1    
   206  104  225 1    
   207  105  106 1    
   208  105  107 1    
   209  105  226 1    
   210  106  227 1    
   211  106  228 1    
   212  106  229 1    
   213  107  108 2    
   214  107  109 am   BACKBONE|DICT|INTERRES
   215  109  110 1    
   216  109  230 1    
   217  110  111 1    
   218  110  112 1    
   219  110  231 1    
   220  111  232 1    
   221  111  233 1    
   222  111  234 1    
   223  112  113 2    
   224  112  114 am   BACKBONE|DICT|INTERRES
   225  114  115 1    
   226  114  235 1    
   227  115  116 1    
   228  115  117 1    
   229  115  236 1    
   230  116  237 1    
   231  116  238 1    
   232  116  239 1    
   233  117  118 2    
   234  117  119 am   BACKBONE|DICT|INTERRES
   235  119  120 1    
   236  119  240 1    
   237  120  121 1    
   238  120  124 1    
   239  120  241 1    
   240  121  122 am   BACKBONE|DICT|INTERRES
   241  121  123 2    
   242  122  242 1    
   243  122  243 1    
   244  124  125 1    
   245  124  244 1    
   246  124  245 1    
   247  125  126 1    
   248  126  246 1    
   249  126  247 1    
@<TRIPOS>SUBSTRUCTURE
     1 UNK         1 GROUP             0       ****    0 ROOT    
