@<TRIPOS>MOLECULE
3R540
247   249    1
SMALL
USER_CHARGES


@<TRIPOS>ATOM
      1 CA         -3.1665  -14.2390  -43.2743 C.3       0 UNK        -0.1800 
      2 C          -2.4042  -13.3735  -44.2685 C.2       0 UNK         0.5000 
      3 O          -1.8871  -12.3220  -43.8909 O.2       0 UNK        -0.5000 
      4 N          -2.3550  -13.7979  -45.5369 N.am      1 UNK        -0.5000 
      5 CA         -1.6362  -13.1196  -46.6189 C.3       1 UNK         0.1400 
      6 C6         -2.1892  -13.5256  -48.0084 C.3       23 UNK        -0.0398 
      7 S7         -1.9536  -15.2843  -48.4518 S.3       23 UNK        -0.2404 
      8 C8         -0.7953  -15.1068  -49.8432 C.3       23 UNK        -0.0205 
      9 C9         -0.4385  -16.4440  -50.4730 C.ar      23 UNK        -0.0193 
     10 C10        -1.3554  -17.0946  -51.3040 C.ar      23 UNK        -0.1150 
     11 C11        -1.0163  -18.2942  -51.9370 C.ar      23 UNK        -0.0193 
     12 C12         0.2564  -18.8369  -51.7380 C.ar      23 UNK        -0.1150 
     13 C13         1.1818  -18.2012  -50.9027 C.ar      23 UNK        -0.0193 
     14 C14         0.8237  -17.0085  -50.2663 C.ar      23 UNK        -0.1150 
     15 C15         2.5892  -18.7628  -50.7359 C.3       23 UNK        -0.0205 
     16 S16         2.6145  -20.5195  -50.2558 S.3       23 UNK        -0.2404 
     17 C17         2.1189  -20.4245  -48.5045 C.3       23 UNK        -0.0398 
     18 CA          2.1119  -21.8199  -47.8242 C.3       11 UNK         0.1400 
     19 N           2.4691  -21.7178  -46.4044 N.am      11 UNK        -0.5000 
     20 C           3.0609  -22.6892  -45.6972 C.2       10 UNK         0.5000 
     21 O           3.3975  -23.7740  -46.1728 O.2       10 UNK        -0.5000 
     22 CA          3.2972  -22.4120  -44.2019 C.3       10 UNK         0.1400 
     23 CB          4.5525  -21.5485  -44.0076 C.3       10 UNK        -0.1800 
     24 N           2.1553  -21.7828  -43.5315 N.am      10 UNK        -0.5000 
     25 C           0.9563  -22.3613  -43.3622 C.2       9 UNK         0.5000 
     26 O           0.6609  -23.4674  -43.8138 O.2       9 UNK        -0.5000 
     27 CA         -0.0979  -21.5680  -42.5706 C.3       9 UNK         0.1400 
     28 CB          0.2098  -21.5988  -41.0660 C.3       9 UNK        -0.1800 
     29 N          -0.1946  -20.1845  -43.0268 N.am      9 UNK        -0.5000 
     30 C          -0.7440  -19.8143  -44.1904 C.2       8 UNK         0.5000 
     31 O          -1.3193  -20.5931  -44.9497 O.2       8 UNK        -0.5000 
     32 CA         -0.6011  -18.3372  -44.5992 C.3       8 UNK         0.1400 
     33 CB         -1.7533  -17.4957  -44.0408 C.3       8 UNK        -0.1800 
     34 N           0.6804  -17.7533  -44.2065 N.am      8 UNK        -0.5000 
     35 C           1.8615  -18.1674  -44.6857 C.2       7 UNK         0.5000 
     36 O           1.9893  -19.0759  -45.5070 O.2       7 UNK        -0.5000 
     37 CA          3.1154  -17.4836  -44.1245 C.3       7 UNK         0.1400 
     38 CB          3.3837  -16.1727  -44.8682 C.3       7 UNK        -0.1800 
     39 N           3.0240  -17.2402  -42.6846 N.am      7 UNK        -0.5000 
     40 C           3.0130  -18.2183  -41.7670 C.2       6 UNK         0.5000 
     41 O           3.1006  -19.4153  -42.0417 O.2       6 UNK        -0.5000 
     42 CA          2.8121  -17.7932  -40.3026 C.3       6 UNK         0.1400 
     43 CB          4.0736  -17.1172  -39.7443 C.3       6 UNK        -0.1800 
     44 N           1.6653  -16.9019  -40.1393 N.am      6 UNK        -0.5000 
     45 C           0.3950  -17.2318  -40.4144 C.2       5 UNK         0.5000 
     46 O           0.0438  -18.3494  -40.7877 O.2       5 UNK        -0.5000 
     47 CA         -0.6620  -16.1202  -40.2840 C.3       5 UNK         0.1400 
     48 CB         -1.3260  -16.1691  -38.9004 C.3       5 UNK        -0.1800 
     49 N          -0.1363  -14.7740  -40.5163 N.am      5 UNK        -0.5000 
     50 C           0.4346  -14.3447  -41.6506 C.2       4 UNK         0.5000 
     51 O           0.5737  -15.0578  -42.6473 O.2       4 UNK        -0.5000 
     52 CA          0.9050  -12.8728  -41.6560 C.3       4 UNK         0.1400 
     53 CB          1.3371  -12.3664  -40.2607 C.3       4 UNK        -0.1800 
     54 N           1.9607  -12.5868  -42.6281 N.am      4 UNK        -0.5000 
     55 C           3.1786  -13.1357  -42.7178 C.2       3 UNK         0.5000 
     56 O           3.5716  -14.0709  -42.0158 O.2       3 UNK        -0.5000 
     57 CA          4.1060  -12.5063  -43.7819 C.3       3 UNK         0.1400 
     58 CB          5.5551  -13.0217  -43.7114 C.3       3 UNK        -0.1800 
     59 N           3.5851  -12.6798  -45.1418 N.am      3 UNK        -0.5000 
     60 C           2.5868  -11.9629  -45.6760 C.2       2 UNK         0.5000 
     61 O           2.0298  -11.0389  -45.0773 O.2       2 UNK        -0.5000 
     62 CA          2.1140  -12.3090  -47.1047 C.3       2 UNK         0.1400 
     63 CB          2.7952  -13.5445  -47.7375 C.3       2 UNK        -0.1800 
     64 N           0.6514  -12.4178  -47.1551 N.am      2 UNK        -0.5000 
     65 C          -0.1064  -13.3145  -46.5048 C.2       1 UNK         0.5000 
     66 O           0.3501  -14.2600  -45.8590 O.2       1 UNK        -0.5000 
     67 C           0.7668  -22.5555  -48.0359 C.2       11 UNK         0.5000 
     68 O           0.4149  -22.8631  -49.1744 O.2       11 UNK        -0.5000 
     69 N           0.0293  -22.8023  -46.9414 N.am      12 UNK        -0.5000 
     70 CA         -1.3152  -23.3852  -46.8692 C.3       12 UNK         0.1400 
     71 CB         -1.3395  -24.8267  -47.4168 C.3       12 UNK        -0.1800 
     72 C          -2.4079  -22.4964  -47.4969 C.2       12 UNK         0.5000 
     73 O          -3.5199  -22.9695  -47.7332 O.2       12 UNK        -0.5000 
     74 N          -2.1058  -21.2082  -47.7094 N.am      13 UNK        -0.5000 
     75 CA         -3.0165  -20.1801  -48.2144 C.3       13 UNK         0.1400 
     76 CB         -2.2295  -18.8915  -48.4639 C.3       13 UNK        -0.1800 
     77 C          -4.2164  -19.9178  -47.2839 C.2       13 UNK         0.5000 
     78 O          -5.2674  -19.4911  -47.7610 O.2       13 UNK        -0.5000 
     79 N          -4.0732  -20.2579  -45.9941 N.am      14 UNK        -0.5000 
     80 CA         -5.1581  -20.3341  -45.0114 C.3       14 UNK         0.1400 
     81 CB         -4.5537  -20.6481  -43.6340 C.3       14 UNK        -0.1800 
     82 C          -6.2510  -21.3677  -45.3736 C.2       14 UNK         0.5000 
     83 O          -7.3933  -21.2136  -44.9414 O.2       14 UNK        -0.5000 
     84 N          -5.8911  -22.3751  -46.1810 N.am      15 UNK        -0.5000 
     85 CA         -6.7789  -23.3733  -46.7785 C.3       15 UNK         0.1400 
     86 CB         -6.2854  -24.7737  -46.3726 C.3       15 UNK        -0.1800 
     87 C          -6.8305  -23.2006  -48.3131 C.2       15 UNK         0.5000 
     88 O          -7.0232  -24.1785  -49.0387 O.2       15 UNK        -0.5000 
     89 N          -6.6142  -21.9623  -48.7875 N.am      16 UNK        -0.5000 
     90 CA         -6.5965  -21.5182  -50.1880 C.3       16 UNK         0.1400 
     91 CB         -8.0007  -21.6533  -50.8132 C.3       16 UNK        -0.1800 
     92 C          -5.5067  -22.1824  -51.0583 C.2       16 UNK         0.5000 
     93 O          -5.6160  -22.1505  -52.2833 O.2       16 UNK        -0.5000 
     94 N          -4.4906  -22.7818  -50.4162 N.am      17 UNK        -0.5000 
     95 CA         -3.4105  -23.5876  -50.9967 C.3       17 UNK         0.1400 
     96 CB         -2.4797  -22.7144  -51.8634 C.3       17 UNK        -0.1800 
     97 C          -3.9252  -24.8495  -51.7234 C.2       17 UNK         0.5000 
     98 O          -3.2742  -25.3313  -52.6509 O.2       17 UNK        -0.5000 
     99 N          -5.1035  -25.3442  -51.3069 N.am      18 UNK        -0.5000 
    100 CA        -5.9306  -26.4044  -51.9020 C.3       18 UNK         0.1400 
    101 CB        -5.1746  -27.7425  -52.0084 C.3       18 UNK        -0.1800 
    102 C         -6.5732  -26.0038  -53.2471 C.2       18 UNK         0.5000 
    103 O         -7.7559  -26.2762  -53.4568 O.2       18 UNK        -0.5000 
    104 N         -5.8073  -25.3344  -54.1111 N.am      19 UNK        -0.5000 
    105 CA        -6.2472  -24.6560  -55.3210 C.3       19 UNK         0.1400 
    106 CB        -6.0260  -25.5673  -56.5385 C.3       19 UNK        -0.1800 
    107 C         -5.4291  -23.3636  -55.4371 C.2       19 UNK         0.5000 
    108 O         -4.2517  -23.3552  -55.0669 O.2       19 UNK        -0.5000 
    109 N         -6.0486  -22.2997  -55.9619 N.am      20 UNK        -0.5000 
    110 CA        -5.4890  -20.9471  -56.0560 C.3       20 UNK         0.1400 
    111 CB        -6.6467  -19.9451  -56.2132 C.3       20 UNK        -0.1800 
    112 C         -4.4179  -20.7959  -57.1606 C.2       20 UNK         0.5000 
    113 O         -4.5126  -19.9046  -58.0072 O.2       20 UNK        -0.5000 
    114 N         -3.3951  -21.6586  -57.1195 N.am      21 UNK        -0.5000 
    115 CA        -2.2456  -21.6915  -58.0294 C.3       21 UNK         0.1400 
    116 CB        -1.4050  -22.9385  -57.7158 C.3       21 UNK        -0.1800 
    117 C         -1.3734  -20.4204  -57.9758 C.2       21 UNK         0.5000 
    118 O         -0.6613  -20.1296  -58.9377 O.2       21 UNK        -0.5000 
    119 N         -1.4678  -19.6778  -56.8665 N.am      22 UNK        -0.5000 
    120 CA        -0.9125  -18.3302  -56.6882 C.3       22 UNK         0.1400 
    121 C         -1.6106  -17.2146  -57.5265 C.2       22 UNK         0.5000 
    122 N         -2.7657  -17.4523  -58.1398 N.am      22 UNK        -0.7600 
    123 O         -1.0825  -16.1112  -57.6341 O.2       22 UNK        -0.5000 
    124 C124       -0.8282  -17.9534  -55.1862 C.3       23 UNK        -0.0398 
    125 S125       -2.4376  -18.0266  -54.3144 S.3       23 UNK        -0.2404 
    126 C126       -2.0229  -19.0035  -52.8336 C.3       23 UNK        -0.0205 
    127 H127       -3.6968  -15.0534  -43.7685 H         1 UNK         0.0600 
    128 H128       -3.8987  -13.6375  -42.7358 H         1 UNK         0.0600 
    129 H129       -2.4791  -14.6700  -42.5480 H         1 UNK         0.0600 
    130 H130       -2.7605  -14.6884  -45.7849 H         1 UNK         0.3000 
    131 H131       -1.8247  -12.0496  -46.5051 H         1 UNK         0.0600 
    132 H132       -3.2597  -13.3190  -48.0433 H         1 UNK         0.0800 
    133 H133       -1.7552  -12.8895  -48.7813 H         1 UNK         0.0800 
    134 H134       -1.2398  -14.4640  -50.6045 H         1 UNK         0.0800 
    135 H135        0.1049  -14.5973  -49.4959 H         1 UNK         0.0800 
    136 H136       -2.3331  -16.6623  -51.4648 H         1 UNK         0.1150 
    137 H137        0.5320  -19.7557  -52.2364 H         1 UNK         0.1150 
    138 H138        1.5376  -16.5023  -49.6316 H         1 UNK         0.1150 
    139 H139        3.1139  -18.6565  -51.6861 H         1 UNK         0.0800 
    140 H140        3.1588  -18.1852  -50.0062 H         1 UNK         0.0800 
    141 H141        1.1548  -19.9200  -48.4141 H         1 UNK         0.0800 
    142 H142        2.8427  -19.7720  -48.0138 H         1 UNK         0.0800 
    143 H143        2.8771  -22.4332  -48.3055 H         1 UNK         0.0600 
    144 H144        2.2522  -20.8322  -45.9489 H         1 UNK         0.3000 
    145 H145        3.4739  -23.3733  -43.7151 H         1 UNK         0.0600 
    146 H146        4.7919  -21.4336  -42.9504 H         1 UNK         0.0600 
    147 H147        5.4195  -22.0028  -44.4887 H         1 UNK         0.0600 
    148 H148        4.4244  -20.5528  -44.4327 H         1 UNK         0.0600 
    149 H149        2.3289  -20.8769  -43.1052 H         1 UNK         0.3000 
    150 H150       -1.0660  -22.0497  -42.7248 H         1 UNK         0.0600 
    151 H151        0.2912  -22.6242  -40.7035 H         1 UNK         0.0600 
    152 H152       -0.5814  -21.1133  -40.4944 H         1 UNK         0.0600 
    153 H153        1.1469  -21.0910  -40.8343 H         1 UNK         0.0600 
    154 H154        0.1926  -19.4742  -42.4134 H         1 UNK         0.3000 
    155 H155       -0.6471  -18.2916  -45.6872 H         1 UNK         0.0600 
    156 H156       -1.8028  -17.5530  -42.9542 H         1 UNK         0.0600 
    157 H157       -1.6362  -16.4497  -44.3216 H         1 UNK         0.0600 
    158 H158       -2.7119  -17.8366  -44.4339 H         1 UNK         0.0600 
    159 H159        0.6598  -16.9628  -43.5703 H         1 UNK         0.3000 
    160 H160        3.9632  -18.1480  -44.3022 H         1 UNK         0.0600 
    161 H161        2.5980  -15.4386  -44.6852 H         1 UNK         0.0600 
    162 H162        3.4384  -16.3408  -45.9443 H         1 UNK         0.0600 
    163 H163        4.3338  -15.7452  -44.5594 H         1 UNK         0.0600 
    164 H164        2.9160  -16.2776  -42.3872 H         1 UNK         0.3000 
    165 H165        2.6213  -18.6954  -39.7176 H         1 UNK         0.0600 
    166 H166        3.9644  -16.8956  -38.6826 H         1 UNK         0.0600 
    167 H167        4.9438  -17.7659  -39.8526 H         1 UNK         0.0600 
    168 H168        4.2948  -16.1821  -40.2606 H         1 UNK         0.0600 
    169 H169        1.8633  -15.9519  -39.8626 H         1 UNK         0.3000 
    170 H170       -1.4306  -16.3085  -41.0343 H         1 UNK         0.0600 
    171 H171       -0.6124  -15.9564  -38.1034 H         1 UNK         0.0600 
    172 H172       -2.1392  -15.4468  -38.8265 H         1 UNK         0.0600 
    173 H173       -1.7510  -17.1549  -38.7061 H         1 UNK         0.0600 
    174 H174       -0.2147  -14.1268  -39.7455 H         1 UNK         0.3000 
    175 H175        0.0440  -12.2826  -41.9707 H         1 UNK         0.0600 
    176 H176        1.7140  -11.3449  -40.3149 H         1 UNK         0.0600 
    177 H177        2.1254  -12.9865  -39.8317 H         1 UNK         0.0600 
    178 H178        0.5024  -12.3533  -39.5593 H         1 UNK         0.0600 
    179 H179        1.7308  -11.8866  -43.3266 H         1 UNK         0.3000 
    180 H180        4.1471  -11.4368  -43.5640 H         1 UNK         0.0600 
    181 H181        5.6297  -14.0871  -43.9185 H         1 UNK         0.0600 
    182 H182        5.9767  -12.8547  -42.7194 H         1 UNK         0.0600 
    183 H183        6.1926  -12.4981  -44.4238 H         1 UNK         0.0600 
    184 H184        3.9717  -13.4423  -45.6778 H         1 UNK         0.3000 
    185 H185        2.3759  -11.4467  -47.7192 H         1 UNK         0.0600 
    186 H186        3.8760  -13.4130  -47.7990 H         1 UNK         0.0600 
    187 H187        2.6011  -14.4578  -47.1769 H         1 UNK         0.0600 
    188 H188        2.4377  -13.7043  -48.7547 H         1 UNK         0.0600 
    189 H189        0.1884  -11.6604  -47.6373 H         1 UNK         0.3000 
    190 H190        0.4183  -22.5270  -46.0495 H         1 UNK         0.3000 
    191 H191       -1.5557  -23.4368  -45.8064 H         1 UNK         0.0600 
    192 H192       -0.5755  -25.4404  -46.9396 H         1 UNK         0.0600 
    193 H193       -2.3022  -25.3020  -47.2243 H         1 UNK         0.0600 
    194 H194       -1.1719  -24.8588  -48.4932 H         1 UNK         0.0600 
    195 H195       -1.1952  -20.8951  -47.4085 H         1 UNK         0.3000 
    196 H196       -3.4067  -20.5264  -49.1724 H         1 UNK         0.0600 
    197 H197       -2.8482  -18.1615  -48.9864 H         1 UNK         0.0600 
    198 H198       -1.3506  -19.0760  -49.0812 H         1 UNK         0.0600 
    199 H199       -1.8981  -18.4300  -47.5357 H         1 UNK         0.0600 
    200 H200       -3.1568  -20.5660  -45.6820 H         1 UNK         0.3000 
    201 H201       -5.6361  -19.3536  -44.9639 H         1 UNK         0.0600 
    202 H202       -3.8548  -19.8719  -43.3224 H         1 UNK         0.0600 
    203 H203       -4.0176  -21.5981  -43.6382 H         1 UNK         0.0600 
    204 H204       -5.3295  -20.7104  -42.8698 H         1 UNK         0.0600 
    205 H205       -4.9320  -22.4177  -46.5114 H         1 UNK         0.3000 
    206 H206       -7.7990  -23.2487  -46.4108 H         1 UNK         0.0600 
    207 H207       -6.2426  -24.8763  -45.2883 H         1 UNK         0.0600 
    208 H208       -6.9541  -25.5509  -46.7444 H         1 UNK         0.0600 
    209 H209       -5.2894  -24.9778  -46.7679 H         1 UNK         0.0600 
    210 H210       -6.4228  -21.2280  -48.1156 H         1 UNK         0.3000 
    211 H211       -6.3494  -20.4562  -50.1637 H         1 UNK         0.0600 
    212 H212       -8.2872  -22.6975  -50.9425 H         1 UNK         0.0600 
    213 H213       -8.0412  -21.1807  -51.7953 H         1 UNK         0.0600 
    214 H214       -8.7567  -21.1715  -50.1932 H         1 UNK         0.0600 
    215 H215       -4.4876  -22.7616  -49.4009 H         1 UNK         0.3000 
    216 H216       -2.8185  -23.9562  -50.1593 H         1 UNK         0.0600 
    217 H217       -1.6060  -23.2789  -52.1907 H         1 UNK         0.0600 
    218 H218       -2.1139  -21.8550  -51.3011 H         1 UNK         0.0600 
    219 H219       -2.9834  -22.3454  -52.7571 H         1 UNK         0.0600 
    220 H220       -5.5598  -24.8485  -50.5487 H         1 UNK         0.3000 
    221 H221       -6.7516  -26.5523  -51.1985 H         1 UNK         0.0600 
    222 H222       -4.3694  -27.7032  -52.7422 H         1 UNK         0.0600 
    223 H223       -4.7433  -28.0295  -51.0495 H         1 UNK         0.0600 
    224 H224       -5.8496  -28.5425  -52.3145 H         1 UNK         0.0600 
    225 H225       -4.8467  -25.1314  -53.8436 H         1 UNK         0.3000 
    226 H226       -7.3053  -24.3982  -55.2399 H         1 UNK         0.0600 
    227 H227       -6.6006  -26.4894  -56.4493 H         1 UNK         0.0600 
    228 H228       -6.3414  -25.0735  -57.4583 H         1 UNK         0.0600 
    229 H229       -4.9751  -25.8369  -56.6521 H         1 UNK         0.0600 
    230 H230       -6.9999  -22.4040  -56.2838 H         1 UNK         0.3000 
    231 H231       -4.9925  -20.7218  -55.1093 H         1 UNK         0.0600 
    232 H232       -7.1972  -20.1080  -57.1405 H         1 UNK         0.0600 
    233 H233       -6.2780  -18.9184  -56.2240 H         1 UNK         0.0600 
    234 H234       -7.3511  -20.0239  -55.3848 H         1 UNK         0.0600 
    235 H235       -3.4193  -22.3619  -56.3839 H         1 UNK         0.3000 
    236 H236       -2.6298  -21.7807  -59.0474 H         1 UNK         0.0600 
    237 H237       -0.5524  -23.0171  -58.3917 H         1 UNK         0.0600 
    238 H238       -1.0169  -22.9142  -56.6967 H         1 UNK         0.0600 
    239 H239       -1.9936  -23.8493  -57.8283 H         1 UNK         0.0600 
    240 H240       -2.0838  -19.9956  -56.1335 H         1 UNK         0.3000 
    241 H241        0.1132  -18.3640  -57.0602 H         1 UNK         0.0600 
    242 H242       -3.2333  -18.3488  -58.0614 H         1 UNK         0.3800 
    243 H243       -3.1943  -16.7182  -58.6805 H         1 UNK         0.3800 
    244 H244       -0.1243  -18.6265  -54.6959 H         1 UNK         0.0800 
    245 H245       -0.4089  -16.9540  -55.0579 H         1 UNK         0.0800 
    246 H246       -2.9350  -19.1895  -52.2646 H         1 UNK         0.0800 
    247 H247       -1.6510  -19.9815  -53.1426 H         1 UNK         0.0800 
@<TRIPOS>BOND
     1    1    2 1    
     2    1  127 1    
     3    1  128 1    
     4    1  129 1    
     5    2    3 2    
     6    2    4 am   BACKBONE|DICT|INTERRES
     7    4    5 1    
     8    4  130 1    
     9    5    6 1    
    10    5   65 1    
    11    5  131 1    
    12    6    7 1    
    13    6  132 1    
    14    6  133 1    
    15    7    8 1    
    16    8    9 1    
    17    8  134 1    
    18    8  135 1    
    19    9   10 ar   
    20    9   14 ar   
    21   10   11 ar   
    22   10  136 1    
    23   11   12 ar   
    24   11  126 1    
    25   12   13 ar   
    26   12  137 1    
    27   13   14 ar   
    28   13   15 1    
    29   14  138 1    
    30   15   16 1    
    31   15  139 1    
    32   15  140 1    
    33   16   17 1    
    34   17   18 1    
    35   17  141 1    
    36   17  142 1    
    37   18   19 1    
    38   18   67 1    
    39   18  143 1    
    40   19   20 am   BACKBONE|DICT|INTERRES
    41   19  144 1    
    42   20   21 2    
    43   20   22 1    
    44   22   23 1    
    45   22   24 1    
    46   22  145 1    
    47   23  146 1    
    48   23  147 1    
    49   23  148 1    
    50   24   25 am   BACKBONE|DICT|INTERRES
    51   24  149 1    
    52   25   26 2    
    53   25   27 1    
    54   27   28 1    
    55   27   29 1    
    56   27  150 1    
    57   28  151 1    
    58   28  152 1    
    59   28  153 1    
    60   29   30 am   BACKBONE|DICT|INTERRES
    61   29  154 1    
    62   30   31 2    
    63   30   32 1    
    64   32   33 1    
    65   32   34 1    
    66   32  155 1    
    67   33  156 1    
    68   33  157 1    
    69   33  158 1    
    70   34   35 am   BACKBONE|DICT|INTERRES
    71   34  159 1    
    72   35   36 2    
    73   35   37 1    
    74   37   38 1    
    75   37   39 1    
    76   37  160 1    
    77   38  161 1    
    78   38  162 1    
    79   38  163 1    
    80   39   40 am   BACKBONE|DICT|INTERRES
    81   39  164 1    
    82   40   41 2    
    83   40   42 1    
    84   42   43 1    
    85   42   44 1    
    86   42  165 1    
    87   43  166 1    
    88   43  167 1    
    89   43  168 1    
    90   44   45 am   BACKBONE|DICT|INTERRES
    91   44  169 1    
    92   45   46 2    
    93   45   47 1    
    94   47   48 1    
    95   47   49 1    
    96   47  170 1    
    97   48  171 1    
    98   48  172 1    
    99   48  173 1    
   100   49   50 am   BACKBONE|DICT|INTERRES
   101   49  174 1    
   102   50   51 2    
   103   50   52 1    
   104   52   53 1    
   105   52   54 1    
   106   52  175 1    
   107   53  176 1    
   108   53  177 1    
   109   53  178 1    
   110   54   55 am   BACKBONE|DICT|INTERRES
   111   54  179 1    
   112   55   56 2    
   113   55   57 1    
   114   57   58 1    
   115   57   59 1    
   116   57  180 1    
   117   58  181 1    
   118   58  182 1    
   119   58  183 1    
   120   59   60 am   BACKBONE|DICT|INTERRES
   121   59  184 1    
   122   60   61 2    
   123   60   62 1    
   124   62   63 1    
   125   62   64 1    
   126   62  185 1    
   127   63  186 1    
   128   63  187 1    
   129   63  188 1    
   130   64   65 am   BACKBONE|DICT|INTERRES
   131   64  189 1    
   132   65   66 2    
   133   67   68 2    
   134   67   69 am   BACKBONE|DICT|INTERRES
   135   69   70 1    
   136   69  190 1    
   137   70   71 1    
   138   70   72 1    
   139   70  191 1    
   140   71  192 1    
   141   71  193 1    
   142   71  194 1    
   143   72   73 2    
   144   72   74 am   BACKBONE|DICT|INTERRES
   145   74   75 1    
   146   74  195 1    
   147   75   76 1    
   148   75   77 1    
   149   75  196 1    
   150   76  197 1    
   151   76  198 1    
   152   76  199 1    
   153   77   78 2    
   154   77   79 am   BACKBONE|DICT|INTERRES
   155   79   80 1    
   156   79  200 1    
   157   80   81 1    
   158   80   82 1    
   159   80  201 1    
   160   81  202 1    
   161   81  203 1    
   162   81  204 1    
   163   82   83 2    
   164   82   84 am   BACKBONE|DICT|INTERRES
   165   84   85 1    
   166   84  205 1    
   167   85   86 1    
   168   85   87 1    
   169   85  206 1    
   170   86  207 1    
   171   86  208 1    
   172   86  209 1    
   173   87   88 2    
   174   87   89 am   BACKBONE|DICT|INTERRES
   175   89   90 1    
   176   89  210 1    
   177   90   91 1    
   178   90   92 1    
   179   90  211 1    
   180   91  212 1    
   181   91  213 1    
   182   91  214 1    
   183   92   93 2    
   184   92   94 am   BACKBONE|DICT|INTERRES
   185   94   95 1    
   186   94  215 1    
   187   95   96 1    
   188   95   97 1    
   189   95  216 1    
   190   96  217 1    
   191   96  218 1    
   192   96  219 1    
   193   97   98 2    
   194   97   99 am   BACKBONE|DICT|INTERRES
   195   99  100 1    
   196   99  220 1    
   197  100  101 1    
   198  100  102 1    
   199  100  221 1    
   200  101  222 1    
   201  101  223 1    
   202  101  224 1    
   203  102  103 2    
   204  102  104 am   BACKBONE|DICT|INTERRES
   205  104  105 1    
   206  104  225 1    
   207  105  106 1    
   208  105  107 1    
   209  105  226 1    
   210  106  227 1    
   211  106  228 1    
   212  106  229 1    
   213  107  108 2    
   214  107  109 am   BACKBONE|DICT|INTERRES
   215  109  110 1    
   216  109  230 1    
   217  110  111 1    
   218  110  112 1    
   219  110  231 1    
   220  111  232 1    
   221  111  233 1    
   222  111  234 1    
   223  112  113 2    
   224  112  114 am   BACKBONE|DICT|INTERRES
   225  114  115 1    
   226  114  235 1    
   227  115  116 1    
   228  115  117 1    
   229  115  236 1    
   230  116  237 1    
   231  116  238 1    
   232  116  239 1    
   233  117  118 2    
   234  117  119 am   BACKBONE|DICT|INTERRES
   235  119  120 1    
   236  119  240 1    
   237  120  121 1    
   238  120  124 1    
   239  120  241 1    
   240  121  122 am   BACKBONE|DICT|INTERRES
   241  121  123 2    
   242  122  242 1    
   243  122  243 1    
   244  124  125 1    
   245  124  244 1    
   246  124  245 1    
   247  125  126 1    
   248  126  246 1    
   249  126  247 1    
@<TRIPOS>SUBSTRUCTURE
     1 UNK         1 GROUP             0       ****    0 ROOT    
