@<TRIPOS>MOLECULE
3R540
247   249    1
SMALL
USER_CHARGES


@<TRIPOS>ATOM
      1 CA          2.9497  -10.5680  -50.7479 C.3       0 UNK        -0.1800 
      2 C           2.3422  -11.1466  -49.4783 C.2       0 UNK         0.5000 
      3 O           1.4073  -10.5660  -48.9260 O.2       0 UNK        -0.5000 
      4 N           2.8605  -12.2947  -49.0202 N.am      1 UNK        -0.5000 
      5 CA          2.4134  -13.0089  -47.8160 C.3       1 UNK         0.1400 
      6 C6          3.3798  -14.1570  -47.4162 C.3       23 UNK        -0.0398 
      7 S7          3.7375  -15.3566  -48.7498 S.3       23 UNK        -0.2404 
      8 C8          2.5818  -16.7065  -48.3455 C.3       23 UNK        -0.0205 
      9 C9          2.4781  -17.7241  -49.4707 C.ar      23 UNK        -0.0193 
     10 C10         2.0196  -17.3230  -50.7281 C.ar      23 UNK        -0.1150 
     11 C11         1.9160  -18.2385  -51.7771 C.ar      23 UNK        -0.0193 
     12 C12         2.2559  -19.5762  -51.5553 C.ar      23 UNK        -0.1150 
     13 C13         2.7130  -19.9938  -50.3004 C.ar      23 UNK        -0.0193 
     14 C14         2.8223  -19.0630  -49.2609 C.ar      23 UNK        -0.1150 
     15 C15         3.1194  -21.4446  -50.0823 C.3       23 UNK        -0.0205 
     16 S16         1.7000  -22.4963  -49.6440 S.3       23 UNK        -0.2404 
     17 C17         1.3598  -21.9533  -47.9352 C.3       23 UNK        -0.0398 
     18 CA          0.8128  -23.0795  -47.0298 C.3       11 UNK         0.1400 
     19 N           0.8922  -22.7194  -45.6147 N.am      11 UNK        -0.5000 
     20 C           0.6860  -23.5698  -44.6001 C.2       10 UNK         0.5000 
     21 O           0.4524  -24.7699  -44.7486 O.2       10 UNK        -0.5000 
     22 CA          0.7009  -22.9657  -43.1848 C.3       10 UNK         0.1400 
     23 CB          2.1424  -22.7521  -42.6997 C.3       10 UNK        -0.1800 
     24 N          -0.0351  -21.7026  -43.1066 N.am      10 UNK        -0.5000 
     25 C          -1.3529  -21.5769  -43.3199 C.2       9 UNK         0.5000 
     26 O          -2.0980  -22.5248  -43.5687 O.2       9 UNK        -0.5000 
     27 CA         -1.9271  -20.1478  -43.2987 C.3       9 UNK         0.1400 
     28 CB         -2.1038  -19.6439  -41.8586 C.3       9 UNK        -0.1800 
     29 N          -1.1092  -19.1976  -44.0534 N.am      9 UNK        -0.5000 
     30 C          -0.8747  -19.2755  -45.3715 C.2       8 UNK         0.5000 
     31 O          -1.3396  -20.1444  -46.1040 O.2       8 UNK        -0.5000 
     32 CA          0.0852  -18.2367  -45.9645 C.3       8 UNK         0.1400 
     33 CB         -0.6387  -16.9008  -46.1844 C.3       8 UNK        -0.1800 
     34 N           1.2616  -18.0477  -45.1150 N.am      8 UNK        -0.5000 
     35 C           2.2002  -18.9858  -44.9152 C.2       7 UNK         0.5000 
     36 O           2.1889  -20.0901  -45.4554 O.2       7 UNK        -0.5000 
     37 CA          3.3186  -18.6484  -43.9147 C.3       7 UNK         0.1400 
     38 CB          4.4069  -17.8044  -44.5960 C.3       7 UNK        -0.1800 
     39 N           2.8215  -17.9399  -42.7359 N.am      7 UNK        -0.5000 
     40 C           1.9554  -18.4432  -41.8430 C.2       6 UNK         0.5000 
     41 O           1.5264  -19.5955  -41.8781 O.2       6 UNK        -0.5000 
     42 CA          1.4329  -17.4662  -40.7718 C.3       6 UNK         0.1400 
     43 CB          2.3605  -17.4552  -39.5480 C.3       6 UNK        -0.1800 
     44 N           1.2912  -16.1029  -41.2929 N.am      6 UNK        -0.5000 
     45 C           0.4323  -15.7599  -42.2610 C.2       5 UNK         0.5000 
     46 O          -0.3969  -16.5343  -42.7479 O.2       5 UNK        -0.5000 
     47 CA          0.5922  -14.3521  -42.8445 C.3       5 UNK         0.1400 
     48 CB          1.7293  -14.3539  -43.8872 C.3       5 UNK        -0.1800 
     49 N          -0.6720  -13.9561  -43.4564 N.am      5 UNK        -0.5000 
     50 C          -0.9682  -12.7360  -43.9132 C.2       4 UNK         0.5000 
     51 O          -0.1847  -11.7834  -43.8923 O.2       4 UNK        -0.5000 
     52 CA         -2.3841  -12.5277  -44.4654 C.3       4 UNK         0.1400 
     53 CB         -3.1429  -11.5296  -43.5622 C.3       4 UNK        -0.1800 
     54 N          -2.2563  -12.0594  -45.8452 N.am      4 UNK        -0.5000 
     55 C          -3.2253  -11.6174  -46.6583 C.2       3 UNK         0.5000 
     56 O          -4.4105  -11.5164  -46.3400 O.2       3 UNK        -0.5000 
     57 CA         -2.8027  -11.2467  -48.0943 C.3       3 UNK         0.1400 
     58 CB         -2.2361   -9.8195  -48.1425 C.3       3 UNK        -0.1800 
     59 N          -1.8234  -12.1712  -48.6668 N.am      3 UNK        -0.5000 
     60 C          -2.0432  -13.4748  -48.8948 C.2       2 UNK         0.5000 
     61 O          -3.1230  -14.0289  -48.6930 O.2       2 UNK        -0.5000 
     62 CA         -0.8618  -14.3072  -49.4327 C.3       2 UNK         0.1400 
     63 CB         -0.9890  -14.4754  -50.9557 C.3       2 UNK        -0.1800 
     64 N           0.4672  -13.7673  -49.1253 N.am      2 UNK        -0.5000 
     65 C           0.9540  -13.5050  -47.9019 C.2       1 UNK         0.5000 
     66 O           0.3008  -13.6232  -46.8670 O.2       1 UNK        -0.5000 
     67 C          -0.6140  -23.5190  -47.4198 C.2       11 UNK         0.5000 
     68 O          -0.7631  -24.5634  -48.0492 O.2       11 UNK        -0.5000 
     69 N          -1.6379  -22.7679  -46.9879 N.am      12 UNK        -0.5000 
     70 CA         -3.0511  -23.0750  -47.2164 C.3       12 UNK         0.1400 
     71 CB         -3.9299  -21.9133  -46.7268 C.3       12 UNK        -0.1800 
     72 C          -3.5020  -24.3951  -46.5703 C.2       12 UNK         0.5000 
     73 O          -4.3054  -25.1111  -47.1671 O.2       12 UNK        -0.5000 
     74 N          -2.9686  -24.7121  -45.3836 N.am      13 UNK        -0.5000 
     75 CA         -3.2015  -25.9831  -44.6983 C.3       13 UNK         0.1400 
     76 CB         -2.6565  -25.9022  -43.2644 C.3       13 UNK        -0.1800 
     77 C          -2.5934  -27.1818  -45.4522 C.2       13 UNK         0.5000 
     78 O          -3.2162  -28.2428  -45.5047 O.2       13 UNK        -0.5000 
     79 N          -1.4017  -26.9884  -46.0326 N.am      14 UNK        -0.5000 
     80 CA         -0.6894  -27.9973  -46.8150 C.3       14 UNK         0.1400 
     81 CB          0.7977  -27.6170  -46.8956 C.3       14 UNK        -0.1800 
     82 C          -1.2830  -28.1865  -48.2238 C.2       14 UNK         0.5000 
     83 O          -1.4832  -29.3233  -48.6529 O.2       14 UNK        -0.5000 
     84 N          -1.5397  -27.0731  -48.9216 N.am      15 UNK        -0.5000 
     85 CA         -1.9892  -27.0382  -50.3151 C.3       15 UNK         0.1400 
     86 CB         -1.5600  -25.6992  -50.9376 C.3       15 UNK        -0.1800 
     87 C          -3.5044  -27.2503  -50.4931 C.2       15 UNK         0.5000 
     88 O          -3.9389  -27.4592  -51.6264 O.2       15 UNK        -0.5000 
     89 N          -4.2697  -27.1895  -49.3926 N.am      16 UNK        -0.5000 
     90 CA         -5.7340  -27.2152  -49.3198 C.3       16 UNK         0.1400 
     91 CB         -6.3148  -28.5338  -49.8739 C.3       16 UNK        -0.1800 
     92 C          -6.3297  -25.9533  -49.9740 C.2       16 UNK         0.5000 
     93 O          -6.9184  -26.0208  -51.0547 O.2       16 UNK        -0.5000 
     94 N          -6.1211  -24.8213  -49.2900 N.am      17 UNK        -0.5000 
     95 CA         -6.4008  -23.4462  -49.7075 C.3       17 UNK         0.1400 
     96 CB         -7.8902  -23.2341  -50.0634 C.3       17 UNK        -0.1800 
     97 C          -5.4025  -22.9851  -50.7884 C.2       17 UNK         0.5000 
     98 O          -4.2236  -23.3307  -50.6985 O.2       17 UNK        -0.5000 
     99 N          -5.8616  -22.1693  -51.7480 N.am      18 UNK        -0.5000 
    100 CA        -5.1315  -21.5707  -52.8777 C.3       18 UNK         0.1400 
    101 CB        -4.5130  -22.6494  -53.7877 C.3       18 UNK        -0.1800 
    102 C         -4.0832  -20.5074  -52.4882 C.2       18 UNK         0.5000 
    103 O         -4.0107  -19.4704  -53.1457 O.2       18 UNK        -0.5000 
    104 N         -3.3213  -20.7437  -51.4128 N.am      19 UNK        -0.5000 
    105 CA        -2.2506  -19.8729  -50.9113 C.3       19 UNK         0.1400 
    106 CB        -1.4697  -20.6178  -49.8246 C.3       19 UNK        -0.1800 
    107 C         -2.7240  -18.5014  -50.3833 C.2       19 UNK         0.5000 
    108 O         -1.9010  -17.6121  -50.1744 O.2       19 UNK        -0.5000 
    109 N         -4.0376  -18.3499  -50.1784 N.am      20 UNK        -0.5000 
    110 CA        -4.6900  -17.0917  -49.8218 C.3       20 UNK         0.1400 
    111 CB        -5.9626  -17.4214  -49.0243 C.3       20 UNK        -0.1800 
    112 C         -5.0286  -16.2197  -51.0517 C.2       20 UNK         0.5000 
    113 O         -5.4930  -15.0931  -50.8737 O.2       20 UNK        -0.5000 
    114 N         -4.8371  -16.7439  -52.2710 N.am      21 UNK        -0.5000 
    115 CA        -5.2255  -16.1007  -53.5240 C.3       21 UNK         0.1400 
    116 CB        -6.7055  -16.4101  -53.8257 C.3       21 UNK        -0.1800 
    117 C         -4.2734  -16.5279  -54.6533 C.2       21 UNK         0.5000 
    118 O         -4.7173  -17.0594  -55.6730 O.2       21 UNK        -0.5000 
    119 N         -2.9712  -16.2963  -54.4436 N.am      22 UNK        -0.5000 
    120 CA        -1.8938  -16.6333  -55.3942 C.3       22 UNK         0.1400 
    121 C         -1.8990  -15.8154  -56.7214 C.2       22 UNK         0.5000 
    122 N         -2.6048  -14.6947  -56.8144 N.am      22 UNK        -0.7600 
    123 O         -1.2487  -16.2077  -57.6865 O.2       22 UNK        -0.5000 
    124 C124       -0.4927  -16.5540  -54.7359 C.3       23 UNK        -0.0398 
    125 S125       -0.3323  -17.6082  -53.2596 S.3       23 UNK        -0.2404 
    126 C126        1.4745  -17.7617  -53.1521 C.3       23 UNK        -0.0205 
    127 H127        3.7606  -11.1891  -51.1291 H         1 UNK         0.0600 
    128 H128        3.3469   -9.5718  -50.5530 H         1 UNK         0.0600 
    129 H129        2.1890  -10.4871  -51.5243 H         1 UNK         0.0600 
    130 H130        3.6205  -12.7324  -49.5227 H         1 UNK         0.3000 
    131 H131        2.4301  -12.2823  -47.0005 H         1 UNK         0.0600 
    132 H132        4.3332  -13.7231  -47.1122 H         1 UNK         0.0800 
    133 H133        3.0166  -14.6879  -46.5356 H         1 UNK         0.0800 
    134 H134        2.8966  -17.1813  -47.4156 H         1 UNK         0.0800 
    135 H135        1.5879  -16.2996  -48.1731 H         1 UNK         0.0800 
    136 H136        1.7578  -16.2882  -50.8941 H         1 UNK         0.1150 
    137 H137        2.1780  -20.2909  -52.3625 H         1 UNK         0.1150 
    138 H138        3.1773  -19.3808  -48.2905 H         1 UNK         0.1150 
    139 H139        3.5724  -21.8354  -50.9946 H         1 UNK         0.0800 
    140 H140        3.8886  -21.5173  -49.3119 H         1 UNK         0.0800 
    141 H141        0.6941  -21.0905  -47.9407 H         1 UNK         0.0800 
    142 H142        2.3028  -21.6000  -47.5191 H         1 UNK         0.0800 
    143 H143        1.4615  -23.9485  -47.1618 H         1 UNK         0.0600 
    144 H144        1.1182  -21.7510  -45.4091 H         1 UNK         0.3000 
    145 H145        0.2165  -23.6783  -42.5140 H         1 UNK         0.0600 
    146 H146        2.1620  -22.4041  -41.6668 H         1 UNK         0.0600 
    147 H147        2.7113  -23.6818  -42.7411 H         1 UNK         0.0600 
    148 H148        2.6677  -22.0160  -43.3094 H         1 UNK         0.0600 
    149 H149        0.5034  -20.8772  -42.8569 H         1 UNK         0.3000 
    150 H150       -2.9121  -20.1799  -43.7686 H         1 UNK         0.0600 
    151 H151       -2.7534  -20.3104  -41.2901 H         1 UNK         0.0600 
    152 H152       -2.5571  -18.6525  -41.8407 H         1 UNK         0.0600 
    153 H153       -1.1521  -19.5850  -41.3307 H         1 UNK         0.0600 
    154 H154       -0.7081  -18.4247  -43.5335 H         1 UNK         0.3000 
    155 H155        0.4250  -18.6025  -46.9362 H         1 UNK         0.0600 
    156 H156       -1.1057  -16.5282  -45.2734 H         1 UNK         0.0600 
    157 H157       -1.4240  -17.0050  -46.9345 H         1 UNK         0.0600 
    158 H158        0.0467  -16.1360  -46.5371 H         1 UNK         0.0600 
    159 H159        1.3056  -17.1934  -44.5822 H         1 UNK         0.3000 
    160 H160        3.7657  -19.5878  -43.5825 H         1 UNK         0.0600 
    161 H161        4.8018  -18.3138  -45.4763 H         1 UNK         0.0600 
    162 H162        5.2454  -17.6251  -43.9230 H         1 UNK         0.0600 
    163 H163        4.0251  -16.8360  -44.9221 H         1 UNK         0.0600 
    164 H164        3.1333  -16.9885  -42.6139 H         1 UNK         0.3000 
    165 H165        0.4482  -17.8146  -40.4535 H         1 UNK         0.0600 
    166 H166        1.9635  -16.8169  -38.7585 H         1 UNK         0.0600 
    167 H167        2.4667  -18.4577  -39.1311 H         1 UNK         0.0600 
    168 H168        3.3593  -17.0969  -39.8003 H         1 UNK         0.0600 
    169 H169        1.9393  -15.4137  -40.9387 H         1 UNK         0.3000 
    170 H170        0.8278  -13.6578  -42.0355 H         1 UNK         0.0600 
    171 H171        2.6697  -14.6925  -43.4514 H         1 UNK         0.0600 
    172 H172        1.4956  -15.0118  -44.7240 H         1 UNK         0.0600 
    173 H173        1.9094  -13.3582  -44.2915 H         1 UNK         0.0600 
    174 H174       -1.3576  -14.7003  -43.4930 H         1 UNK         0.3000 
    175 H175       -2.9151  -13.4812  -44.4752 H         1 UNK         0.0600 
    176 H176       -3.0615  -11.8131  -42.5119 H         1 UNK         0.0600 
    177 H177       -2.7468  -10.5181  -43.6594 H         1 UNK         0.0600 
    178 H178       -4.2071  -11.4992  -43.7927 H         1 UNK         0.0600 
    179 H179       -1.3194  -12.1500  -46.2230 H         1 UNK         0.3000 
    180 H180       -3.6961  -11.2798  -48.7215 H         1 UNK         0.0600 
    181 H181       -1.3140   -9.7331  -47.5658 H         1 UNK         0.0600 
    182 H182       -2.9487   -9.1018  -47.7340 H         1 UNK         0.0600 
    183 H183       -2.0193   -9.5154  -49.1666 H         1 UNK         0.0600 
    184 H184       -0.9004  -11.8015  -48.8492 H         1 UNK         0.3000 
    185 H185       -0.9259  -15.2947  -48.9715 H         1 UNK         0.0600 
    186 H186       -1.9582  -14.9002  -51.2211 H         1 UNK         0.0600 
    187 H187       -0.8924  -13.5222  -51.4766 H         1 UNK         0.0600 
    188 H188       -0.2295  -15.1519  -51.3449 H         1 UNK         0.0600 
    189 H189        1.0807  -13.6161  -49.9121 H         1 UNK         0.3000 
    190 H190       -1.4437  -21.8941  -46.5017 H         1 UNK         0.3000 
    191 H191       -3.1902  -23.1774  -48.2933 H         1 UNK         0.0600 
    192 H192       -3.7249  -20.9965  -47.2784 H         1 UNK         0.0600 
    193 H193       -4.9890  -22.1376  -46.8553 H         1 UNK         0.0600 
    194 H194       -3.7674  -21.7085  -45.6684 H         1 UNK         0.0600 
    195 H195       -2.3709  -24.0376  -44.9169 H         1 UNK         0.3000 
    196 H196       -4.2806  -26.1408  -44.6403 H         1 UNK         0.0600 
    197 H197       -2.8437  -26.8300  -42.7226 H         1 UNK         0.0600 
    198 H198       -3.1349  -25.0969  -42.7065 H         1 UNK         0.0600 
    199 H199       -1.5811  -25.7245  -43.2499 H         1 UNK         0.0600 
    200 H200       -0.9482  -26.0887  -45.9254 H         1 UNK         0.3000 
    201 H201       -0.7607  -28.9535  -46.2921 H         1 UNK         0.0600 
    202 H202        1.2412  -27.5534  -45.9017 H         1 UNK         0.0600 
    203 H203        0.9439  -26.6541  -47.3862 H         1 UNK         0.0600 
    204 H204        1.3620  -28.3620  -47.4578 H         1 UNK         0.0600 
    205 H205       -1.3147  -26.1691  -48.5053 H         1 UNK         0.3000 
    206 H206       -1.4854  -27.8375  -50.8626 H         1 UNK         0.0600 
    207 H207       -0.4805  -25.5610  -50.8749 H         1 UNK         0.0600 
    208 H208       -1.8352  -25.6466  -51.9916 H         1 UNK         0.0600 
    209 H209       -2.0331  -24.8554  -50.4346 H         1 UNK         0.0600 
    210 H210       -3.8035  -26.9583  -48.5251 H         1 UNK         0.3000 
    211 H211       -5.9880  -27.1754  -48.2593 H         1 UNK         0.0600 
    212 H212       -6.1522  -28.6425  -50.9461 H         1 UNK         0.0600 
    213 H213       -7.3913  -28.5792  -49.7058 H         1 UNK         0.0600 
    214 H214       -5.8712  -29.3973  -49.3784 H         1 UNK         0.0600 
    215 H215       -5.5465  -24.9019  -48.4524 H         1 UNK         0.3000 
    216 H216       -6.1920  -22.8293  -48.8335 H         1 UNK         0.0600 
    217 H217       -8.1276  -22.1734  -50.1504 H         1 UNK         0.0600 
    218 H218       -8.5383  -23.6403  -49.2867 H         1 UNK         0.0600 
    219 H219       -8.1625  -23.7120  -51.0049 H         1 UNK         0.0600 
    220 H220       -6.8418  -21.9269  -51.7086 H         1 UNK         0.3000 
    221 H221       -5.8886  -21.0506  -53.4667 H         1 UNK         0.0600 
    222 H222       -3.7160  -23.2008  -53.2880 H         1 UNK         0.0600 
    223 H223       -5.2645  -23.3685  -54.1135 H         1 UNK         0.0600 
    224 H224       -4.0826  -22.1999  -54.6834 H         1 UNK         0.0600 
    225 H225       -3.4421  -21.6425  -50.9532 H         1 UNK         0.3000 
    226 H226       -1.5700  -19.6887  -51.7424 H         1 UNK         0.0600 
    227 H227       -1.1398  -21.5975  -50.1699 H         1 UNK         0.0600 
    228 H228       -0.5814  -20.0511  -49.5435 H         1 UNK         0.0600 
    229 H229       -2.0683  -20.7586  -48.9264 H         1 UNK         0.0600 
    230 H230       -4.6396  -19.1370  -50.3668 H         1 UNK         0.3000 
    231 H231       -4.0268  -16.5115  -49.1778 H         1 UNK         0.0600 
    232 H232       -6.6775  -17.9880  -49.6223 H         1 UNK         0.0600 
    233 H233       -6.4620  -16.5109  -48.6905 H         1 UNK         0.0600 
    234 H234       -5.7296  -18.0060  -48.1341 H         1 UNK         0.0600 
    235 H235       -4.4334  -17.6715  -52.3676 H         1 UNK         0.3000 
    236 H236       -5.1166  -15.0183  -53.4284 H         1 UNK         0.0600 
    237 H237       -7.3575  -16.0360  -53.0363 H         1 UNK         0.0600 
    238 H238       -7.0236  -15.9390  -54.7565 H         1 UNK         0.0600 
    239 H239       -6.8774  -17.4830  -53.9215 H         1 UNK         0.0600 
    240 H240       -2.6802  -15.8904  -53.5668 H         1 UNK         0.3000 
    241 H241       -2.0533  -17.6727  -55.6883 H         1 UNK         0.0600 
    242 H242       -2.6022  -14.1773  -57.6796 H         1 UNK         0.3800 
    243 H243       -3.1427  -14.3588  -56.0321 H         1 UNK         0.3800 
    244 H244        0.2763  -16.8544  -55.4504 H         1 UNK         0.0800 
    245 H245       -0.2626  -15.5263  -54.4494 H         1 UNK         0.0800 
    246 H246        1.8256  -18.4448  -53.9270 H         1 UNK         0.0800 
    247 H247        1.9356  -16.7949  -53.3603 H         1 UNK         0.0800 
@<TRIPOS>BOND
     1    1    2 1    
     2    1  127 1    
     3    1  128 1    
     4    1  129 1    
     5    2    3 2    
     6    2    4 am   BACKBONE|DICT|INTERRES
     7    4    5 1    
     8    4  130 1    
     9    5    6 1    
    10    5   65 1    
    11    5  131 1    
    12    6    7 1    
    13    6  132 1    
    14    6  133 1    
    15    7    8 1    
    16    8    9 1    
    17    8  134 1    
    18    8  135 1    
    19    9   10 ar   
    20    9   14 ar   
    21   10   11 ar   
    22   10  136 1    
    23   11   12 ar   
    24   11  126 1    
    25   12   13 ar   
    26   12  137 1    
    27   13   14 ar   
    28   13   15 1    
    29   14  138 1    
    30   15   16 1    
    31   15  139 1    
    32   15  140 1    
    33   16   17 1    
    34   17   18 1    
    35   17  141 1    
    36   17  142 1    
    37   18   19 1    
    38   18   67 1    
    39   18  143 1    
    40   19   20 am   BACKBONE|DICT|INTERRES
    41   19  144 1    
    42   20   21 2    
    43   20   22 1    
    44   22   23 1    
    45   22   24 1    
    46   22  145 1    
    47   23  146 1    
    48   23  147 1    
    49   23  148 1    
    50   24   25 am   BACKBONE|DICT|INTERRES
    51   24  149 1    
    52   25   26 2    
    53   25   27 1    
    54   27   28 1    
    55   27   29 1    
    56   27  150 1    
    57   28  151 1    
    58   28  152 1    
    59   28  153 1    
    60   29   30 am   BACKBONE|DICT|INTERRES
    61   29  154 1    
    62   30   31 2    
    63   30   32 1    
    64   32   33 1    
    65   32   34 1    
    66   32  155 1    
    67   33  156 1    
    68   33  157 1    
    69   33  158 1    
    70   34   35 am   BACKBONE|DICT|INTERRES
    71   34  159 1    
    72   35   36 2    
    73   35   37 1    
    74   37   38 1    
    75   37   39 1    
    76   37  160 1    
    77   38  161 1    
    78   38  162 1    
    79   38  163 1    
    80   39   40 am   BACKBONE|DICT|INTERRES
    81   39  164 1    
    82   40   41 2    
    83   40   42 1    
    84   42   43 1    
    85   42   44 1    
    86   42  165 1    
    87   43  166 1    
    88   43  167 1    
    89   43  168 1    
    90   44   45 am   BACKBONE|DICT|INTERRES
    91   44  169 1    
    92   45   46 2    
    93   45   47 1    
    94   47   48 1    
    95   47   49 1    
    96   47  170 1    
    97   48  171 1    
    98   48  172 1    
    99   48  173 1    
   100   49   50 am   BACKBONE|DICT|INTERRES
   101   49  174 1    
   102   50   51 2    
   103   50   52 1    
   104   52   53 1    
   105   52   54 1    
   106   52  175 1    
   107   53  176 1    
   108   53  177 1    
   109   53  178 1    
   110   54   55 am   BACKBONE|DICT|INTERRES
   111   54  179 1    
   112   55   56 2    
   113   55   57 1    
   114   57   58 1    
   115   57   59 1    
   116   57  180 1    
   117   58  181 1    
   118   58  182 1    
   119   58  183 1    
   120   59   60 am   BACKBONE|DICT|INTERRES
   121   59  184 1    
   122   60   61 2    
   123   60   62 1    
   124   62   63 1    
   125   62   64 1    
   126   62  185 1    
   127   63  186 1    
   128   63  187 1    
   129   63  188 1    
   130   64   65 am   BACKBONE|DICT|INTERRES
   131   64  189 1    
   132   65   66 2    
   133   67   68 2    
   134   67   69 am   BACKBONE|DICT|INTERRES
   135   69   70 1    
   136   69  190 1    
   137   70   71 1    
   138   70   72 1    
   139   70  191 1    
   140   71  192 1    
   141   71  193 1    
   142   71  194 1    
   143   72   73 2    
   144   72   74 am   BACKBONE|DICT|INTERRES
   145   74   75 1    
   146   74  195 1    
   147   75   76 1    
   148   75   77 1    
   149   75  196 1    
   150   76  197 1    
   151   76  198 1    
   152   76  199 1    
   153   77   78 2    
   154   77   79 am   BACKBONE|DICT|INTERRES
   155   79   80 1    
   156   79  200 1    
   157   80   81 1    
   158   80   82 1    
   159   80  201 1    
   160   81  202 1    
   161   81  203 1    
   162   81  204 1    
   163   82   83 2    
   164   82   84 am   BACKBONE|DICT|INTERRES
   165   84   85 1    
   166   84  205 1    
   167   85   86 1    
   168   85   87 1    
   169   85  206 1    
   170   86  207 1    
   171   86  208 1    
   172   86  209 1    
   173   87   88 2    
   174   87   89 am   BACKBONE|DICT|INTERRES
   175   89   90 1    
   176   89  210 1    
   177   90   91 1    
   178   90   92 1    
   179   90  211 1    
   180   91  212 1    
   181   91  213 1    
   182   91  214 1    
   183   92   93 2    
   184   92   94 am   BACKBONE|DICT|INTERRES
   185   94   95 1    
   186   94  215 1    
   187   95   96 1    
   188   95   97 1    
   189   95  216 1    
   190   96  217 1    
   191   96  218 1    
   192   96  219 1    
   193   97   98 2    
   194   97   99 am   BACKBONE|DICT|INTERRES
   195   99  100 1    
   196   99  220 1    
   197  100  101 1    
   198  100  102 1    
   199  100  221 1    
   200  101  222 1    
   201  101  223 1    
   202  101  224 1    
   203  102  103 2    
   204  102  104 am   BACKBONE|DICT|INTERRES
   205  104  105 1    
   206  104  225 1    
   207  105  106 1    
   208  105  107 1    
   209  105  226 1    
   210  106  227 1    
   211  106  228 1    
   212  106  229 1    
   213  107  108 2    
   214  107  109 am   BACKBONE|DICT|INTERRES
   215  109  110 1    
   216  109  230 1    
   217  110  111 1    
   218  110  112 1    
   219  110  231 1    
   220  111  232 1    
   221  111  233 1    
   222  111  234 1    
   223  112  113 2    
   224  112  114 am   BACKBONE|DICT|INTERRES
   225  114  115 1    
   226  114  235 1    
   227  115  116 1    
   228  115  117 1    
   229  115  236 1    
   230  116  237 1    
   231  116  238 1    
   232  116  239 1    
   233  117  118 2    
   234  117  119 am   BACKBONE|DICT|INTERRES
   235  119  120 1    
   236  119  240 1    
   237  120  121 1    
   238  120  124 1    
   239  120  241 1    
   240  121  122 am   BACKBONE|DICT|INTERRES
   241  121  123 2    
   242  122  242 1    
   243  122  243 1    
   244  124  125 1    
   245  124  244 1    
   246  124  245 1    
   247  125  126 1    
   248  126  246 1    
   249  126  247 1    
@<TRIPOS>SUBSTRUCTURE
     1 UNK         1 GROUP             0       ****    0 ROOT    
