@<TRIPOS>MOLECULE
3R540
247   249    1
SMALL
USER_CHARGES


@<TRIPOS>ATOM
      1 CA          0.1494   -9.1605  -45.2778 C.3       0 UNK        -0.1800 
      2 C           0.3362  -10.6531  -45.0546 C.2       0 UNK         0.5000 
      3 O           1.3266  -11.0597  -44.4446 O.2       0 UNK        -0.5000 
      4 N          -0.6132  -11.4684  -45.5363 N.am      1 UNK        -0.5000 
      5 CA         -0.5957  -12.9384  -45.4871 C.3       1 UNK         0.1400 
      6 C6         -1.8089  -13.5756  -46.2073 C.3       23 UNK        -0.0398 
      7 S7         -1.9899  -13.0318  -47.9363 S.3       23 UNK        -0.2404 
      8 C8         -3.3936  -14.0646  -48.4649 C.3       23 UNK        -0.0205 
      9 C9         -2.9711  -15.0760  -49.5179 C.ar      23 UNK        -0.0193 
     10 C10        -3.1987  -14.8083  -50.8724 C.ar      23 UNK        -0.1150 
     11 C11        -2.8127  -15.7277  -51.8511 C.ar      23 UNK        -0.0193 
     12 C12        -2.1883  -16.9156  -51.4650 C.ar      23 UNK        -0.1150 
     13 C13        -1.9663  -17.2020  -50.1161 C.ar      23 UNK        -0.0193 
     14 C14        -2.3602  -16.2783  -49.1430 C.ar      23 UNK        -0.1150 
     15 C15        -1.2863  -18.5057  -49.7315 C.3       23 UNK        -0.0205 
     16 S16        -2.4426  -19.9047  -49.7659 S.3       23 UNK        -0.2404 
     17 C17        -3.1695  -19.8940  -48.0917 C.3       23 UNK        -0.0398 
     18 CA         -2.8942  -21.2474  -47.3884 C.3       11 UNK         0.1400 
     19 N          -1.5842  -21.2989  -46.7316 N.am      11 UNK        -0.5000 
     20 C          -0.9605  -22.4416  -46.4082 C.2       10 UNK         0.5000 
     21 O          -1.4730  -23.5542  -46.5343 O.2       10 UNK        -0.5000 
     22 CA          0.4566  -22.3178  -45.8308 C.3       10 UNK         0.1400 
     23 CB          1.4623  -21.9183  -46.9226 C.3       10 UNK        -0.1800 
     24 N           0.4878  -21.3371  -44.7495 N.am      10 UNK        -0.5000 
     25 C           0.1864  -21.6131  -43.4729 C.2       9 UNK         0.5000 
     26 O          -0.0677  -22.7443  -43.0583 O.2       9 UNK        -0.5000 
     27 CA          0.1385  -20.4233  -42.4937 C.3       9 UNK         0.1400 
     28 CB          1.5011  -20.2282  -41.8123 C.3       9 UNK        -0.1800 
     29 N          -0.2664  -19.1703  -43.1338 N.am      9 UNK        -0.5000 
     30 C          -1.4831  -18.9493  -43.6531 C.2       8 UNK         0.5000 
     31 O          -2.3969  -19.7695  -43.6148 O.2       8 UNK        -0.5000 
     32 CA         -1.7097  -17.6170  -44.3889 C.3       8 UNK         0.1400 
     33 CB         -2.3306  -16.5817  -43.4404 C.3       8 UNK        -0.1800 
     34 N          -0.4939  -17.0724  -44.9985 N.am      8 UNK        -0.5000 
     35 C           0.2146  -17.6909  -45.9549 C.2       7 UNK         0.5000 
     36 O          -0.0852  -18.7973  -46.4065 O.2       7 UNK        -0.5000 
     37 CA          1.4833  -16.9851  -46.4668 C.3       7 UNK         0.1400 
     38 CB          1.1723  -16.1515  -47.7193 C.3       7 UNK        -0.1800 
     39 N           2.1168  -16.1160  -45.4772 N.am      7 UNK        -0.5000 
     40 C           2.6619  -16.5017  -44.3157 C.2       6 UNK         0.5000 
     41 O           2.6288  -17.6645  -43.9098 O.2       6 UNK        -0.5000 
     42 CA          3.3303  -15.4032  -43.4545 C.3       6 UNK         0.1400 
     43 CB          4.6129  -15.9086  -42.7643 C.3       6 UNK        -0.1800 
     44 N           3.5907  -14.1366  -44.1569 N.am      6 UNK        -0.5000 
     45 C           4.3682  -13.9338  -45.2330 C.2       5 UNK         0.5000 
     46 O           4.9837  -14.8241  -45.8191 O.2       5 UNK        -0.5000 
     47 CA          4.4609  -12.4889  -45.7552 C.3       5 UNK         0.1400 
     48 CB          3.4001  -12.2334  -46.8362 C.3       5 UNK        -0.1800 
     49 N           4.3293  -11.4987  -44.6828 N.am      5 UNK        -0.5000 
     50 C           5.3420  -11.1772  -43.8643 C.2       4 UNK         0.5000 
     51 O           6.4684  -11.6686  -43.9539 O.2       4 UNK        -0.5000 
     52 CA          5.0811  -10.1277  -42.7679 C.3       4 UNK         0.1400 
     53 CB          5.4752   -8.7289  -43.2669 C.3       4 UNK        -0.1800 
     54 N           3.7107  -10.0753  -42.2578 N.am      4 UNK        -0.5000 
     55 C           3.0687  -11.0642  -41.6225 C.2       3 UNK         0.5000 
     56 O           3.5133  -12.2076  -41.5101 O.2       3 UNK        -0.5000 
     57 CA          1.7119  -10.7217  -40.9827 C.3       3 UNK         0.1400 
     58 CB          1.2789   -9.2500  -41.1498 C.3       3 UNK        -0.1800 
     59 N           0.6878  -11.5798  -41.5624 N.am      3 UNK        -0.5000 
     60 C          -0.1142  -12.4080  -40.8822 C.2       2 UNK         0.5000 
     61 O          -0.0561  -12.5619  -39.6613 O.2       2 UNK        -0.5000 
     62 CA         -1.1827  -13.1791  -41.6847 C.3       2 UNK         0.1400 
     63 CB         -2.5912  -12.9151  -41.1265 C.3       2 UNK        -0.1800 
     64 N          -1.1794  -12.8300  -43.1067 N.am      2 UNK        -0.5000 
     65 C          -0.5071  -13.4940  -44.0531 C.2       1 UNK         0.5000 
     66 O           0.1632  -14.5014  -43.8380 O.2       1 UNK        -0.5000 
     67 C          -4.0706  -21.7174  -46.5063 C.2       11 UNK         0.5000 
     68 O          -5.0997  -22.1078  -47.0609 O.2       11 UNK        -0.5000 
     69 N          -3.8950  -21.7586  -45.1771 N.am      12 UNK        -0.5000 
     70 CA         -4.8284  -22.3879  -44.2369 C.3       12 UNK         0.1400 
     71 CB         -4.3544  -22.1489  -42.7953 C.3       12 UNK        -0.1800 
     72 C          -5.0300  -23.8971  -44.4844 C.2       12 UNK         0.5000 
     73 O          -6.1169  -24.4112  -44.2178 O.2       12 UNK        -0.5000 
     74 N          -4.0111  -24.5765  -45.0310 N.am      13 UNK        -0.5000 
     75 CA         -4.0547  -25.9860  -45.4208 C.3       13 UNK         0.1400 
     76 CB         -2.6375  -26.5782  -45.3154 C.3       13 UNK        -0.1800 
     77 C          -4.6687  -26.1561  -46.8261 C.2       13 UNK         0.5000 
     78 O          -4.0397  -26.7453  -47.7057 O.2       13 UNK        -0.5000 
     79 N          -5.8789  -25.6106  -47.0192 N.am      14 UNK        -0.5000 
     80 CA         -6.6886  -25.6457  -48.2437 C.3       14 UNK         0.1400 
     81 CB         -7.2331  -27.0702  -48.4783 C.3       14 UNK        -0.1800 
     82 C          -5.9389  -25.0861  -49.4707 C.2       14 UNK         0.5000 
     83 O          -5.7973  -25.7780  -50.4808 O.2       14 UNK        -0.5000 
     84 N          -5.4212  -23.8560  -49.3350 N.am      15 UNK        -0.5000 
     85 CA         -4.5870  -23.1512  -50.3166 C.3       15 UNK         0.1400 
     86 CB         -5.3963  -22.7915  -51.5778 C.3       15 UNK        -0.1800 
     87 C          -3.2696  -23.8996  -50.6193 C.2       15 UNK         0.5000 
     88 O          -2.8317  -23.9426  -51.7698 O.2       15 UNK        -0.5000 
     89 N          -2.6924  -24.5085  -49.5707 N.am      16 UNK        -0.5000 
     90 CA         -1.5279  -25.3998  -49.5809 C.3       16 UNK         0.1400 
     91 CB         -0.2487  -24.6227  -49.9506 C.3       16 UNK        -0.1800 
     92 C          -1.7701  -26.6293  -50.4799 C.2       16 UNK         0.5000 
     93 O          -0.9881  -26.8958  -51.3921 O.2       16 UNK        -0.5000 
     94 N          -2.8969  -27.3166  -50.2424 N.am      17 UNK        -0.5000 
     95 CA         -3.4537  -28.4079  -51.0525 C.3       17 UNK         0.1400 
     96 CB         -2.5975  -29.6824  -50.9064 C.3       17 UNK        -0.1800 
     97 C          -3.6744  -27.9886  -52.5240 C.2       17 UNK         0.5000 
     98 O          -3.3292  -28.7292  -53.4462 O.2       17 UNK        -0.5000 
     99 N          -4.2099  -26.7724  -52.6969 N.am      18 UNK        -0.5000 
    100 CA        -4.4512  -26.0415  -53.9447 C.3       18 UNK         0.1400 
    101 CB        -5.4644  -26.7908  -54.8334 C.3       18 UNK        -0.1800 
    102 C         -3.1869  -25.6259  -54.7311 C.2       18 UNK         0.5000 
    103 O         -3.3267  -25.0627  -55.8181 O.2       18 UNK        -0.5000 
    104 N         -1.9812  -25.8691  -54.1962 N.am      19 UNK        -0.5000 
    105 CA        -0.7154  -25.5439  -54.8587 C.3       19 UNK         0.1400 
    106 CB         0.4176  -26.3801  -54.2456 C.3       19 UNK        -0.1800 
    107 C         -0.3622  -24.0459  -54.8034 C.2       19 UNK         0.5000 
    108 O          0.4019  -23.5827  -55.6511 O.2       19 UNK        -0.5000 
    109 N         -0.9117  -23.3180  -53.8228 N.am      20 UNK        -0.5000 
    110 CA        -0.6670  -21.8946  -53.5904 C.3       20 UNK         0.1400 
    111 CB        -0.0960  -21.7076  -52.1734 C.3       20 UNK        -0.1800 
    112 C         -1.9409  -21.0589  -53.8096 C.2       20 UNK         0.5000 
    113 O         -2.0340  -19.9529  -53.2798 O.2       20 UNK        -0.5000 
    114 N         -2.8950  -21.5700  -54.6020 N.am      21 UNK        -0.5000 
    115 CA        -4.2019  -20.9666  -54.9003 C.3       21 UNK         0.1400 
    116 CB        -5.1319  -22.0649  -55.4470 C.3       21 UNK        -0.1800 
    117 C         -4.1561  -19.7137  -55.8117 C.2       21 UNK         0.5000 
    118 O         -5.0001  -19.5606  -56.6963 O.2       21 UNK        -0.5000 
    119 N         -3.1817  -18.8324  -55.5639 N.am      22 UNK        -0.5000 
    120 CA        -2.9925  -17.4971  -56.1577 C.3       22 UNK         0.1400 
    121 C         -2.6933  -17.4736  -57.6883 C.2       22 UNK         0.5000 
    122 N         -2.3122  -18.5852  -58.3052 N.am      22 UNK        -0.7600 
    123 O         -2.7720  -16.4260  -58.3249 O.2       22 UNK        -0.5000 
    124 C124       -4.1012  -16.4825  -55.7473 C.3       23 UNK        -0.0398 
    125 S125       -4.4446  -16.4549  -53.9512 S.3       23 UNK        -0.2404 
    126 C126       -3.0604  -15.4512  -53.3262 C.3       23 UNK        -0.0205 
    127 H127       -0.6840   -8.9534  -45.9494 H         1 UNK         0.0600 
    128 H128        1.0517   -8.7323  -45.7144 H         1 UNK         0.0600 
    129 H129       -0.0434   -8.6599  -44.3294 H         1 UNK         0.0600 
    130 H130       -1.3922  -11.0672  -46.0394 H         1 UNK         0.3000 
    131 H131        0.3056  -13.2644  -46.0078 H         1 UNK         0.0600 
    132 H132       -2.7355  -13.3399  -45.6799 H         1 UNK         0.0800 
    133 H133       -1.7211  -14.6637  -46.2075 H         1 UNK         0.0800 
    134 H134       -3.8384  -14.5829  -47.6142 H         1 UNK         0.0800 
    135 H135       -4.1755  -13.4139  -48.8595 H         1 UNK         0.0800 
    136 H136       -3.6763  -13.8836  -51.1646 H         1 UNK         0.1150 
    137 H137       -1.8874  -17.6287  -52.2189 H         1 UNK         0.1150 
    138 H138       -2.1851  -16.4899  -48.0976 H         1 UNK         0.1150 
    139 H139       -0.4769  -18.7084  -50.4341 H         1 UNK         0.0800 
    140 H140       -0.8229  -18.4327  -48.7522 H         1 UNK         0.0800 
    141 H141       -4.2387  -19.7145  -48.2199 H         1 UNK         0.0800 
    142 H142       -2.7915  -19.0572  -47.5031 H         1 UNK         0.0800 
    143 H143       -2.8479  -22.0126  -48.1631 H         1 UNK         0.0600 
    144 H144       -1.0942  -20.4169  -46.6086 H         1 UNK         0.3000 
    145 H145        0.7527  -23.2962  -45.4462 H         1 UNK         0.0600 
    146 H146        2.4736  -21.8564  -46.5206 H         1 UNK         0.0600 
    147 H147        1.4773  -22.6560  -47.7257 H         1 UNK         0.0600 
    148 H148        1.2217  -20.9534  -47.3699 H         1 UNK         0.0600 
    149 H149        0.6327  -20.3725  -45.0176 H         1 UNK         0.3000 
    150 H150       -0.5979  -20.6595  -41.7226 H         1 UNK         0.0600 
    151 H151        1.8008  -21.1292  -41.2756 H         1 UNK         0.0600 
    152 H152        1.4690  -19.4138  -41.0884 H         1 UNK         0.0600 
    153 H153        2.2845  -20.0030  -42.5368 H         1 UNK         0.0600 
    154 H154        0.4485  -18.4632  -43.2437 H         1 UNK         0.3000 
    155 H155       -2.4233  -17.8092  -45.1928 H         1 UNK         0.0600 
    156 H156       -3.2392  -16.9700  -42.9783 H         1 UNK         0.0600 
    157 H157       -2.6057  -15.6711  -43.9711 H         1 UNK         0.0600 
    158 H158       -1.6440  -16.3140  -42.6371 H         1 UNK         0.0600 
    159 H159       -0.1510  -16.1901  -44.6272 H         1 UNK         0.3000 
    160 H160        2.2042  -17.7593  -46.7369 H         1 UNK         0.0600 
    161 H161        0.4139  -15.3925  -47.5247 H         1 UNK         0.0600 
    162 H162        0.8065  -16.7811  -48.5295 H         1 UNK         0.0600 
    163 H163        2.0646  -15.6457  -48.0890 H         1 UNK         0.0600 
    164 H164        2.1762  -15.1366  -45.7067 H         1 UNK         0.3000 
    165 H165        2.6107  -15.1635  -42.6703 H         1 UNK         0.0600 
    166 H166        5.3653  -16.2222  -43.4884 H         1 UNK         0.0600 
    167 H167        5.0524  -15.1325  -42.1374 H         1 UNK         0.0600 
    168 H168        4.4027  -16.7632  -42.1202 H         1 UNK         0.0600 
    169 H169        3.1530  -13.3240  -43.7433 H         1 UNK         0.3000 
    170 H170        5.4396  -12.3699  -46.2254 H         1 UNK         0.0600 
    171 H171        2.3925  -12.3984  -46.4611 H         1 UNK         0.0600 
    172 H172        3.4558  -11.2118  -47.2123 H         1 UNK         0.0600 
    173 H173        3.5432  -12.9019  -47.6861 H         1 UNK         0.0600 
    174 H174        3.4128  -11.0879  -44.5375 H         1 UNK         0.3000 
    175 H175        5.7284  -10.3799  -41.9254 H         1 UNK         0.0600 
    176 H176        4.8346   -8.4002  -44.0862 H         1 UNK         0.0600 
    177 H177        5.4068   -7.9899  -42.4683 H         1 UNK         0.0600 
    178 H178        6.5040   -8.7173  -43.6297 H         1 UNK         0.0600 
    179 H179        3.2481   -9.1808  -42.3254 H         1 UNK         0.3000 
    180 H180        1.8221  -10.9187  -39.9147 H         1 UNK         0.0600 
    181 H181        1.1632   -8.9744  -42.1984 H         1 UNK         0.0600 
    182 H182        2.0009   -8.5692  -40.6970 H         1 UNK         0.0600 
    183 H183        0.3230   -9.0704  -40.6574 H         1 UNK         0.0600 
    184 H184        0.6372  -11.5672  -42.5746 H         1 UNK         0.3000 
    185 H185       -0.9664  -14.2419  -41.5613 H         1 UNK         0.0600 
    186 H186       -3.3430  -13.4854  -41.6725 H         1 UNK         0.0600 
    187 H187       -2.6620  -13.2101  -40.0788 H         1 UNK         0.0600 
    188 H188       -2.8577  -11.8594  -41.1899 H         1 UNK         0.0600 
    189 H189       -1.6926  -12.0002  -43.3684 H         1 UNK         0.3000 
    190 H190       -3.0609  -21.3452  -44.7747 H         1 UNK         0.3000 
    191 H191       -5.8008  -21.9068  -44.3600 H         1 UNK         0.0600 
    192 H192       -3.3298  -22.4925  -42.6463 H         1 UNK         0.0600 
    193 H193       -4.3967  -21.0908  -42.5384 H         1 UNK         0.0600 
    194 H194       -4.9868  -22.6753  -42.0791 H         1 UNK         0.0600 
    195 H195       -3.1665  -24.0750  -45.2811 H         1 UNK         0.3000 
    196 H196       -4.6906  -26.5345  -44.7229 H         1 UNK         0.0600 
    197 H197       -2.2308  -26.4518  -44.3120 H         1 UNK         0.0600 
    198 H198       -1.9480  -26.1088  -46.0171 H         1 UNK         0.0600 
    199 H199       -2.6446  -27.6475  -45.5301 H         1 UNK         0.0600 
    200 H200       -6.2928  -25.1269  -46.2304 H         1 UNK         0.3000 
    201 H201       -7.5419  -24.9873  -48.0755 H         1 UNK         0.0600 
    202 H202       -7.9054  -27.0949  -49.3367 H         1 UNK         0.0600 
    203 H203       -7.7968  -27.4235  -47.6149 H         1 UNK         0.0600 
    204 H204       -6.4318  -27.7848  -48.6702 H         1 UNK         0.0600 
    205 H205       -5.5551  -23.3653  -48.4541 H         1 UNK         0.3000 
    206 H206       -4.3035  -22.2066  -49.8581 H         1 UNK         0.0600 
    207 H207       -6.2526  -22.1658  -51.3271 H         1 UNK         0.0600 
    208 H208       -5.7703  -23.6734  -52.0945 H         1 UNK         0.0600 
    209 H209       -4.7826  -22.2313  -52.2814 H         1 UNK         0.0600 
    210 H210       -3.1631  -24.4471  -48.6798 H         1 UNK         0.3000 
    211 H211       -1.4104  -25.7694  -48.5613 H         1 UNK         0.0600 
    212 H212       -0.1455  -23.7204  -49.3482 H         1 UNK         0.0600 
    213 H213        0.6379  -25.2342  -49.7816 H         1 UNK         0.0600 
    214 H214       -0.2445  -24.3306  -51.0002 H         1 UNK         0.0600 
    215 H215       -3.4594  -27.0344  -49.4415 H         1 UNK         0.3000 
    216 H216       -4.4419  -28.6208  -50.6419 H         1 UNK         0.0600 
    217 H217       -3.0656  -30.5273  -51.4126 H         1 UNK         0.0600 
    218 H218       -1.6029  -29.5542  -51.3348 H         1 UNK         0.0600 
    219 H219       -2.4783  -29.9578  -49.8586 H         1 UNK         0.0600 
    220 H220       -4.5000  -26.2789  -51.8567 H         1 UNK         0.3000 
    221 H221       -4.9198  -25.1063  -53.6431 H         1 UNK         0.0600 
    222 H222       -5.0468  -27.7139  -55.2357 H         1 UNK         0.0600 
    223 H223       -6.3661  -27.0437  -54.2756 H         1 UNK         0.0600 
    224 H224       -5.7715  -26.1769  -55.6808 H         1 UNK         0.0600 
    225 H225       -1.9194  -26.2974  -53.2797 H         1 UNK         0.3000 
    226 H226       -0.8005  -25.8239  -55.9109 H         1 UNK         0.0600 
    227 H227        0.1634  -27.4400  -54.2215 H         1 UNK         0.0600 
    228 H228        1.3337  -26.2769  -54.8282 H         1 UNK         0.0600 
    229 H229        0.6456  -26.0635  -53.2275 H         1 UNK         0.0600 
    230 H230       -1.5619  -23.7601  -53.1754 H         1 UNK         0.3000 
    231 H231        0.0724  -21.5125  -54.2963 H         1 UNK         0.0600 
    232 H232        0.1785  -20.6678  -51.9928 H         1 UNK         0.0600 
    233 H233        0.8022  -22.3071  -52.0268 H         1 UNK         0.0600 
    234 H234       -0.8203  -21.9907  -51.4093 H         1 UNK         0.0600 
    235 H235       -2.7192  -22.4732  -55.0189 H         1 UNK         0.3000 
    236 H236       -4.6267  -20.6208  -53.9563 H         1 UNK         0.0600 
    237 H237       -5.2099  -22.8991  -54.7503 H         1 UNK         0.0600 
    238 H238       -6.1424  -21.6865  -55.6058 H         1 UNK         0.0600 
    239 H239       -4.7713  -22.4572  -56.3987 H         1 UNK         0.0600 
    240 H240       -2.5751  -19.0507  -54.7775 H         1 UNK         0.3000 
    241 H241       -2.0632  -17.1393  -55.7153 H         1 UNK         0.0600 
    242 H242       -2.1097  -18.5629  -59.2924 H         1 UNK         0.3800 
    243 H243       -2.2464  -19.4526  -57.7972 H         1 UNK         0.3800 
    244 H244       -3.8350  -15.4718  -56.0612 H         1 UNK         0.0800 
    245 H245       -5.0330  -16.7230  -56.2614 H         1 UNK         0.0800 
    246 H246       -3.2748  -14.3949  -53.4954 H         1 UNK         0.0800 
    247 H247       -2.1501  -15.6749  -53.8829 H         1 UNK         0.0800 
@<TRIPOS>BOND
     1    1    2 1    
     2    1  127 1    
     3    1  128 1    
     4    1  129 1    
     5    2    3 2    
     6    2    4 am   BACKBONE|DICT|INTERRES
     7    4    5 1    
     8    4  130 1    
     9    5    6 1    
    10    5   65 1    
    11    5  131 1    
    12    6    7 1    
    13    6  132 1    
    14    6  133 1    
    15    7    8 1    
    16    8    9 1    
    17    8  134 1    
    18    8  135 1    
    19    9   10 ar   
    20    9   14 ar   
    21   10   11 ar   
    22   10  136 1    
    23   11   12 ar   
    24   11  126 1    
    25   12   13 ar   
    26   12  137 1    
    27   13   14 ar   
    28   13   15 1    
    29   14  138 1    
    30   15   16 1    
    31   15  139 1    
    32   15  140 1    
    33   16   17 1    
    34   17   18 1    
    35   17  141 1    
    36   17  142 1    
    37   18   19 1    
    38   18   67 1    
    39   18  143 1    
    40   19   20 am   BACKBONE|DICT|INTERRES
    41   19  144 1    
    42   20   21 2    
    43   20   22 1    
    44   22   23 1    
    45   22   24 1    
    46   22  145 1    
    47   23  146 1    
    48   23  147 1    
    49   23  148 1    
    50   24   25 am   BACKBONE|DICT|INTERRES
    51   24  149 1    
    52   25   26 2    
    53   25   27 1    
    54   27   28 1    
    55   27   29 1    
    56   27  150 1    
    57   28  151 1    
    58   28  152 1    
    59   28  153 1    
    60   29   30 am   BACKBONE|DICT|INTERRES
    61   29  154 1    
    62   30   31 2    
    63   30   32 1    
    64   32   33 1    
    65   32   34 1    
    66   32  155 1    
    67   33  156 1    
    68   33  157 1    
    69   33  158 1    
    70   34   35 am   BACKBONE|DICT|INTERRES
    71   34  159 1    
    72   35   36 2    
    73   35   37 1    
    74   37   38 1    
    75   37   39 1    
    76   37  160 1    
    77   38  161 1    
    78   38  162 1    
    79   38  163 1    
    80   39   40 am   BACKBONE|DICT|INTERRES
    81   39  164 1    
    82   40   41 2    
    83   40   42 1    
    84   42   43 1    
    85   42   44 1    
    86   42  165 1    
    87   43  166 1    
    88   43  167 1    
    89   43  168 1    
    90   44   45 am   BACKBONE|DICT|INTERRES
    91   44  169 1    
    92   45   46 2    
    93   45   47 1    
    94   47   48 1    
    95   47   49 1    
    96   47  170 1    
    97   48  171 1    
    98   48  172 1    
    99   48  173 1    
   100   49   50 am   BACKBONE|DICT|INTERRES
   101   49  174 1    
   102   50   51 2    
   103   50   52 1    
   104   52   53 1    
   105   52   54 1    
   106   52  175 1    
   107   53  176 1    
   108   53  177 1    
   109   53  178 1    
   110   54   55 am   BACKBONE|DICT|INTERRES
   111   54  179 1    
   112   55   56 2    
   113   55   57 1    
   114   57   58 1    
   115   57   59 1    
   116   57  180 1    
   117   58  181 1    
   118   58  182 1    
   119   58  183 1    
   120   59   60 am   BACKBONE|DICT|INTERRES
   121   59  184 1    
   122   60   61 2    
   123   60   62 1    
   124   62   63 1    
   125   62   64 1    
   126   62  185 1    
   127   63  186 1    
   128   63  187 1    
   129   63  188 1    
   130   64   65 am   BACKBONE|DICT|INTERRES
   131   64  189 1    
   132   65   66 2    
   133   67   68 2    
   134   67   69 am   BACKBONE|DICT|INTERRES
   135   69   70 1    
   136   69  190 1    
   137   70   71 1    
   138   70   72 1    
   139   70  191 1    
   140   71  192 1    
   141   71  193 1    
   142   71  194 1    
   143   72   73 2    
   144   72   74 am   BACKBONE|DICT|INTERRES
   145   74   75 1    
   146   74  195 1    
   147   75   76 1    
   148   75   77 1    
   149   75  196 1    
   150   76  197 1    
   151   76  198 1    
   152   76  199 1    
   153   77   78 2    
   154   77   79 am   BACKBONE|DICT|INTERRES
   155   79   80 1    
   156   79  200 1    
   157   80   81 1    
   158   80   82 1    
   159   80  201 1    
   160   81  202 1    
   161   81  203 1    
   162   81  204 1    
   163   82   83 2    
   164   82   84 am   BACKBONE|DICT|INTERRES
   165   84   85 1    
   166   84  205 1    
   167   85   86 1    
   168   85   87 1    
   169   85  206 1    
   170   86  207 1    
   171   86  208 1    
   172   86  209 1    
   173   87   88 2    
   174   87   89 am   BACKBONE|DICT|INTERRES
   175   89   90 1    
   176   89  210 1    
   177   90   91 1    
   178   90   92 1    
   179   90  211 1    
   180   91  212 1    
   181   91  213 1    
   182   91  214 1    
   183   92   93 2    
   184   92   94 am   BACKBONE|DICT|INTERRES
   185   94   95 1    
   186   94  215 1    
   187   95   96 1    
   188   95   97 1    
   189   95  216 1    
   190   96  217 1    
   191   96  218 1    
   192   96  219 1    
   193   97   98 2    
   194   97   99 am   BACKBONE|DICT|INTERRES
   195   99  100 1    
   196   99  220 1    
   197  100  101 1    
   198  100  102 1    
   199  100  221 1    
   200  101  222 1    
   201  101  223 1    
   202  101  224 1    
   203  102  103 2    
   204  102  104 am   BACKBONE|DICT|INTERRES
   205  104  105 1    
   206  104  225 1    
   207  105  106 1    
   208  105  107 1    
   209  105  226 1    
   210  106  227 1    
   211  106  228 1    
   212  106  229 1    
   213  107  108 2    
   214  107  109 am   BACKBONE|DICT|INTERRES
   215  109  110 1    
   216  109  230 1    
   217  110  111 1    
   218  110  112 1    
   219  110  231 1    
   220  111  232 1    
   221  111  233 1    
   222  111  234 1    
   223  112  113 2    
   224  112  114 am   BACKBONE|DICT|INTERRES
   225  114  115 1    
   226  114  235 1    
   227  115  116 1    
   228  115  117 1    
   229  115  236 1    
   230  116  237 1    
   231  116  238 1    
   232  116  239 1    
   233  117  118 2    
   234  117  119 am   BACKBONE|DICT|INTERRES
   235  119  120 1    
   236  119  240 1    
   237  120  121 1    
   238  120  124 1    
   239  120  241 1    
   240  121  122 am   BACKBONE|DICT|INTERRES
   241  121  123 2    
   242  122  242 1    
   243  122  243 1    
   244  124  125 1    
   245  124  244 1    
   246  124  245 1    
   247  125  126 1    
   248  126  246 1    
   249  126  247 1    
@<TRIPOS>SUBSTRUCTURE
     1 UNK         1 GROUP             0       ****    0 ROOT    
