@<TRIPOS>MOLECULE
3R540
247   249    1
SMALL
USER_CHARGES


@<TRIPOS>ATOM
      1 CA          2.9243  -15.5311  -45.5509 C.3       0 UNK        -0.1800 
      2 C           2.1109  -14.2578  -45.3731 C.2       0 UNK         0.5000 
      3 O           2.5272  -13.3619  -44.6391 O.2       0 UNK        -0.5000 
      4 N           0.9568  -14.1635  -46.0478 N.am      1 UNK        -0.5000 
      5 CA          0.0198  -13.0308  -45.9822 C.3       1 UNK         0.1400 
      6 C6         -1.3607  -13.3511  -46.6168 C.3       23 UNK        -0.0398 
      7 S7         -1.2618  -14.1847  -48.2406 S.3       23 UNK        -0.2404 
      8 C8         -1.7659  -15.8769  -47.7928 C.3       23 UNK        -0.0205 
      9 C9         -1.2215  -16.8882  -48.7859 C.ar      23 UNK        -0.0193 
     10 C10        -2.0308  -17.4019  -49.8028 C.ar      23 UNK        -0.1150 
     11 C11        -1.5210  -18.3350  -50.7118 C.ar      23 UNK        -0.0193 
     12 C12        -0.1880  -18.7501  -50.5944 C.ar      23 UNK        -0.1150 
     13 C13         0.6354  -18.2263  -49.5925 C.ar      23 UNK        -0.0193 
     14 C14         0.1070  -17.3054  -48.6860 C.ar      23 UNK        -0.1150 
     15 C15         2.1101  -18.6009  -49.5148 C.3       23 UNK        -0.0205 
     16 S16         2.4062  -20.2869  -48.8962 S.3       23 UNK        -0.2404 
     17 C17         1.6550  -20.2522  -47.2300 C.3       23 UNK        -0.0398 
     18 CA          0.7566  -21.4851  -46.9808 C.3       11 UNK         0.1400 
     19 N           0.4345  -21.6572  -45.5652 N.am      11 UNK        -0.5000 
     20 C          -0.1257  -22.7576  -45.0445 C.2       10 UNK         0.5000 
     21 O          -0.4120  -23.7585  -45.7007 O.2       10 UNK        -0.5000 
     22 CA         -0.4704  -22.7101  -43.5476 C.3       10 UNK         0.1400 
     23 CB          0.7884  -22.8759  -42.6821 C.3       10 UNK        -0.1800 
     24 N          -1.1576  -21.4716  -43.1871 N.am      10 UNK        -0.5000 
     25 C          -2.3804  -21.1310  -43.6175 C.2       9 UNK         0.5000 
     26 O          -3.0745  -21.8379  -44.3479 O.2       9 UNK        -0.5000 
     27 CA         -2.8996  -19.7508  -43.1810 C.3       9 UNK         0.1400 
     28 CB         -3.5378  -19.8269  -41.7861 C.3       9 UNK        -0.1800 
     29 N          -1.8549  -18.7264  -43.1804 N.am      9 UNK        -0.5000 
     30 C          -1.2428  -18.2728  -44.2825 C.2       8 UNK         0.5000 
     31 O          -1.4576  -18.6945  -45.4172 O.2       8 UNK        -0.5000 
     32 CA         -0.1813  -17.1828  -44.0718 C.3       8 UNK         0.1400 
     33 CB         -0.8604  -15.8729  -43.6425 C.3       8 UNK        -0.1800 
     34 N           0.8475  -17.5411  -43.0928 N.am      8 UNK        -0.5000 
     35 C           1.5693  -18.6745  -43.0838 C.2       7 UNK         0.5000 
     36 O           1.4544  -19.5601  -43.9309 O.2       7 UNK        -0.5000 
     37 CA          2.5975  -18.8720  -41.9504 C.3       7 UNK         0.1400 
     38 CB          4.0258  -18.8092  -42.5135 C.3       7 UNK        -0.1800 
     39 N           2.4847  -17.9033  -40.8604 N.am      7 UNK        -0.5000 
     40 C           1.4685  -17.8060  -39.9916 C.2       6 UNK         0.5000 
     41 O           0.5157  -18.5856  -39.9654 O.2       6 UNK        -0.5000 
     42 CA          1.5070  -16.6079  -39.0181 C.3       6 UNK         0.1400 
     43 CB          1.9916  -17.0581  -37.6316 C.3       6 UNK        -0.1800 
     44 N           2.3484  -15.4953  -39.4811 N.am      6 UNK        -0.5000 
     45 C           2.1199  -14.7706  -40.5850 C.2       5 UNK         0.5000 
     46 O           1.1607  -14.9615  -41.3350 O.2       5 UNK        -0.5000 
     47 CA          3.1874  -13.7256  -40.9472 C.3       5 UNK         0.1400 
     48 CB          4.3544  -14.3957  -41.6906 C.3       5 UNK        -0.1800 
     49 N           2.6385  -12.6806  -41.8048 N.am      5 UNK        -0.5000 
     50 C           1.9667  -11.6047  -41.3765 C.2       4 UNK         0.5000 
     51 O           1.7392  -11.3735  -40.1871 O.2       4 UNK        -0.5000 
     52 CA          1.4917  -10.6194  -42.4689 C.3       4 UNK         0.1400 
     53 CB          1.1481   -9.2188  -41.9211 C.3       4 UNK        -0.1800 
     54 N           2.4331  -10.5313  -43.5912 N.am      4 UNK        -0.5000 
     55 C           3.7159  -10.1360  -43.5612 C.2       3 UNK         0.5000 
     56 O           4.2591   -9.6363  -42.5753 O.2       3 UNK        -0.5000 
     57 CA          4.5505  -10.3738  -44.8360 C.3       3 UNK         0.1400 
     58 CB          5.6221  -11.4458  -44.5749 C.3       3 UNK        -0.1800 
     59 N           3.7287  -10.8166  -45.9641 N.am      3 UNK        -0.5000 
     60 C           3.2624  -10.0231  -46.9379 C.2       2 UNK         0.5000 
     61 O           3.5171   -8.8215  -47.0244 O.2       2 UNK        -0.5000 
     62 CA          2.3412  -10.6806  -47.9867 C.3       2 UNK         0.1400 
     63 CB          3.1580  -11.1536  -49.1987 C.3       2 UNK        -0.1800 
     64 N           1.5792  -11.8131  -47.4543 N.am      2 UNK        -0.5000 
     65 C           0.6110  -11.7153  -46.5321 C.2       1 UNK         0.5000 
     66 O           0.2187  -10.6438  -46.0705 O.2       1 UNK        -0.5000 
     67 C          -0.5122  -21.4823  -47.8563 C.2       11 UNK         0.5000 
     68 O          -0.5400  -22.1873  -48.8636 O.2       11 UNK        -0.5000 
     69 N          -1.5538  -20.7523  -47.4308 N.am      12 UNK        -0.5000 
     70 CA         -2.8479  -20.6886  -48.1110 C.3       12 UNK         0.1400 
     71 CB         -3.7482  -19.6616  -47.4090 C.3       12 UNK        -0.1800 
     72 C          -3.5491  -22.0545  -48.2157 C.2       12 UNK         0.5000 
     73 O          -4.1346  -22.3524  -49.2546 O.2       12 UNK        -0.5000 
     74 N          -3.4562  -22.8705  -47.1573 N.am      13 UNK        -0.5000 
     75 CA         -3.9595  -24.2423  -47.1432 C.3       13 UNK         0.1400 
     76 CB         -3.9980  -24.7572  -45.6964 C.3       13 UNK        -0.1800 
     77 C          -3.1355  -25.1900  -48.0354 C.2       13 UNK         0.5000 
     78 O          -3.7170  -26.0484  -48.6982 O.2       13 UNK        -0.5000 
     79 N          -1.8047  -25.0376  -48.0204 N.am      14 UNK        -0.5000 
     80 CA         -0.8681  -25.8962  -48.7427 C.3       14 UNK         0.1400 
     81 CB          0.5381  -25.7371  -48.1440 C.3       14 UNK        -0.1800 
     82 C          -0.8397  -25.6392  -50.2591 C.2       14 UNK         0.5000 
     83 O          -0.8919  -26.5988  -51.0304 O.2       14 UNK        -0.5000 
     84 N          -0.7266  -24.3643  -50.6580 N.am      15 UNK        -0.5000 
     85 CA         -0.5344  -23.9080  -52.0368 C.3       15 UNK         0.1400 
     86 CB         -0.3564  -22.3824  -52.0419 C.3       15 UNK        -0.1800 
     87 C          -1.6803  -24.3447  -52.9662 C.2       15 UNK         0.5000 
     88 O          -2.7807  -23.8020  -52.8766 O.2       15 UNK        -0.5000 
     89 N          -1.4078  -25.3626  -53.7971 N.am      16 UNK        -0.5000 
     90 CA         -2.3441  -26.0501  -54.6982 C.3       16 UNK         0.1400 
     91 CB         -2.7548  -25.1262  -55.8603 C.3       16 UNK        -0.1800 
     92 C          -3.5581  -26.6840  -53.9804 C.2       16 UNK         0.5000 
     93 O          -4.5940  -26.9072  -54.6082 O.2       16 UNK        -0.5000 
     94 N          -3.4011  -26.9627  -52.6774 N.am      17 UNK        -0.5000 
     95 CA         -4.3828  -27.5286  -51.7486 C.3       17 UNK         0.1400 
     96 CB         -4.7431  -28.9728  -52.1567 C.3       17 UNK        -0.1800 
     97 C          -5.6398  -26.6584  -51.5094 C.2       17 UNK         0.5000 
     98 O          -6.6038  -27.1603  -50.9272 O.2       17 UNK        -0.5000 
     99 N          -5.6329  -25.3867  -51.9348 N.am      18 UNK        -0.5000 
    100 CA        -6.7541  -24.4633  -51.7882 C.3       18 UNK         0.1400 
    101 CB        -7.8712  -24.8012  -52.7952 C.3       18 UNK        -0.1800 
    102 C         -6.2757  -23.0245  -52.0002 C.2       18 UNK         0.5000 
    103 O         -5.6098  -22.7439  -52.9984 O.2       18 UNK        -0.5000 
    104 N         -6.6951  -22.1209  -51.1058 N.am      19 UNK        -0.5000 
    105 CA        -6.3499  -20.6958  -51.1275 C.3       19 UNK         0.1400 
    106 CB        -6.8691  -20.0426  -49.8382 C.3       19 UNK        -0.1800 
    107 C         -6.8974  -19.9498  -52.3585 C.2       19 UNK         0.5000 
    108 O         -6.2973  -18.9670  -52.7925 O.2       19 UNK        -0.5000 
    109 N         -8.0167  -20.4444  -52.9045 N.am      20 UNK        -0.5000 
    110 CA        -8.6311  -19.9598  -54.1392 C.3       20 UNK         0.1400 
    111 CB       -10.0713  -20.4895  -54.2168 C.3       20 UNK        -0.1800 
    112 C         -7.8421  -20.3595  -55.4017 C.2       20 UNK         0.5000 
    113 O         -7.9684  -19.6829  -56.4231 O.2       20 UNK        -0.5000 
    114 N         -7.0547  -21.4418  -55.3186 N.am      21 UNK        -0.5000 
    115 CA        -6.1765  -21.9039  -56.3884 C.3       21 UNK         0.1400 
    116 CB        -6.0509  -23.4367  -56.3416 C.3       21 UNK        -0.1800 
    117 C         -4.8131  -21.2058  -56.2786 C.2       21 UNK         0.5000 
    118 O         -4.4308  -20.4838  -57.1993 O.2       21 UNK        -0.5000 
    119 N         -4.1208  -21.4119  -55.1483 N.am      22 UNK        -0.5000 
    120 CA        -2.8329  -20.7882  -54.7864 C.3       22 UNK         0.1400 
    121 C         -1.6127  -21.1533  -55.6982 C.2       22 UNK         0.5000 
    122 N         -1.7492  -22.0163  -56.6958 N.am      22 UNK        -0.7600 
    123 O         -0.5022  -20.6779  -55.4834 O.2       22 UNK        -0.5000 
    124 C124       -2.9990  -19.2566  -54.5613 C.3       23 UNK        -0.0398 
    125 S125       -1.7510  -18.5006  -53.4644 S.3       23 UNK        -0.2404 
    126 C126       -2.4119  -18.8930  -51.8150 C.3       23 UNK        -0.0205 
    127 H127        2.9873  -16.0674  -44.6045 H         1 UNK         0.0600 
    128 H128        3.9364  -15.2865  -45.8728 H         1 UNK         0.0600 
    129 H129        2.4828  -16.1976  -46.2914 H         1 UNK         0.0600 
    130 H130        0.6840  -14.9011  -46.6796 H         1 UNK         0.3000 
    131 H131       -0.1604  -12.8431  -44.9213 H         1 UNK         0.0600 
    132 H132       -1.9588  -12.4448  -46.7310 H         1 UNK         0.0800 
    133 H133       -1.9373  -13.9739  -45.9340 H         1 UNK         0.0800 
    134 H134       -2.8545  -15.9304  -47.7426 H         1 UNK         0.0800 
    135 H135       -1.4005  -16.1310  -46.7976 H         1 UNK         0.0800 
    136 H136       -3.0576  -17.0744  -49.8848 H         1 UNK         0.1150 
    137 H137        0.2150  -19.4648  -51.2981 H         1 UNK         0.1150 
    138 H138        0.7366  -16.8970  -47.9097 H         1 UNK         0.1150 
    139 H139        2.5487  -18.5144  -50.5098 H         1 UNK         0.0800 
    140 H140        2.6542  -17.8953  -48.8849 H         1 UNK         0.0800 
    141 H141        1.1002  -19.3292  -47.0611 H         1 UNK         0.0800 
    142 H142        2.4735  -20.2410  -46.5089 H         1 UNK         0.0800 
    143 H143        1.3346  -22.3671  -47.2664 H         1 UNK         0.0600 
    144 H144        0.6554  -20.8762  -44.9508 H         1 UNK         0.3000 
    145 H145       -1.1424  -23.5439  -43.3332 H         1 UNK         0.0600 
    146 H146        0.5371  -22.9006  -41.6217 H         1 UNK         0.0600 
    147 H147        1.2998  -23.8104  -42.9164 H         1 UNK         0.0600 
    148 H148        1.5006  -22.0655  -42.8389 H         1 UNK         0.0600 
    149 H149       -0.6443  -20.8103  -42.6239 H         1 UNK         0.3000 
    150 H150       -3.6703  -19.4466  -43.8923 H         1 UNK         0.0600 
    151 H151       -4.3301  -20.5763  -41.7599 H         1 UNK         0.0600 
    152 H152       -3.9845  -18.8732  -41.5046 H         1 UNK         0.0600 
    153 H153       -2.8068  -20.0940  -41.0217 H         1 UNK         0.0600 
    154 H154       -1.5898  -18.3420  -42.2849 H         1 UNK         0.3000 
    155 H155        0.3164  -17.0206  -45.0291 H         1 UNK         0.0600 
    156 H156       -1.2826  -15.9473  -42.6397 H         1 UNK         0.0600 
    157 H157       -1.6743  -15.6106  -44.3176 H         1 UNK         0.0600 
    158 H158       -0.1575  -15.0420  -43.6372 H         1 UNK         0.0600 
    159 H159        1.0168  -16.8568  -42.3649 H         1 UNK         0.3000 
    160 H160        2.4334  -19.8687  -41.5362 H         1 UNK         0.0600 
    161 H161        4.2506  -17.8271  -42.9317 H         1 UNK         0.0600 
    162 H162        4.1678  -19.5440  -43.3074 H         1 UNK         0.0600 
    163 H163        4.7648  -19.0233  -41.7412 H         1 UNK         0.0600 
    164 H164        3.2218  -17.2179  -40.7949 H         1 UNK         0.3000 
    165 H165        0.4847  -16.2365  -38.9208 H         1 UNK         0.0600 
    166 H166        1.9444  -16.2405  -36.9120 H         1 UNK         0.0600 
    167 H167        1.3700  -17.8662  -37.2434 H         1 UNK         0.0600 
    168 H168        3.0197  -17.4208  -37.6627 H         1 UNK         0.0600 
    169 H169        3.1635  -15.2896  -38.9210 H         1 UNK         0.3000 
    170 H170        3.5679  -13.2746  -40.0283 H         1 UNK         0.0600 
    171 H171        4.8294  -15.1604  -41.0752 H         1 UNK         0.0600 
    172 H172        4.0229  -14.8737  -42.6132 H         1 UNK         0.0600 
    173 H173        5.1231  -13.6678  -41.9512 H         1 UNK         0.0600 
    174 H174        2.7084  -12.8395  -42.8064 H         1 UNK         0.3000 
    175 H175        0.5746  -11.0454  -42.8784 H         1 UNK         0.0600 
    176 H176        0.3412   -9.2733  -41.1895 H         1 UNK         0.0600 
    177 H177        2.0025   -8.7530  -41.4297 H         1 UNK         0.0600 
    178 H178        0.8163   -8.5549  -42.7194 H         1 UNK         0.0600 
    179 H179        2.1033  -10.9324  -44.4571 H         1 UNK         0.3000 
    180 H180        5.0558   -9.4370  -45.0795 H         1 UNK         0.0600 
    181 H181        5.1756  -12.4040  -44.3055 H         1 UNK         0.0600 
    182 H182        6.2827  -11.1510  -43.7586 H         1 UNK         0.0600 
    183 H183        6.2455  -11.6023  -45.4553 H         1 UNK         0.0600 
    184 H184        3.4503  -11.7893  -45.9517 H         1 UNK         0.3000 
    185 H185        1.6319   -9.9226  -48.3260 H         1 UNK         0.0600 
    186 H186        3.7192  -10.3276  -49.6378 H         1 UNK         0.0600 
    187 H187        3.8749  -11.9284  -48.9240 H         1 UNK         0.0600 
    188 H188        2.5104  -11.5554  -49.9783 H         1 UNK         0.0600 
    189 H189        1.8362  -12.7321  -47.7838 H         1 UNK         0.3000 
    190 H190       -1.4514  -20.1669  -46.6056 H         1 UNK         0.3000 
    191 H191       -2.6648  -20.3421  -49.1284 H         1 UNK         0.0600 
    192 H192       -3.2851  -18.6756  -47.3952 H         1 UNK         0.0600 
    193 H193       -4.7025  -19.5581  -47.9222 H         1 UNK         0.0600 
    194 H194       -3.9560  -19.9485  -46.3779 H         1 UNK         0.0600 
    195 H195       -3.0041  -22.5376  -46.3126 H         1 UNK         0.3000 
    196 H196       -4.9827  -24.2339  -47.5248 H         1 UNK         0.0600 
    197 H197       -4.6502  -24.1412  -45.0771 H         1 UNK         0.0600 
    198 H198       -4.3781  -25.7786  -45.6543 H         1 UNK         0.0600 
    199 H199       -3.0068  -24.7550  -45.2414 H         1 UNK         0.0600 
    200 H200       -1.3992  -24.3305  -47.4164 H         1 UNK         0.3000 
    201 H201       -1.1749  -26.9335  -48.5917 H         1 UNK         0.0600 
    202 H202        0.5524  -26.0240  -47.0924 H         1 UNK         0.0600 
    203 H203        0.8916  -24.7077  -48.2138 H         1 UNK         0.0600 
    204 H204        1.2595  -26.3694  -48.6630 H         1 UNK         0.0600 
    205 H205       -0.7211  -23.6321  -49.9490 H         1 UNK         0.3000 
    206 H206        0.3956  -24.3485  -52.4013 H         1 UNK         0.0600 
    207 H207        0.5186  -22.0850  -51.4634 H         1 UNK         0.0600 
    208 H208       -0.2197  -22.0035  -53.0544 H         1 UNK         0.0600 
    209 H209       -1.2236  -21.8822  -51.6118 H         1 UNK         0.0600 
    210 H210       -0.4839  -25.7700  -53.7529 H         1 UNK         0.3000 
    211 H211       -1.7916  -26.8867  -55.1279 H         1 UNK         0.0600 
    212 H212       -3.2910  -24.2483  -55.5026 H         1 UNK         0.0600 
    213 H213       -3.4009  -25.6410  -56.5721 H         1 UNK         0.0600 
    214 H214       -1.8784  -24.7872  -56.4115 H         1 UNK         0.0600 
    215 H215       -2.5042  -26.7372  -52.2577 H         1 UNK         0.3000 
    216 H216       -3.8715  -27.5872  -50.7881 H         1 UNK         0.0600 
    217 H217       -5.3346  -29.4633  -51.3829 H         1 UNK         0.0600 
    218 H218       -3.8476  -29.5759  -52.3068 H         1 UNK         0.0600 
    219 H219       -5.3259  -29.0003  -53.0777 H         1 UNK         0.0600 
    220 H220       -4.8057  -25.0012  -52.3783 H         1 UNK         0.3000 
    221 H221       -7.1486  -24.5525  -50.7737 H         1 UNK         0.0600 
    222 H222       -7.5007  -24.7904  -53.8211 H         1 UNK         0.0600 
    223 H223       -8.2969  -25.7865  -52.6063 H         1 UNK         0.0600 
    224 H224       -8.6882  -24.0814  -52.7327 H         1 UNK         0.0600 
    225 H225       -7.2444  -22.4321  -50.3183 H         1 UNK         0.3000 
    226 H226       -5.2608  -20.6159  -51.1458 H         1 UNK         0.0600 
    227 H227       -6.5122  -20.5731  -48.9559 H         1 UNK         0.0600 
    228 H228       -6.5296  -19.0089  -49.7609 H         1 UNK         0.0600 
    229 H229       -7.9592  -20.0350  -49.8014 H         1 UNK         0.0600 
    230 H230       -8.4471  -21.2449  -52.4660 H         1 UNK         0.3000 
    231 H231       -8.6681  -18.8689  -54.1026 H         1 UNK         0.0600 
    232 H232      -10.6598  -20.1603  -53.3602 H         1 UNK         0.0600 
    233 H233      -10.0986  -21.5796  -54.2455 H         1 UNK         0.0600 
    234 H234      -10.5738  -20.1250  -55.1138 H         1 UNK         0.0600 
    235 H235       -6.9396  -21.8960  -54.4215 H         1 UNK         0.3000 
    236 H236       -6.6096  -21.6441  -57.3569 H         1 UNK         0.0600 
    237 H237       -5.3873  -23.7970  -57.1284 H         1 UNK         0.0600 
    238 H238       -5.6565  -23.7943  -55.3910 H         1 UNK         0.0600 
    239 H239       -7.0200  -23.9117  -56.4938 H         1 UNK         0.0600 
    240 H240       -4.5215  -22.0181  -54.4356 H         1 UNK         0.3000 
    241 H241       -2.5946  -21.2329  -53.8208 H         1 UNK         0.0600 
    242 H242       -2.6526  -22.3990  -56.9175 H         1 UNK         0.3800 
    243 H243       -0.9496  -22.2425  -57.2653 H         1 UNK         0.3800 
    244 H244       -2.9818  -18.7311  -55.5173 H         1 UNK         0.0800 
    245 H245       -3.9785  -19.0450  -54.1315 H         1 UNK         0.0800 
    246 H246       -2.4984  -19.9727  -51.6973 H         1 UNK         0.0800 
    247 H247       -3.4238  -18.4922  -51.7344 H         1 UNK         0.0800 
@<TRIPOS>BOND
     1    1    2 1    
     2    1  127 1    
     3    1  128 1    
     4    1  129 1    
     5    2    3 2    
     6    2    4 am   BACKBONE|DICT|INTERRES
     7    4    5 1    
     8    4  130 1    
     9    5    6 1    
    10    5   65 1    
    11    5  131 1    
    12    6    7 1    
    13    6  132 1    
    14    6  133 1    
    15    7    8 1    
    16    8    9 1    
    17    8  134 1    
    18    8  135 1    
    19    9   10 ar   
    20    9   14 ar   
    21   10   11 ar   
    22   10  136 1    
    23   11   12 ar   
    24   11  126 1    
    25   12   13 ar   
    26   12  137 1    
    27   13   14 ar   
    28   13   15 1    
    29   14  138 1    
    30   15   16 1    
    31   15  139 1    
    32   15  140 1    
    33   16   17 1    
    34   17   18 1    
    35   17  141 1    
    36   17  142 1    
    37   18   19 1    
    38   18   67 1    
    39   18  143 1    
    40   19   20 am   BACKBONE|DICT|INTERRES
    41   19  144 1    
    42   20   21 2    
    43   20   22 1    
    44   22   23 1    
    45   22   24 1    
    46   22  145 1    
    47   23  146 1    
    48   23  147 1    
    49   23  148 1    
    50   24   25 am   BACKBONE|DICT|INTERRES
    51   24  149 1    
    52   25   26 2    
    53   25   27 1    
    54   27   28 1    
    55   27   29 1    
    56   27  150 1    
    57   28  151 1    
    58   28  152 1    
    59   28  153 1    
    60   29   30 am   BACKBONE|DICT|INTERRES
    61   29  154 1    
    62   30   31 2    
    63   30   32 1    
    64   32   33 1    
    65   32   34 1    
    66   32  155 1    
    67   33  156 1    
    68   33  157 1    
    69   33  158 1    
    70   34   35 am   BACKBONE|DICT|INTERRES
    71   34  159 1    
    72   35   36 2    
    73   35   37 1    
    74   37   38 1    
    75   37   39 1    
    76   37  160 1    
    77   38  161 1    
    78   38  162 1    
    79   38  163 1    
    80   39   40 am   BACKBONE|DICT|INTERRES
    81   39  164 1    
    82   40   41 2    
    83   40   42 1    
    84   42   43 1    
    85   42   44 1    
    86   42  165 1    
    87   43  166 1    
    88   43  167 1    
    89   43  168 1    
    90   44   45 am   BACKBONE|DICT|INTERRES
    91   44  169 1    
    92   45   46 2    
    93   45   47 1    
    94   47   48 1    
    95   47   49 1    
    96   47  170 1    
    97   48  171 1    
    98   48  172 1    
    99   48  173 1    
   100   49   50 am   BACKBONE|DICT|INTERRES
   101   49  174 1    
   102   50   51 2    
   103   50   52 1    
   104   52   53 1    
   105   52   54 1    
   106   52  175 1    
   107   53  176 1    
   108   53  177 1    
   109   53  178 1    
   110   54   55 am   BACKBONE|DICT|INTERRES
   111   54  179 1    
   112   55   56 2    
   113   55   57 1    
   114   57   58 1    
   115   57   59 1    
   116   57  180 1    
   117   58  181 1    
   118   58  182 1    
   119   58  183 1    
   120   59   60 am   BACKBONE|DICT|INTERRES
   121   59  184 1    
   122   60   61 2    
   123   60   62 1    
   124   62   63 1    
   125   62   64 1    
   126   62  185 1    
   127   63  186 1    
   128   63  187 1    
   129   63  188 1    
   130   64   65 am   BACKBONE|DICT|INTERRES
   131   64  189 1    
   132   65   66 2    
   133   67   68 2    
   134   67   69 am   BACKBONE|DICT|INTERRES
   135   69   70 1    
   136   69  190 1    
   137   70   71 1    
   138   70   72 1    
   139   70  191 1    
   140   71  192 1    
   141   71  193 1    
   142   71  194 1    
   143   72   73 2    
   144   72   74 am   BACKBONE|DICT|INTERRES
   145   74   75 1    
   146   74  195 1    
   147   75   76 1    
   148   75   77 1    
   149   75  196 1    
   150   76  197 1    
   151   76  198 1    
   152   76  199 1    
   153   77   78 2    
   154   77   79 am   BACKBONE|DICT|INTERRES
   155   79   80 1    
   156   79  200 1    
   157   80   81 1    
   158   80   82 1    
   159   80  201 1    
   160   81  202 1    
   161   81  203 1    
   162   81  204 1    
   163   82   83 2    
   164   82   84 am   BACKBONE|DICT|INTERRES
   165   84   85 1    
   166   84  205 1    
   167   85   86 1    
   168   85   87 1    
   169   85  206 1    
   170   86  207 1    
   171   86  208 1    
   172   86  209 1    
   173   87   88 2    
   174   87   89 am   BACKBONE|DICT|INTERRES
   175   89   90 1    
   176   89  210 1    
   177   90   91 1    
   178   90   92 1    
   179   90  211 1    
   180   91  212 1    
   181   91  213 1    
   182   91  214 1    
   183   92   93 2    
   184   92   94 am   BACKBONE|DICT|INTERRES
   185   94   95 1    
   186   94  215 1    
   187   95   96 1    
   188   95   97 1    
   189   95  216 1    
   190   96  217 1    
   191   96  218 1    
   192   96  219 1    
   193   97   98 2    
   194   97   99 am   BACKBONE|DICT|INTERRES
   195   99  100 1    
   196   99  220 1    
   197  100  101 1    
   198  100  102 1    
   199  100  221 1    
   200  101  222 1    
   201  101  223 1    
   202  101  224 1    
   203  102  103 2    
   204  102  104 am   BACKBONE|DICT|INTERRES
   205  104  105 1    
   206  104  225 1    
   207  105  106 1    
   208  105  107 1    
   209  105  226 1    
   210  106  227 1    
   211  106  228 1    
   212  106  229 1    
   213  107  108 2    
   214  107  109 am   BACKBONE|DICT|INTERRES
   215  109  110 1    
   216  109  230 1    
   217  110  111 1    
   218  110  112 1    
   219  110  231 1    
   220  111  232 1    
   221  111  233 1    
   222  111  234 1    
   223  112  113 2    
   224  112  114 am   BACKBONE|DICT|INTERRES
   225  114  115 1    
   226  114  235 1    
   227  115  116 1    
   228  115  117 1    
   229  115  236 1    
   230  116  237 1    
   231  116  238 1    
   232  116  239 1    
   233  117  118 2    
   234  117  119 am   BACKBONE|DICT|INTERRES
   235  119  120 1    
   236  119  240 1    
   237  120  121 1    
   238  120  124 1    
   239  120  241 1    
   240  121  122 am   BACKBONE|DICT|INTERRES
   241  121  123 2    
   242  122  242 1    
   243  122  243 1    
   244  124  125 1    
   245  124  244 1    
   246  124  245 1    
   247  125  126 1    
   248  126  246 1    
   249  126  247 1    
@<TRIPOS>SUBSTRUCTURE
     1 UNK         1 GROUP             0       ****    0 ROOT    
