@<TRIPOS>MOLECULE
3R540
247   249    1
SMALL
USER_CHARGES


@<TRIPOS>ATOM
      1 CA         -4.3163  -14.9896  -46.3788 C.3       0 UNK        -0.1800 
      2 C          -3.4510  -14.1014  -47.2598 C.2       0 UNK         0.5000 
      3 O          -2.9919  -13.0516  -46.8090 O.2       0 UNK        -0.5000 
      4 N          -3.2051  -14.5255  -48.5070 N.am      1 UNK        -0.5000 
      5 CA         -2.4042  -13.8037  -49.5123 C.3       1 UNK         0.1400 
      6 C6         -2.5251  -14.4237  -50.9281 C.3       23 UNK        -0.0398 
      7 S7         -2.1158  -16.1995  -50.9973 S.3       23 UNK        -0.2404 
      8 C8         -0.4653  -16.2069  -51.7578 C.3       23 UNK        -0.0205 
      9 C9          0.0884  -17.6210  -51.7371 C.ar      23 UNK        -0.0193 
     10 C10        -0.1886  -18.5043  -52.7842 C.ar      23 UNK        -0.1150 
     11 C11         0.2174  -19.8389  -52.7088 C.ar      23 UNK        -0.0193 
     12 C12         0.9336  -20.2788  -51.5919 C.ar      23 UNK        -0.1150 
     13 C13         1.2427  -19.3989  -50.5508 C.ar      23 UNK        -0.0193 
     14 C14         0.8233  -18.0668  -50.6358 C.ar      23 UNK        -0.1150 
     15 C15         2.0354  -19.9019  -49.3492 C.3       23 UNK        -0.0205 
     16 S16         1.3901  -19.3346  -47.7405 S.3       23 UNK        -0.2404 
     17 C17        -0.2624  -20.1044  -47.6725 C.3       23 UNK        -0.0398 
     18 CA         -0.2276  -21.5694  -47.1822 C.3       11 UNK         0.1400 
     19 N           0.4930  -21.7477  -45.9154 N.am      11 UNK        -0.5000 
     20 C           0.8309  -22.9376  -45.3971 C.2       10 UNK         0.5000 
     21 O           0.5673  -24.0129  -45.9372 O.2       10 UNK        -0.5000 
     22 CA          1.5248  -22.9247  -44.0256 C.3       10 UNK         0.1400 
     23 CB          3.0275  -22.6394  -44.1685 C.3       10 UNK        -0.1800 
     24 N           0.9089  -21.9381  -43.1375 N.am      10 UNK        -0.5000 
     25 C          -0.2278  -22.1524  -42.4594 C.2       9 UNK         0.5000 
     26 O          -0.8144  -23.2349  -42.4466 O.2       9 UNK        -0.5000 
     27 CA         -0.8310  -20.9620  -41.6846 C.3       9 UNK         0.1400 
     28 CB         -0.2930  -20.9315  -40.2463 C.3       9 UNK        -0.1800 
     29 N          -0.5924  -19.6622  -42.3150 N.am      9 UNK        -0.5000 
     30 C          -1.0348  -19.3063  -43.5290 C.2       8 UNK         0.5000 
     31 O          -1.7496  -20.0203  -44.2280 O.2       8 UNK        -0.5000 
     32 CA         -0.5459  -17.9596  -44.0927 C.3       8 UNK         0.1400 
     33 CB         -1.5043  -16.8251  -43.7048 C.3       8 UNK        -0.1800 
     34 N           0.8196  -17.6152  -43.6913 N.am      8 UNK        -0.5000 
     35 C           1.9052  -18.3665  -43.9301 C.2       7 UNK         0.5000 
     36 O           1.8672  -19.4637  -44.4851 O.2       7 UNK        -0.5000 
     37 CA          3.2450  -17.8331  -43.4022 C.3       7 UNK         0.1400 
     38 CB          3.7669  -16.6761  -44.2659 C.3       7 UNK        -0.1800 
     39 N           3.1164  -17.3956  -42.0150 N.am      7 UNK        -0.5000 
     40 C           3.0855  -18.2282  -40.9654 C.2       6 UNK         0.5000 
     41 O           3.2455  -19.4460  -41.0508 O.2       6 UNK        -0.5000 
     42 CA          2.8060  -17.5951  -39.5896 C.3       6 UNK         0.1400 
     43 CB          4.1177  -17.1596  -38.9191 C.3       6 UNK        -0.1800 
     44 N           1.8980  -16.4485  -39.6608 N.am      6 UNK        -0.5000 
     45 C           0.6055  -16.5251  -40.0072 C.2       5 UNK         0.5000 
     46 O           0.0355  -17.5756  -40.3002 O.2       5 UNK        -0.5000 
     47 CA         -0.1672  -15.1955  -40.0776 C.3       5 UNK         0.1400 
     48 CB         -0.7024  -14.8089  -38.6908 C.3       5 UNK        -0.1800 
     49 N           0.6182  -14.0839  -40.6233 N.am      5 UNK        -0.5000 
     50 C           1.1368  -14.0504  -41.8575 C.2       4 UNK         0.5000 
     51 O           1.0864  -14.9936  -42.6495 O.2       4 UNK        -0.5000 
     52 CA          1.8517  -12.7566  -42.2764 C.3       4 UNK         0.1400 
     53 CB          3.3672  -12.9844  -42.3828 C.3       4 UNK        -0.1800 
     54 N           1.3432  -12.2942  -43.5646 N.am      4 UNK        -0.5000 
     55 C           0.1411  -11.7413  -43.7613 C.2       3 UNK         0.5000 
     56 O          -0.6387  -11.4716  -42.8466 O.2       3 UNK        -0.5000 
     57 CA         -0.2725  -11.4426  -45.2155 C.3       3 UNK         0.1400 
     58 CB          0.3992  -10.1593  -45.7404 C.3       3 UNK        -0.1800 
     59 N          -0.0953  -12.5658  -46.1451 N.am      3 UNK        -0.5000 
     60 C           1.0374  -13.1366  -46.5862 C.2       2 UNK         0.5000 
     61 O           2.1635  -12.7860  -46.2309 O.2       2 UNK        -0.5000 
     62 CA          0.9022  -14.3114  -47.5781 C.3       2 UNK         0.1400 
     63 CB          1.2325  -15.6354  -46.8788 C.3       2 UNK        -0.1800 
     64 N          -0.4267  -14.4240  -48.1791 N.am      2 UNK        -0.5000 
     65 C          -0.9251  -13.5988  -49.1099 C.2       1 UNK         0.5000 
     66 O          -0.2770  -12.6891  -49.6288 O.2       1 UNK        -0.5000 
     67 C          -1.6517  -22.1635  -47.1425 C.2       11 UNK         0.5000 
     68 O          -2.1527  -22.5946  -48.1809 O.2       11 UNK        -0.5000 
     69 N          -2.2661  -22.2088  -45.9517 N.am      12 UNK        -0.5000 
     70 CA         -3.5480  -22.8568  -45.6768 C.3       12 UNK         0.1400 
     71 CB         -3.9886  -22.5500  -44.2382 C.3       12 UNK        -0.1800 
     72 C          -3.5156  -24.3730  -45.9249 C.2       12 UNK         0.5000 
     73 O          -4.4706  -24.9156  -46.4796 O.2       12 UNK        -0.5000 
     74 N          -2.4074  -25.0214  -45.5461 N.am      13 UNK        -0.5000 
     75 CA         -2.1676  -26.4384  -45.8100 C.3       13 UNK         0.1400 
     76 CB         -1.0701  -26.9557  -44.8672 C.3       13 UNK        -0.1800 
     77 C          -1.7933  -26.6914  -47.2814 C.2       13 UNK         0.5000 
     78 O          -2.2062  -27.7054  -47.8451 O.2       13 UNK        -0.5000 
     79 N          -1.0176  -25.7711  -47.8709 N.am      14 UNK        -0.5000 
     80 CA         -0.5158  -25.8731  -49.2394 C.3       14 UNK         0.1400 
     81 CB          0.6497  -24.8904  -49.4342 C.3       14 UNK        -0.1800 
     82 C          -1.5954  -25.6423  -50.3124 C.2       14 UNK         0.5000 
     83 O          -1.6729  -26.4249  -51.2607 O.2       14 UNK        -0.5000 
     84 N          -2.3746  -24.5600  -50.1763 N.am      15 UNK        -0.5000 
     85 CA         -3.2361  -24.0416  -51.2424 C.3       15 UNK         0.1400 
     86 CB         -2.3764  -23.2286  -52.2291 C.3       15 UNK        -0.1800 
     87 C          -4.4346  -23.2306  -50.7149 C.2       15 UNK         0.5000 
     88 O          -4.9606  -22.3900  -51.4458 O.2       15 UNK        -0.5000 
     89 N          -4.8558  -23.4899  -49.4690 N.am      16 UNK        -0.5000 
     90 CA         -6.0284  -22.9116  -48.7956 C.3       16 UNK         0.1400 
     91 CB         -7.3259  -23.2339  -49.5685 C.3       16 UNK        -0.1800 
     92 C          -5.9192  -21.4100  -48.4448 C.2       16 UNK         0.5000 
     93 O          -6.9340  -20.8097  -48.0925 O.2       16 UNK        -0.5000 
     94 N          -4.7101  -20.8290  -48.5201 N.am      17 UNK        -0.5000 
     95 CA         -4.3063  -19.4615  -48.1304 C.3       17 UNK         0.1400 
     96 CB         -4.4499  -19.2590  -46.6099 C.3       17 UNK        -0.1800 
     97 C          -4.9705  -18.2884  -48.8869 C.2       17 UNK         0.5000 
     98 O          -4.4413  -17.1782  -48.8459 O.2       17 UNK        -0.5000 
     99 N          -6.0944  -18.5417  -49.5619 N.am      18 UNK        -0.5000 
    100 CA        -6.8396  -17.6110  -50.4039 C.3       18 UNK         0.1400 
    101 CB        -8.1270  -18.2891  -50.9012 C.3       18 UNK        -0.1800 
    102 C         -6.0497  -16.9881  -51.5792 C.2       18 UNK         0.5000 
    103 O         -6.1892  -15.7835  -51.7867 O.2       18 UNK        -0.5000 
    104 N         -5.2375  -17.7189  -52.3577 N.am      19 UNK        -0.5000 
    105 CA        -4.9897  -19.1610  -52.3930 C.3       19 UNK         0.1400 
    106 CB        -3.5146  -19.4008  -52.0335 C.3       19 UNK        -0.1800 
    107 C         -5.2732  -19.6939  -53.8053 C.2       19 UNK         0.5000 
    108 O         -5.5145  -18.9109  -54.7286 O.2       19 UNK        -0.5000 
    109 N         -5.2079  -21.0219  -53.9567 N.am      20 UNK        -0.5000 
    110 CA        -5.4223  -21.7827  -55.1934 C.3       20 UNK         0.1400 
    111 CB        -5.6550  -23.2586  -54.8207 C.3       20 UNK        -0.1800 
    112 C         -4.3116  -21.6067  -56.2611 C.2       20 UNK         0.5000 
    113 O         -3.8226  -22.5935  -56.8150 O.2       20 UNK        -0.5000 
    114 N         -3.9547  -20.3476  -56.5445 N.am      21 UNK        -0.5000 
    115 CA        -3.0454  -19.8213  -57.5687 C.3       21 UNK         0.1400 
    116 CB        -3.5668  -20.1365  -58.9840 C.3       21 UNK        -0.1800 
    117 C         -1.5649  -20.2224  -57.4226 C.2       21 UNK         0.5000 
    118 O         -0.7125  -19.3358  -57.3846 O.2       21 UNK        -0.5000 
    119 N         -1.2963  -21.5328  -57.3967 N.am      22 UNK        -0.5000 
    120 CA        -0.0067  -22.2567  -57.3677 C.3       22 UNK         0.1400 
    121 C          1.1104  -21.8686  -58.3884 C.2       22 UNK         0.5000 
    122 N          1.0435  -20.7370  -59.0728 N.am      22 UNK        -0.7600 
    123 O          2.0435  -22.6407  -58.5934 O.2       22 UNK        -0.5000 
    124 C124        0.5461  -22.4809  -55.9349 C.3       23 UNK        -0.0398 
    125 S125        1.1317  -20.9841  -55.0627 S.3       23 UNK        -0.2404 
    126 C126       -0.1632  -20.8239  -53.8008 C.3       23 UNK        -0.0205 
    127 H127       -4.7457  -14.4147  -45.5583 H         1 UNK         0.0600 
    128 H128       -3.7183  -15.7960  -45.9557 H         1 UNK         0.0600 
    129 H129       -5.1370  -15.4261  -46.9477 H         1 UNK         0.0600 
    130 H130       -3.5876  -15.4208  -48.8062 H         1 UNK         0.3000 
    131 H131       -2.8299  -12.7999  -49.5732 H         1 UNK         0.0600 
    132 H132       -3.5551  -14.3204  -51.2725 H         1 UNK         0.0800 
    133 H133       -1.9212  -13.8740  -51.6524 H         1 UNK         0.0800 
    134 H134        0.1992  -15.5331  -51.2150 H         1 UNK         0.0800 
    135 H135       -0.5282  -15.8353  -52.7816 H         1 UNK         0.0800 
    136 H136       -0.7594  -18.1643  -53.6369 H         1 UNK         0.1150 
    137 H137        1.2456  -21.3123  -51.5339 H         1 UNK         0.1150 
    138 H138        1.0409  -17.3814  -49.8293 H         1 UNK         0.1150 
    139 H139        2.0773  -20.9920  -49.3415 H         1 UNK         0.0800 
    140 H140        3.0650  -19.5566  -49.4492 H         1 UNK         0.0800 
    141 H141       -0.7225  -20.0400  -48.6603 H         1 UNK         0.0800 
    142 H142       -0.8841  -19.4994  -47.0115 H         1 UNK         0.0800 
    143 H143        0.3240  -22.1394  -47.9297 H         1 UNK         0.0600 
    144 H144        0.7919  -20.9033  -45.4374 H         1 UNK         0.3000 
    145 H145        1.4164  -23.9180  -43.5845 H         1 UNK         0.0600 
    146 H146        3.5199  -22.6246  -43.1960 H         1 UNK         0.0600 
    147 H147        3.5118  -23.4115  -44.7675 H         1 UNK         0.0600 
    148 H148        3.2196  -21.6834  -44.6552 H         1 UNK         0.0600 
    149 H149        1.3049  -21.0057  -43.1551 H         1 UNK         0.3000 
    150 H150       -1.9114  -21.1146  -41.6421 H         1 UNK         0.0600 
    151 H151       -0.4551  -21.8870  -39.7459 H         1 UNK         0.0600 
    152 H152       -0.7952  -20.1664  -39.6541 H         1 UNK         0.0600 
    153 H153        0.7776  -20.7239  -40.2231 H         1 UNK         0.0600 
    154 H154       -0.0673  -18.9836  -41.7733 H         1 UNK         0.3000 
    155 H155       -0.5468  -18.0415  -45.1805 H         1 UNK         0.0600 
    156 H156       -1.5377  -16.6845  -42.6249 H         1 UNK         0.0600 
    157 H157       -2.5197  -17.0412  -44.0392 H         1 UNK         0.0600 
    158 H158       -1.2057  -15.8794  -44.1579 H         1 UNK         0.0600 
    159 H159        0.9397  -16.7131  -43.2348 H         1 UNK         0.3000 
    160 H160        3.9748  -18.6442  -43.4528 H         1 UNK         0.0600 
    161 H161        3.0794  -15.8304  -44.2713 H         1 UNK         0.0600 
    162 H162        3.9038  -16.9972  -45.2992 H         1 UNK         0.0600 
    163 H163        4.7321  -16.3199  -43.9059 H         1 UNK         0.0600 
    164 H164        2.9199  -16.4171  -41.8634 H         1 UNK         0.3000 
    165 H165        2.3383  -18.3583  -38.9638 H         1 UNK         0.0600 
    166 H166        3.9395  -16.7816  -37.9122 H         1 UNK         0.0600 
    167 H167        4.8088  -17.9991  -38.8321 H         1 UNK         0.0600 
    168 H168        4.6213  -16.3773  -39.4883 H         1 UNK         0.0600 
    169 H169        2.2848  -15.5427  -39.4400 H         1 UNK         0.3000 
    170 H170       -1.0231  -15.3474  -40.7374 H         1 UNK         0.0600 
    171 H171       -1.3076  -15.6121  -38.2681 H         1 UNK         0.0600 
    172 H172        0.1065  -14.6029  -37.9887 H         1 UNK         0.0600 
    173 H173       -1.3346  -13.9224  -38.7450 H         1 UNK         0.0600 
    174 H174        0.7063  -13.2680  -40.0348 H         1 UNK         0.3000 
    175 H175        1.6696  -11.9821  -41.5284 H         1 UNK         0.0600 
    176 H176        3.6126  -13.7208  -43.1486 H         1 UNK         0.0600 
    177 H177        3.8862  -12.0591  -42.6333 H         1 UNK         0.0600 
    178 H178        3.7776  -13.3420  -41.4376 H         1 UNK         0.0600 
    179 H179        1.8929  -12.5189  -44.3894 H         1 UNK         0.3000 
    180 H180       -1.3476  -11.2563  -45.1977 H         1 UNK         0.0600 
    181 H181        1.4853  -10.2480  -45.7738 H         1 UNK         0.0600 
    182 H182        0.1633   -9.3090  -45.0995 H         1 UNK         0.0600 
    183 H183        0.0514   -9.9161  -46.7445 H         1 UNK         0.0600 
    184 H184       -0.9704  -12.9448  -46.4921 H         1 UNK         0.3000 
    185 H185        1.6287  -14.1553  -48.3782 H         1 UNK         0.0600 
    186 H186        2.2642  -15.6387  -46.5296 H         1 UNK         0.0600 
    187 H187        0.5888  -15.8104  -46.0166 H         1 UNK         0.0600 
    188 H188        1.1207  -16.4758  -47.5608 H         1 UNK         0.0600 
    189 H189       -1.0306  -15.1491  -47.8210 H         1 UNK         0.3000 
    190 H190       -1.8374  -21.7141  -45.1752 H         1 UNK         0.3000 
    191 H191       -4.2900  -22.4301  -46.3474 H         1 UNK         0.0600 
    192 H192       -3.2736  -22.9285  -43.5079 H         1 UNK         0.0600 
    193 H193       -4.9542  -23.0078  -44.0198 H         1 UNK         0.0600 
    194 H194       -4.0958  -21.4776  -44.0763 H         1 UNK         0.0600 
    195 H195       -1.6497  -24.4982  -45.1287 H         1 UNK         0.3000 
    196 H196       -3.0833  -26.9941  -45.5960 H         1 UNK         0.0600 
    197 H197       -0.9023  -28.0233  -45.0150 H         1 UNK         0.0600 
    198 H198       -1.3476  -26.8114  -43.8229 H         1 UNK         0.0600 
    199 H199       -0.1190  -26.4493  -45.0336 H         1 UNK         0.0600 
    200 H200       -0.6762  -24.9983  -47.3111 H         1 UNK         0.3000 
    201 H201       -0.1218  -26.8828  -49.3749 H         1 UNK         0.0600 
    202 H202        1.4157  -25.0230  -48.6699 H         1 UNK         0.0600 
    203 H203        0.3136  -23.8550  -49.4001 H         1 UNK         0.0600 
    204 H204        1.1259  -25.0428  -50.4035 H         1 UNK         0.0600 
    205 H205       -2.2431  -23.9459  -49.3737 H         1 UNK         0.3000 
    206 H206       -3.6763  -24.8805  -51.7850 H         1 UNK         0.0600 
    207 H207       -1.5983  -23.8459  -52.6780 H         1 UNK         0.0600 
    208 H208       -2.9670  -22.8207  -53.0491 H         1 UNK         0.0600 
    209 H209       -1.8911  -22.3955  -51.7200 H         1 UNK         0.0600 
    210 H210       -4.3547  -24.1878  -48.9357 H         1 UNK         0.3000 
    211 H211       -6.1032  -23.4244  -47.8374 H         1 UNK         0.0600 
    212 H212       -7.3944  -22.6766  -50.5030 H         1 UNK         0.0600 
    213 H213       -8.2070  -22.9819  -48.9774 H         1 UNK         0.0600 
    214 H214       -7.3914  -24.2960  -49.8045 H         1 UNK         0.0600 
    215 H215       -3.9500  -21.4234  -48.8280 H         1 UNK         0.3000 
    216 H216       -3.2440  -19.3947  -48.3686 H         1 UNK         0.0600 
    217 H217       -4.1048  -18.2690  -46.3103 H         1 UNK         0.0600 
    218 H218       -3.8529  -19.9785  -46.0550 H         1 UNK         0.0600 
    219 H219       -5.4850  -19.3556  -46.2818 H         1 UNK         0.0600 
    220 H220       -6.5016  -19.4599  -49.4288 H         1 UNK         0.3000 
    221 H221       -7.1375  -16.7849  -49.7549 H         1 UNK         0.0600 
    222 H222       -7.9181  -19.1675  -51.5118 H         1 UNK         0.0600 
    223 H223       -8.7519  -18.6054  -50.0657 H         1 UNK         0.0600 
    224 H224       -8.7202  -17.6031  -51.5072 H         1 UNK         0.0600 
    225 H225       -4.8090  -17.2363  -53.1336 H         1 UNK         0.3000 
    226 H226       -5.6332  -19.7149  -51.7137 H         1 UNK         0.0600 
    227 H227       -3.2636  -20.4592  -52.0285 H         1 UNK         0.0600 
    228 H228       -2.8602  -18.9151  -52.7549 H         1 UNK         0.0600 
    229 H229       -3.2660  -19.0095  -51.0491 H         1 UNK         0.0600 
    230 H230       -5.0266  -21.5785  -53.1237 H         1 UNK         0.3000 
    231 H231       -6.3436  -21.4142  -55.6486 H         1 UNK         0.0600 
    232 H232       -6.4711  -23.3612  -54.1050 H         1 UNK         0.0600 
    233 H233       -4.7656  -23.7082  -54.3791 H         1 UNK         0.0600 
    234 H234       -5.9205  -23.8489  -55.6986 H         1 UNK         0.0600 
    235 H235       -4.4310  -19.6333  -55.9972 H         1 UNK         0.3000 
    236 H236       -3.0815  -18.7371  -57.4500 H         1 UNK         0.0600 
    237 H237       -2.9293  -19.6832  -59.7441 H         1 UNK         0.0600 
    238 H238       -3.5961  -21.2085  -59.1810 H         1 UNK         0.0600 
    239 H239       -4.5730  -19.7430  -59.1283 H         1 UNK         0.0600 
    240 H240       -2.1159  -22.1353  -57.3978 H         1 UNK         0.3000 
    241 H241       -0.3008  -23.2488  -57.7131 H         1 UNK         0.0600 
    242 H242        1.7631  -20.5030  -59.7381 H         1 UNK         0.3800 
    243 H243        0.3537  -20.0469  -58.7953 H         1 UNK         0.3800 
    244 H244       -0.2186  -22.9774  -55.3366 H         1 UNK         0.0800 
    245 H245        1.3772  -23.1875  -55.9642 H         1 UNK         0.0800 
    246 H246       -0.3300  -21.8003  -53.3500 H         1 UNK         0.0800 
    247 H247       -1.1029  -20.5321  -54.2728 H         1 UNK         0.0800 
@<TRIPOS>BOND
     1    1    2 1    
     2    1  127 1    
     3    1  128 1    
     4    1  129 1    
     5    2    3 2    
     6    2    4 am   BACKBONE|DICT|INTERRES
     7    4    5 1    
     8    4  130 1    
     9    5    6 1    
    10    5   65 1    
    11    5  131 1    
    12    6    7 1    
    13    6  132 1    
    14    6  133 1    
    15    7    8 1    
    16    8    9 1    
    17    8  134 1    
    18    8  135 1    
    19    9   10 ar   
    20    9   14 ar   
    21   10   11 ar   
    22   10  136 1    
    23   11   12 ar   
    24   11  126 1    
    25   12   13 ar   
    26   12  137 1    
    27   13   14 ar   
    28   13   15 1    
    29   14  138 1    
    30   15   16 1    
    31   15  139 1    
    32   15  140 1    
    33   16   17 1    
    34   17   18 1    
    35   17  141 1    
    36   17  142 1    
    37   18   19 1    
    38   18   67 1    
    39   18  143 1    
    40   19   20 am   BACKBONE|DICT|INTERRES
    41   19  144 1    
    42   20   21 2    
    43   20   22 1    
    44   22   23 1    
    45   22   24 1    
    46   22  145 1    
    47   23  146 1    
    48   23  147 1    
    49   23  148 1    
    50   24   25 am   BACKBONE|DICT|INTERRES
    51   24  149 1    
    52   25   26 2    
    53   25   27 1    
    54   27   28 1    
    55   27   29 1    
    56   27  150 1    
    57   28  151 1    
    58   28  152 1    
    59   28  153 1    
    60   29   30 am   BACKBONE|DICT|INTERRES
    61   29  154 1    
    62   30   31 2    
    63   30   32 1    
    64   32   33 1    
    65   32   34 1    
    66   32  155 1    
    67   33  156 1    
    68   33  157 1    
    69   33  158 1    
    70   34   35 am   BACKBONE|DICT|INTERRES
    71   34  159 1    
    72   35   36 2    
    73   35   37 1    
    74   37   38 1    
    75   37   39 1    
    76   37  160 1    
    77   38  161 1    
    78   38  162 1    
    79   38  163 1    
    80   39   40 am   BACKBONE|DICT|INTERRES
    81   39  164 1    
    82   40   41 2    
    83   40   42 1    
    84   42   43 1    
    85   42   44 1    
    86   42  165 1    
    87   43  166 1    
    88   43  167 1    
    89   43  168 1    
    90   44   45 am   BACKBONE|DICT|INTERRES
    91   44  169 1    
    92   45   46 2    
    93   45   47 1    
    94   47   48 1    
    95   47   49 1    
    96   47  170 1    
    97   48  171 1    
    98   48  172 1    
    99   48  173 1    
   100   49   50 am   BACKBONE|DICT|INTERRES
   101   49  174 1    
   102   50   51 2    
   103   50   52 1    
   104   52   53 1    
   105   52   54 1    
   106   52  175 1    
   107   53  176 1    
   108   53  177 1    
   109   53  178 1    
   110   54   55 am   BACKBONE|DICT|INTERRES
   111   54  179 1    
   112   55   56 2    
   113   55   57 1    
   114   57   58 1    
   115   57   59 1    
   116   57  180 1    
   117   58  181 1    
   118   58  182 1    
   119   58  183 1    
   120   59   60 am   BACKBONE|DICT|INTERRES
   121   59  184 1    
   122   60   61 2    
   123   60   62 1    
   124   62   63 1    
   125   62   64 1    
   126   62  185 1    
   127   63  186 1    
   128   63  187 1    
   129   63  188 1    
   130   64   65 am   BACKBONE|DICT|INTERRES
   131   64  189 1    
   132   65   66 2    
   133   67   68 2    
   134   67   69 am   BACKBONE|DICT|INTERRES
   135   69   70 1    
   136   69  190 1    
   137   70   71 1    
   138   70   72 1    
   139   70  191 1    
   140   71  192 1    
   141   71  193 1    
   142   71  194 1    
   143   72   73 2    
   144   72   74 am   BACKBONE|DICT|INTERRES
   145   74   75 1    
   146   74  195 1    
   147   75   76 1    
   148   75   77 1    
   149   75  196 1    
   150   76  197 1    
   151   76  198 1    
   152   76  199 1    
   153   77   78 2    
   154   77   79 am   BACKBONE|DICT|INTERRES
   155   79   80 1    
   156   79  200 1    
   157   80   81 1    
   158   80   82 1    
   159   80  201 1    
   160   81  202 1    
   161   81  203 1    
   162   81  204 1    
   163   82   83 2    
   164   82   84 am   BACKBONE|DICT|INTERRES
   165   84   85 1    
   166   84  205 1    
   167   85   86 1    
   168   85   87 1    
   169   85  206 1    
   170   86  207 1    
   171   86  208 1    
   172   86  209 1    
   173   87   88 2    
   174   87   89 am   BACKBONE|DICT|INTERRES
   175   89   90 1    
   176   89  210 1    
   177   90   91 1    
   178   90   92 1    
   179   90  211 1    
   180   91  212 1    
   181   91  213 1    
   182   91  214 1    
   183   92   93 2    
   184   92   94 am   BACKBONE|DICT|INTERRES
   185   94   95 1    
   186   94  215 1    
   187   95   96 1    
   188   95   97 1    
   189   95  216 1    
   190   96  217 1    
   191   96  218 1    
   192   96  219 1    
   193   97   98 2    
   194   97   99 am   BACKBONE|DICT|INTERRES
   195   99  100 1    
   196   99  220 1    
   197  100  101 1    
   198  100  102 1    
   199  100  221 1    
   200  101  222 1    
   201  101  223 1    
   202  101  224 1    
   203  102  103 2    
   204  102  104 am   BACKBONE|DICT|INTERRES
   205  104  105 1    
   206  104  225 1    
   207  105  106 1    
   208  105  107 1    
   209  105  226 1    
   210  106  227 1    
   211  106  228 1    
   212  106  229 1    
   213  107  108 2    
   214  107  109 am   BACKBONE|DICT|INTERRES
   215  109  110 1    
   216  109  230 1    
   217  110  111 1    
   218  110  112 1    
   219  110  231 1    
   220  111  232 1    
   221  111  233 1    
   222  111  234 1    
   223  112  113 2    
   224  112  114 am   BACKBONE|DICT|INTERRES
   225  114  115 1    
   226  114  235 1    
   227  115  116 1    
   228  115  117 1    
   229  115  236 1    
   230  116  237 1    
   231  116  238 1    
   232  116  239 1    
   233  117  118 2    
   234  117  119 am   BACKBONE|DICT|INTERRES
   235  119  120 1    
   236  119  240 1    
   237  120  121 1    
   238  120  124 1    
   239  120  241 1    
   240  121  122 am   BACKBONE|DICT|INTERRES
   241  121  123 2    
   242  122  242 1    
   243  122  243 1    
   244  124  125 1    
   245  124  244 1    
   246  124  245 1    
   247  125  126 1    
   248  126  246 1    
   249  126  247 1    
@<TRIPOS>SUBSTRUCTURE
     1 UNK         1 GROUP             0       ****    0 ROOT    
