@<TRIPOS>MOLECULE
3R540
247   249    1
SMALL
USER_CHARGES


@<TRIPOS>ATOM
      1 CA         -1.7343  -14.9325  -43.3590 C.3       0 UNK        -0.1800 
      2 C          -1.9412  -14.3015  -44.7292 C.2       0 UNK         0.5000 
      3 O          -2.9668  -13.6631  -44.9632 O.2       0 UNK        -0.5000 
      4 N          -0.9741  -14.4856  -45.6346 N.am      1 UNK        -0.5000 
      5 CA         -0.9477  -13.9014  -46.9750 C.3       1 UNK         0.1400 
      6 C6          0.0862  -14.6246  -47.8705 C.3       23 UNK        -0.0398 
      7 S7         -0.1595  -14.2809  -49.6426 S.3       23 UNK        -0.2404 
      8 C8          0.7252  -15.6858  -50.3995 C.3       23 UNK        -0.0205 
      9 C9          0.0854  -17.0441  -50.1241 C.ar      23 UNK        -0.0193 
     10 C10        -1.3003  -17.2138  -50.1968 C.ar      23 UNK        -0.1150 
     11 C11        -1.8779  -18.4655  -49.9821 C.ar      23 UNK        -0.0193 
     12 C12        -1.0584  -19.5659  -49.7194 C.ar      23 UNK        -0.1150 
     13 C13         0.3311  -19.4150  -49.6331 C.ar      23 UNK        -0.0193 
     14 C14         0.8921  -18.1485  -49.8307 C.ar      23 UNK        -0.1150 
     15 C15         1.2390  -20.6198  -49.4016 C.3       23 UNK        -0.0205 
     16 S16         1.1496  -21.2735  -47.7012 S.3       23 UNK        -0.2404 
     17 C17        -0.3828  -22.2529  -47.7895 C.3       23 UNK        -0.0398 
     18 CA         -0.4304  -23.4672  -46.8356 C.3       11 UNK         0.1400 
     19 N          -0.3102  -23.0990  -45.4174 N.am      11 UNK        -0.5000 
     20 C          -0.3469  -23.9607  -44.3872 C.2       10 UNK         0.5000 
     21 O          -0.4459  -25.1801  -44.5203 O.2       10 UNK        -0.5000 
     22 CA         -0.3528  -23.3634  -42.9724 C.3       10 UNK         0.1400 
     23 CB          1.0729  -23.0388  -42.5020 C.3       10 UNK        -0.1800 
     24 N          -1.1923  -22.1669  -42.9211 N.am      10 UNK        -0.5000 
     25 C          -2.5297  -22.1932  -42.8207 C.2       9 UNK         0.5000 
     26 O          -3.1783  -23.2272  -42.6610 O.2       9 UNK        -0.5000 
     27 CA         -3.2759  -20.8483  -42.9374 C.3       9 UNK         0.1400 
     28 CB         -3.4839  -20.2272  -41.5481 C.3       9 UNK        -0.1800 
     29 N          -2.5941  -19.8782  -43.7957 N.am      9 UNK        -0.5000 
     30 C          -2.4445  -20.0032  -45.1219 C.2       8 UNK         0.5000 
     31 O          -2.9220  -20.9308  -45.7756 O.2       8 UNK        -0.5000 
     32 CA         -1.5616  -18.9469  -45.8220 C.3       8 UNK         0.1400 
     33 CB         -2.4170  -17.7765  -46.3270 C.3       8 UNK        -0.1800 
     34 N          -0.4668  -18.4298  -44.9895 N.am      8 UNK        -0.5000 
     35 C           0.4755  -19.1801  -44.4023 C.2       7 UNK         0.5000 
     36 O           0.5104  -20.4075  -44.4870 O.2       7 UNK        -0.5000 
     37 CA          1.5423  -18.4357  -43.5795 C.3       7 UNK         0.1400 
     38 CB          2.2829  -19.3675  -42.6035 C.3       7 UNK        -0.1800 
     39 N           2.5217  -17.7958  -44.4532 N.am      7 UNK        -0.5000 
     40 C           2.3358  -16.6279  -45.0731 C.2       6 UNK         0.5000 
     41 O           1.3002  -15.9600  -44.9809 O.2       6 UNK        -0.5000 
     42 CA          3.4894  -16.1215  -45.9457 C.3       6 UNK         0.1400 
     43 CB          3.3902  -16.6805  -47.3742 C.3       6 UNK        -0.1800 
     44 N           3.4053  -14.6689  -45.9666 N.am      6 UNK        -0.5000 
     45 C           4.4230  -13.8115  -46.0843 C.2       5 UNK         0.5000 
     46 O           5.5844  -14.1505  -46.3143 O.2       5 UNK        -0.5000 
     47 CA          4.0844  -12.3200  -45.8906 C.3       5 UNK         0.1400 
     48 CB          3.8678  -11.6375  -47.2501 C.3       5 UNK        -0.1800 
     49 N           2.8903  -12.1138  -45.0684 N.am      5 UNK        -0.5000 
     50 C           2.8082  -12.3170  -43.7471 C.2       4 UNK         0.5000 
     51 O           3.7646  -12.6534  -43.0467 O.2       4 UNK        -0.5000 
     52 CA          1.4097  -12.1105  -43.1272 C.3       4 UNK         0.1400 
     53 CB          1.4010  -12.1840  -41.5866 C.3       4 UNK        -0.1800 
     54 N           0.7637  -10.8826  -43.6050 N.am      4 UNK        -0.5000 
     55 C           1.1844   -9.6183  -43.4494 C.2       3 UNK         0.5000 
     56 O           2.1779   -9.3067  -42.7906 O.2       3 UNK        -0.5000 
     57 CA          0.3660   -8.5222  -44.1710 C.3       3 UNK         0.1400 
     58 CB          1.1655   -7.2197  -44.3583 C.3       3 UNK        -0.1800 
     59 N          -0.1097   -8.9665  -45.4838 N.am      3 UNK        -0.5000 
     60 C          -1.2653   -9.5973  -45.7257 C.2       2 UNK         0.5000 
     61 O          -2.0942   -9.8506  -44.8508 O.2       2 UNK        -0.5000 
     62 CA         -1.5276  -10.0757  -47.1714 C.3       2 UNK         0.1400 
     63 CB         -0.5223   -9.5311  -48.2127 C.3       2 UNK        -0.1800 
     64 N          -1.5939  -11.5398  -47.2446 N.am      2 UNK        -0.5000 
     65 C          -0.6373  -12.3976  -46.8622 C.2       1 UNK         0.5000 
     66 O           0.4569  -12.0519  -46.4131 O.2       1 UNK        -0.5000 
     67 C          -1.7208  -24.2601  -47.1241 C.2       11 UNK         0.5000 
     68 O          -1.6815  -25.2221  -47.8910 O.2       11 UNK        -0.5000 
     69 N          -2.8307  -23.8591  -46.4890 N.am      12 UNK        -0.5000 
     70 CA         -4.1369  -24.5154  -46.5676 C.3       12 UNK         0.1400 
     71 CB         -5.1701  -23.6616  -45.8187 C.3       12 UNK        -0.1800 
     72 C          -4.1504  -25.9674  -46.0508 C.2       12 UNK         0.5000 
     73 O          -4.9881  -26.7501  -46.4986 O.2       12 UNK        -0.5000 
     74 N          -3.2255  -26.3091  -45.1453 N.am      13 UNK        -0.5000 
     75 CA         -3.0334  -27.6656  -44.6392 C.3       13 UNK         0.1400 
     76 CB         -2.6692  -27.6017  -43.1470 C.3       13 UNK        -0.1800 
     77 C          -1.9449  -28.4062  -45.4343 C.2       13 UNK         0.5000 
     78 O          -2.1459  -29.5619  -45.8083 O.2       13 UNK        -0.5000 
     79 N          -0.8068  -27.7369  -45.6606 N.am      14 UNK        -0.5000 
     80 CA          0.4029  -28.3265  -46.2326 C.3       14 UNK         0.1400 
     81 CB          1.6002  -27.4207  -45.9039 C.3       14 UNK        -0.1800 
     82 C           0.3273  -28.5760  -47.7484 C.2       14 UNK         0.5000 
     83 O           0.8413  -29.5942  -48.2140 O.2       14 UNK        -0.5000 
     84 N          -0.2751  -27.6382  -48.4891 N.am      15 UNK        -0.5000 
     85 CA         -0.2808  -27.6120  -49.9551 C.3       15 UNK         0.1400 
     86 CB          0.5699  -26.4136  -50.4137 C.3       15 UNK        -0.1800 
     87 C          -1.6981  -27.5227  -50.5487 C.2       15 UNK         0.5000 
     88 O          -1.8313  -27.5350  -51.7726 O.2       15 UNK        -0.5000 
     89 N          -2.7202  -27.4082  -49.6869 N.am      16 UNK        -0.5000 
     90 CA         -4.1213  -27.1093  -50.0110 C.3       16 UNK         0.1400 
     91 CB         -4.7581  -28.2263  -50.8649 C.3       16 UNK        -0.1800 
     92 C          -4.3083  -25.6971  -50.6127 C.2       16 UNK         0.5000 
     93 O          -5.2415  -25.4769  -51.3866 O.2       16 UNK        -0.5000 
     94 N          -3.4249  -24.7657  -50.2186 N.am      17 UNK        -0.5000 
     95 CA         -3.3541  -23.3634  -50.6362 C.3       17 UNK         0.1400 
     96 CB         -4.5327  -22.5649  -50.0349 C.3       17 UNK        -0.1800 
     97 C          -3.1830  -23.2106  -52.1652 C.2       17 UNK         0.5000 
     98 O          -2.3326  -23.8898  -52.7421 O.2       17 UNK        -0.5000 
     99 N          -3.9639  -22.3097  -52.7799 N.am      18 UNK        -0.5000 
    100 CA        -4.0257  -22.0023  -54.2153 C.3       18 UNK         0.1400 
    101 CB        -4.5449  -23.2188  -55.0098 C.3       18 UNK        -0.1800 
    102 C         -2.7249  -21.4133  -54.8069 C.2       18 UNK         0.5000 
    103 O         -2.5010  -21.5162  -56.0144 O.2       18 UNK        -0.5000 
    104 N         -1.8896  -20.8018  -53.9570 N.am      19 UNK        -0.5000 
    105 CA        -0.5912  -20.2418  -54.3376 C.3       19 UNK         0.1400 
    106 CB         0.3423  -20.2975  -53.1215 C.3       19 UNK        -0.1800 
    107 C         -0.6804  -18.7965  -54.8622 C.2       19 UNK         0.5000 
    108 O          0.2316  -18.3582  -55.5651 O.2       19 UNK        -0.5000 
    109 N         -1.7498  -18.0770  -54.5031 N.am      20 UNK        -0.5000 
    110 CA        -1.9671  -16.6731  -54.8429 C.3       20 UNK         0.1400 
    111 CB        -1.2483  -15.7712  -53.8160 C.3       20 UNK        -0.1800 
    112 C         -3.4778  -16.4162  -54.9722 C.2       20 UNK         0.5000 
    113 O         -4.1621  -17.1887  -55.6465 O.2       20 UNK        -0.5000 
    114 N         -3.9863  -15.3624  -54.3154 N.am      21 UNK        -0.5000 
    115 CA        -5.3938  -14.9368  -54.3158 C.3       21 UNK         0.1400 
    116 CB        -5.5180  -13.6376  -53.5050 C.3       21 UNK        -0.1800 
    117 C         -6.3853  -15.9968  -53.7903 C.2       21 UNK         0.5000 
    118 O         -7.5682  -15.9475  -54.1296 O.2       21 UNK        -0.5000 
    119 N         -5.8746  -16.9483  -53.0016 N.am      22 UNK        -0.5000 
    120 CA        -6.5439  -18.1923  -52.5999 C.3       22 UNK         0.1400 
    121 C         -6.8316  -19.1966  -53.7576 C.2       22 UNK         0.5000 
    122 N         -6.2700  -19.0360  -54.9506 N.am      22 UNK        -0.7600 
    123 O         -7.5906  -20.1426  -53.5683 O.2       22 UNK        -0.5000 
    124 C124       -5.7951  -18.8774  -51.4255 C.3       23 UNK        -0.0398 
    125 S125       -3.9863  -19.0290  -51.6841 S.3       23 UNK        -0.2404 
    126 C126       -3.3886  -18.6137  -50.0180 C.3       23 UNK        -0.0205 
    127 H127       -0.7615  -15.4171  -43.2757 H         1 UNK         0.0600 
    128 H128       -2.5048  -15.6797  -43.1698 H         1 UNK         0.0600 
    129 H129       -1.7982  -14.1700  -42.5827 H         1 UNK         0.0600 
    130 H130       -0.1367  -15.0002  -45.3678 H         1 UNK         0.3000 
    131 H131       -1.9380  -14.0357  -47.4161 H         1 UNK         0.0600 
    132 H132        1.1091  -14.3625  -47.5978 H         1 UNK         0.0800 
    133 H133        0.0034  -15.7013  -47.7200 H         1 UNK         0.0800 
    134 H134        0.7565  -15.5345  -51.4786 H         1 UNK         0.0800 
    135 H135        1.7613  -15.6693  -50.0589 H         1 UNK         0.0800 
    136 H136       -1.9354  -16.3688  -50.4204 H         1 UNK         0.1150 
    137 H137       -1.5100  -20.5372  -49.5954 H         1 UNK         0.1150 
    138 H138        1.9652  -18.0281  -49.7866 H         1 UNK         0.1150 
    139 H139        1.0008  -21.4035  -50.1217 H         1 UNK         0.0800 
    140 H140        2.2765  -20.3468  -49.5996 H         1 UNK         0.0800 
    141 H141       -0.4937  -22.6005  -48.8178 H         1 UNK         0.0800 
    142 H142       -1.2234  -21.5879  -47.5989 H         1 UNK         0.0800 
    143 H143        0.4116  -24.1212  -47.0706 H         1 UNK         0.0600 
    144 H144       -0.1638  -22.1142  -45.2163 H         1 UNK         0.3000 
    145 H145       -0.7630  -24.1128  -42.2918 H         1 UNK         0.0600 
    146 H146        1.0686  -22.5788  -41.5138 H         1 UNK         0.0600 
    147 H147        1.6717  -23.9479  -42.4352 H         1 UNK         0.0600 
    148 H148        1.5878  -22.3641  -43.1851 H         1 UNK         0.0600 
    149 H149       -0.7308  -21.2923  -43.1385 H         1 UNK         0.3000 
    150 H150       -4.2570  -21.0531  -43.3715 H         1 UNK         0.0600 
    151 H151       -2.5347  -19.9808  -41.0706 H         1 UNK         0.0600 
    152 H152       -4.0144  -20.9153  -40.8885 H         1 UNK         0.0600 
    153 H153       -4.0775  -19.3147  -41.6084 H         1 UNK         0.0600 
    154 H154       -2.1685  -19.0861  -43.3382 H         1 UNK         0.3000 
    155 H155       -1.1059  -19.4247  -46.6897 H         1 UNK         0.0600 
    156 H156       -3.2384  -18.1334  -46.9494 H         1 UNK         0.0600 
    157 H157       -1.8280  -17.0920  -46.9368 H         1 UNK         0.0600 
    158 H158       -2.8518  -17.2094  -45.5036 H         1 UNK         0.0600 
    159 H159       -0.3798  -17.4254  -44.9190 H         1 UNK         0.3000 
    160 H160        1.0337  -17.6735  -42.9850 H         1 UNK         0.0600 
    161 H161        2.8498  -20.1371  -43.1289 H         1 UNK         0.0600 
    162 H162        1.5827  -19.8720  -41.9365 H         1 UNK         0.0600 
    163 H163        2.9792  -18.8084  -41.9784 H         1 UNK         0.0600 
    164 H164        3.3789  -18.3061  -44.6098 H         1 UNK         0.3000 
    165 H165        4.4351  -16.4267  -45.4926 H         1 UNK         0.0600 
    166 H166        2.4372  -16.4284  -47.8370 H         1 UNK         0.0600 
    167 H167        4.1853  -16.2900  -48.0093 H         1 UNK         0.0600 
    168 H168        3.4754  -17.7679  -47.3758 H         1 UNK         0.0600 
    169 H169        2.4941  -14.3056  -45.7212 H         1 UNK         0.3000 
    170 H170        4.9329  -11.8448  -45.3942 H         1 UNK         0.0600 
    171 H171        4.7479  -11.7427  -47.8857 H         1 UNK         0.0600 
    172 H172        3.0209  -12.0689  -47.7858 H         1 UNK         0.0600 
    173 H173        3.6785  -10.5707  -47.1297 H         1 UNK         0.0600 
    174 H174        2.0325  -11.8875  -45.5704 H         1 UNK         0.3000 
    175 H175        0.7974  -12.9357  -43.4936 H         1 UNK         0.0600 
    176 H176        2.0353  -11.4192  -41.1380 H         1 UNK         0.0600 
    177 H177        0.3926  -12.0580  -41.1924 H         1 UNK         0.0600 
    178 H178        1.7645  -13.1526  -41.2416 H         1 UNK         0.0600 
    179 H179       -0.0411  -11.0229  -44.2007 H         1 UNK         0.3000 
    180 H180       -0.4901   -8.2948  -43.5327 H         1 UNK         0.0600 
    181 H181        0.5663   -6.4580  -44.8574 H         1 UNK         0.0600 
    182 H182        2.0650   -7.3824  -44.9533 H         1 UNK         0.0600 
    183 H183        1.4752   -6.8057  -43.3979 H         1 UNK         0.0600 
    184 H184        0.5358   -8.8503  -46.2517 H         1 UNK         0.3000 
    185 H185       -2.5168   -9.7032  -47.4410 H         1 UNK         0.0600 
    186 H186        0.4952   -9.8799  -48.0329 H         1 UNK         0.0600 
    187 H187       -0.8006   -9.8456  -49.2186 H         1 UNK         0.0600 
    188 H188       -0.5075   -8.4405  -48.2132 H         1 UNK         0.0600 
    189 H189       -2.4812  -11.9171  -47.5465 H         1 UNK         0.3000 
    190 H190       -2.7870  -23.0122  -45.9323 H         1 UNK         0.3000 
    191 H191       -4.4287  -24.5539  -47.6169 H         1 UNK         0.0600 
    192 H192       -5.2261  -22.6553  -46.2345 H         1 UNK         0.0600 
    193 H193       -6.1667  -24.0990  -45.8912 H         1 UNK         0.0600 
    194 H194       -4.9258  -23.5734  -44.7599 H         1 UNK         0.0600 
    195 H195       -2.5499  -25.6160  -44.8504 H         1 UNK         0.3000 
    196 H196       -3.9609  -28.2353  -44.7282 H         1 UNK         0.0600 
    197 H197       -2.5285  -28.6025  -42.7369 H         1 UNK         0.0600 
    198 H198       -3.4608  -27.1223  -42.5708 H         1 UNK         0.0600 
    199 H199       -1.7482  -27.0438  -42.9747 H         1 UNK         0.0600 
    200 H200       -0.7132  -26.7921  -45.2933 H         1 UNK         0.3000 
    201 H201        0.5709  -29.2909  -45.7483 H         1 UNK         0.0600 
    202 H202        1.7194  -27.3008  -44.8268 H         1 UNK         0.0600 
    203 H203        1.4844  -26.4271  -46.3387 H         1 UNK         0.0600 
    204 H204        2.5292  -27.8428  -46.2892 H         1 UNK         0.0600 
    205 H205       -0.6805  -26.8267  -48.0312 H         1 UNK         0.3000 
    206 H206        0.1649  -28.5221  -50.3610 H         1 UNK         0.0600 
    207 H207        1.5905  -26.4888  -50.0384 H         1 UNK         0.0600 
    208 H208        0.6283  -26.3638  -51.5017 H         1 UNK         0.0600 
    209 H209        0.1532  -25.4681  -50.0640 H         1 UNK         0.0600 
    210 H210       -2.4925  -27.4074  -48.7028 H         1 UNK         0.3000 
    211 H211       -4.6523  -27.0966  -49.0602 H         1 UNK         0.0600 
    212 H212       -4.3590  -28.2437  -51.8791 H         1 UNK         0.0600 
    213 H213       -5.8367  -28.0871  -50.9445 H         1 UNK         0.0600 
    214 H214       -4.5910  -29.2071  -50.4198 H         1 UNK         0.0600 
    215 H215       -2.6957  -25.0652  -49.5799 H         1 UNK         0.3000 
    216 H216       -2.4382  -22.9657  -50.1996 H         1 UNK         0.0600 
    217 H217       -4.4389  -21.5010  -50.2398 H         1 UNK         0.0600 
    218 H218       -4.5608  -22.6633  -48.9508 H         1 UNK         0.0600 
    219 H219       -5.4956  -22.8978  -50.4237 H         1 UNK         0.0600 
    220 H220       -4.6162  -21.7941  -52.2067 H         1 UNK         0.3000 
    221 H221       -4.7702  -21.2152  -54.3136 H         1 UNK         0.0600 
    222 H222       -3.8213  -24.0344  -55.0195 H         1 UNK         0.0600 
    223 H223       -5.4733  -23.5995  -54.5839 H         1 UNK         0.0600 
    224 H224       -4.7517  -22.9524  -56.0469 H         1 UNK         0.0600 
    225 H225       -2.1483  -20.7421  -52.9832 H         1 UNK         0.3000 
    226 H226       -0.1520  -20.8571  -55.1259 H         1 UNK         0.0600 
    227 H227        0.4035  -21.3045  -52.7085 H         1 UNK         0.0600 
    228 H228        1.3540  -19.9911  -53.3898 H         1 UNK         0.0600 
    229 H229       -0.0027  -19.6263  -52.3372 H         1 UNK         0.0600 
    230 H230       -2.4807  -18.5245  -53.9682 H         1 UNK         0.3000 
    231 H231       -1.5453  -16.4730  -55.8300 H         1 UNK         0.0600 
    232 H232       -1.6476  -15.9058  -52.8107 H         1 UNK         0.0600 
    233 H233       -1.3368  -14.7164  -54.0781 H         1 UNK         0.0600 
    234 H234       -0.1825  -15.9967  -53.7780 H         1 UNK         0.0600 
    235 H235       -3.3521  -14.7885  -53.7789 H         1 UNK         0.3000 
    236 H236       -5.6709  -14.7236  -55.3501 H         1 UNK         0.0600 
    237 H237       -4.8947  -12.8481  -53.9253 H         1 UNK         0.0600 
    238 H238       -6.5458  -13.2721  -53.5057 H         1 UNK         0.0600 
    239 H239       -5.2221  -13.7835  -52.4654 H         1 UNK         0.0600 
    240 H240       -4.8925  -16.8989  -52.7762 H         1 UNK         0.3000 
    241 H241       -7.5290  -17.9072  -52.2257 H         1 UNK         0.0600 
    242 H242       -6.4958  -19.6820  -55.6893 H         1 UNK         0.3800 
    243 H243       -5.6135  -18.2819  -55.1337 H         1 UNK         0.3800 
    244 H244       -5.9726  -18.2924  -50.5225 H         1 UNK         0.0800 
    245 H245       -6.2092  -19.8639  -51.2099 H         1 UNK         0.0800 
    246 H246       -3.7059  -19.3814  -49.3110 H         1 UNK         0.0800 
    247 H247       -3.8506  -17.6827  -49.6854 H         1 UNK         0.0800 
@<TRIPOS>BOND
     1    1    2 1    
     2    1  127 1    
     3    1  128 1    
     4    1  129 1    
     5    2    3 2    
     6    2    4 am   BACKBONE|DICT|INTERRES
     7    4    5 1    
     8    4  130 1    
     9    5    6 1    
    10    5   65 1    
    11    5  131 1    
    12    6    7 1    
    13    6  132 1    
    14    6  133 1    
    15    7    8 1    
    16    8    9 1    
    17    8  134 1    
    18    8  135 1    
    19    9   10 ar   
    20    9   14 ar   
    21   10   11 ar   
    22   10  136 1    
    23   11   12 ar   
    24   11  126 1    
    25   12   13 ar   
    26   12  137 1    
    27   13   14 ar   
    28   13   15 1    
    29   14  138 1    
    30   15   16 1    
    31   15  139 1    
    32   15  140 1    
    33   16   17 1    
    34   17   18 1    
    35   17  141 1    
    36   17  142 1    
    37   18   19 1    
    38   18   67 1    
    39   18  143 1    
    40   19   20 am   BACKBONE|DICT|INTERRES
    41   19  144 1    
    42   20   21 2    
    43   20   22 1    
    44   22   23 1    
    45   22   24 1    
    46   22  145 1    
    47   23  146 1    
    48   23  147 1    
    49   23  148 1    
    50   24   25 am   BACKBONE|DICT|INTERRES
    51   24  149 1    
    52   25   26 2    
    53   25   27 1    
    54   27   28 1    
    55   27   29 1    
    56   27  150 1    
    57   28  151 1    
    58   28  152 1    
    59   28  153 1    
    60   29   30 am   BACKBONE|DICT|INTERRES
    61   29  154 1    
    62   30   31 2    
    63   30   32 1    
    64   32   33 1    
    65   32   34 1    
    66   32  155 1    
    67   33  156 1    
    68   33  157 1    
    69   33  158 1    
    70   34   35 am   BACKBONE|DICT|INTERRES
    71   34  159 1    
    72   35   36 2    
    73   35   37 1    
    74   37   38 1    
    75   37   39 1    
    76   37  160 1    
    77   38  161 1    
    78   38  162 1    
    79   38  163 1    
    80   39   40 am   BACKBONE|DICT|INTERRES
    81   39  164 1    
    82   40   41 2    
    83   40   42 1    
    84   42   43 1    
    85   42   44 1    
    86   42  165 1    
    87   43  166 1    
    88   43  167 1    
    89   43  168 1    
    90   44   45 am   BACKBONE|DICT|INTERRES
    91   44  169 1    
    92   45   46 2    
    93   45   47 1    
    94   47   48 1    
    95   47   49 1    
    96   47  170 1    
    97   48  171 1    
    98   48  172 1    
    99   48  173 1    
   100   49   50 am   BACKBONE|DICT|INTERRES
   101   49  174 1    
   102   50   51 2    
   103   50   52 1    
   104   52   53 1    
   105   52   54 1    
   106   52  175 1    
   107   53  176 1    
   108   53  177 1    
   109   53  178 1    
   110   54   55 am   BACKBONE|DICT|INTERRES
   111   54  179 1    
   112   55   56 2    
   113   55   57 1    
   114   57   58 1    
   115   57   59 1    
   116   57  180 1    
   117   58  181 1    
   118   58  182 1    
   119   58  183 1    
   120   59   60 am   BACKBONE|DICT|INTERRES
   121   59  184 1    
   122   60   61 2    
   123   60   62 1    
   124   62   63 1    
   125   62   64 1    
   126   62  185 1    
   127   63  186 1    
   128   63  187 1    
   129   63  188 1    
   130   64   65 am   BACKBONE|DICT|INTERRES
   131   64  189 1    
   132   65   66 2    
   133   67   68 2    
   134   67   69 am   BACKBONE|DICT|INTERRES
   135   69   70 1    
   136   69  190 1    
   137   70   71 1    
   138   70   72 1    
   139   70  191 1    
   140   71  192 1    
   141   71  193 1    
   142   71  194 1    
   143   72   73 2    
   144   72   74 am   BACKBONE|DICT|INTERRES
   145   74   75 1    
   146   74  195 1    
   147   75   76 1    
   148   75   77 1    
   149   75  196 1    
   150   76  197 1    
   151   76  198 1    
   152   76  199 1    
   153   77   78 2    
   154   77   79 am   BACKBONE|DICT|INTERRES
   155   79   80 1    
   156   79  200 1    
   157   80   81 1    
   158   80   82 1    
   159   80  201 1    
   160   81  202 1    
   161   81  203 1    
   162   81  204 1    
   163   82   83 2    
   164   82   84 am   BACKBONE|DICT|INTERRES
   165   84   85 1    
   166   84  205 1    
   167   85   86 1    
   168   85   87 1    
   169   85  206 1    
   170   86  207 1    
   171   86  208 1    
   172   86  209 1    
   173   87   88 2    
   174   87   89 am   BACKBONE|DICT|INTERRES
   175   89   90 1    
   176   89  210 1    
   177   90   91 1    
   178   90   92 1    
   179   90  211 1    
   180   91  212 1    
   181   91  213 1    
   182   91  214 1    
   183   92   93 2    
   184   92   94 am   BACKBONE|DICT|INTERRES
   185   94   95 1    
   186   94  215 1    
   187   95   96 1    
   188   95   97 1    
   189   95  216 1    
   190   96  217 1    
   191   96  218 1    
   192   96  219 1    
   193   97   98 2    
   194   97   99 am   BACKBONE|DICT|INTERRES
   195   99  100 1    
   196   99  220 1    
   197  100  101 1    
   198  100  102 1    
   199  100  221 1    
   200  101  222 1    
   201  101  223 1    
   202  101  224 1    
   203  102  103 2    
   204  102  104 am   BACKBONE|DICT|INTERRES
   205  104  105 1    
   206  104  225 1    
   207  105  106 1    
   208  105  107 1    
   209  105  226 1    
   210  106  227 1    
   211  106  228 1    
   212  106  229 1    
   213  107  108 2    
   214  107  109 am   BACKBONE|DICT|INTERRES
   215  109  110 1    
   216  109  230 1    
   217  110  111 1    
   218  110  112 1    
   219  110  231 1    
   220  111  232 1    
   221  111  233 1    
   222  111  234 1    
   223  112  113 2    
   224  112  114 am   BACKBONE|DICT|INTERRES
   225  114  115 1    
   226  114  235 1    
   227  115  116 1    
   228  115  117 1    
   229  115  236 1    
   230  116  237 1    
   231  116  238 1    
   232  116  239 1    
   233  117  118 2    
   234  117  119 am   BACKBONE|DICT|INTERRES
   235  119  120 1    
   236  119  240 1    
   237  120  121 1    
   238  120  124 1    
   239  120  241 1    
   240  121  122 am   BACKBONE|DICT|INTERRES
   241  121  123 2    
   242  122  242 1    
   243  122  243 1    
   244  124  125 1    
   245  124  244 1    
   246  124  245 1    
   247  125  126 1    
   248  126  246 1    
   249  126  247 1    
@<TRIPOS>SUBSTRUCTURE
     1 UNK         1 GROUP             0       ****    0 ROOT    
