@<TRIPOS>MOLECULE
3R540
247   249    1
SMALL
USER_CHARGES


@<TRIPOS>ATOM
      1 CA         -1.1101  -10.6321  -46.9439 C.3       0 UNK        -0.1800 
      2 C          -0.1342  -11.3370  -47.8751 C.2       0 UNK         0.5000 
      3 O           0.4712  -10.6933  -48.7322 O.2       0 UNK        -0.5000 
      4 N           0.0211  -12.6567  -47.7079 N.am      1 UNK        -0.5000 
      5 CA          0.9163  -13.5147  -48.5021 C.3       1 UNK         0.1400 
      6 C6          0.5875  -15.0199  -48.3214 C.3       23 UNK        -0.0398 
      7 S7         -1.1676  -15.3902  -48.6458 S.3       23 UNK        -0.2404 
      8 C8         -1.2684  -17.1534  -48.2062 C.3       23 UNK        -0.0205 
      9 C9         -2.7199  -17.5650  -48.0149 C.ar      23 UNK        -0.0193 
     10 C10        -3.5803  -17.6487  -49.1136 C.ar      23 UNK        -0.1150 
     11 C11        -4.9367  -17.9382  -48.9370 C.ar      23 UNK        -0.0193 
     12 C12        -5.4220  -18.1874  -47.6485 C.ar      23 UNK        -0.1150 
     13 C13        -4.5675  -18.1179  -46.5413 C.ar      23 UNK        -0.0193 
     14 C14        -3.2189  -17.8048  -46.7325 C.ar      23 UNK        -0.1150 
     15 C15        -5.1136  -18.3093  -45.1331 C.3       23 UNK        -0.0205 
     16 S16        -4.9468  -20.0231  -44.5429 S.3       23 UNK        -0.2404 
     17 C17        -3.1952  -20.1048  -44.0238 C.3       23 UNK        -0.0398 
     18 CA         -2.3197  -20.9508  -44.9823 C.3       11 UNK         0.1400 
     19 N          -0.9151  -20.5300  -44.9546 N.am      11 UNK        -0.5000 
     20 C           0.0475  -20.9640  -45.7814 C.2       10 UNK         0.5000 
     21 O          -0.1502  -21.7628  -46.6961 O.2       10 UNK        -0.5000 
     22 CA          1.4829  -20.4814  -45.5019 C.3       10 UNK         0.1400 
     23 CB          1.8093  -19.2452  -46.3529 C.3       10 UNK        -0.1800 
     24 N           1.7370  -20.1906  -44.0874 N.am      10 UNK        -0.5000 
     25 C           1.6628  -21.0857  -43.0910 C.2       9 UNK         0.5000 
     26 O           1.3886  -22.2728  -43.2635 O.2       9 UNK        -0.5000 
     27 CA          1.8708  -20.5582  -41.6591 C.3       9 UNK         0.1400 
     28 CB          3.3636  -20.3800  -41.3449 C.3       9 UNK        -0.1800 
     29 N           1.1567  -19.3030  -41.4195 N.am      9 UNK        -0.5000 
     30 C          -0.1794  -19.1853  -41.4094 C.2       8 UNK         0.5000 
     31 O          -0.9496  -20.1374  -41.5328 O.2       8 UNK        -0.5000 
     32 CA         -0.7555  -17.7622  -41.2903 C.3       8 UNK         0.1400 
     33 CB         -0.7951  -17.3072  -39.8242 C.3       8 UNK        -0.1800 
     34 N          -0.0163  -16.7887  -42.0957 N.am      8 UNK        -0.5000 
     35 C           0.0555  -16.8179  -43.4350 C.2       7 UNK         0.5000 
     36 O          -0.5521  -17.6291  -44.1332 O.2       7 UNK        -0.5000 
     37 CA          1.0068  -15.8107  -44.1047 C.3       7 UNK         0.1400 
     38 CB          0.3346  -14.4402  -44.2727 C.3       7 UNK        -0.1800 
     39 N           2.2590  -15.6561  -43.3676 N.am      7 UNK        -0.5000 
     40 C           3.1782  -16.6158  -43.2051 C.2       6 UNK         0.5000 
     41 O           3.0942  -17.7308  -43.7151 O.2       6 UNK        -0.5000 
     42 CA          4.3607  -16.2981  -42.2743 C.3       6 UNK         0.1400 
     43 CB          5.4639  -15.5216  -43.0080 C.3       6 UNK        -0.1800 
     44 N           3.9422  -15.5515  -41.0892 N.am      6 UNK        -0.5000 
     45 C           3.2284  -16.0690  -40.0813 C.2       5 UNK         0.5000 
     46 O           2.8603  -17.2429  -40.0386 O.2       5 UNK        -0.5000 
     47 CA          2.8415  -15.1052  -38.9440 C.3       5 UNK         0.1400 
     48 CB          3.9790  -14.9971  -37.9176 C.3       5 UNK        -0.1800 
     49 N           2.4951  -13.7662  -39.4262 N.am      5 UNK        -0.5000 
     50 C           1.3890  -13.4859  -40.1284 C.2       4 UNK         0.5000 
     51 O           0.5458  -14.3275  -40.4395 O.2       4 UNK        -0.5000 
     52 CA          1.2226  -12.0296  -40.6083 C.3       4 UNK         0.1400 
     53 CB          0.7105  -11.1387  -39.4663 C.3       4 UNK        -0.1800 
     54 N           2.4275  -11.4262  -41.1961 N.am      4 UNK        -0.5000 
     55 C           3.1452  -11.9648  -42.1905 C.2       3 UNK         0.5000 
     56 O           2.9620  -13.1054  -42.6153 O.2       3 UNK        -0.5000 
     57 CA          4.2653  -11.1074  -42.8140 C.3       3 UNK         0.1400 
     58 CB          5.5471  -11.2142  -41.9740 C.3       3 UNK        -0.1800 
     59 N           4.5579  -11.5538  -44.1808 N.am      3 UNK        -0.5000 
     60 C           3.6835  -11.4904  -45.1945 C.2       2 UNK         0.5000 
     61 O           2.6427  -10.8266  -45.1474 O.2       2 UNK        -0.5000 
     62 CA          3.9753  -12.3472  -46.4429 C.3       2 UNK         0.1400 
     63 CB          4.7842  -13.6276  -46.1344 C.3       2 UNK        -0.1800 
     64 N           2.6794  -12.6950  -47.0108 N.am      2 UNK        -0.5000 
     65 C           2.4093  -13.2575  -48.1928 C.2       1 UNK         0.5000 
     66 O           3.2677  -13.5743  -49.0170 O.2       1 UNK        -0.5000 
     67 C          -2.5180  -22.4718  -44.7518 C.2       11 UNK         0.5000 
     68 O          -3.5482  -23.0128  -45.1537 O.2       11 UNK        -0.5000 
     69 N          -1.5212  -23.1641  -44.1754 N.am      12 UNK        -0.5000 
     70 CA         -1.4966  -24.6267  -44.0544 C.3       12 UNK         0.1400 
     71 CB         -0.3211  -25.0445  -43.1591 C.3       12 UNK        -0.1800 
     72 C          -1.4264  -25.3604  -45.4129 C.2       12 UNK         0.5000 
     73 O          -1.7875  -26.5359  -45.4799 O.2       12 UNK        -0.5000 
     74 N          -0.9877  -24.6594  -46.4666 N.am      13 UNK        -0.5000 
     75 CA         -0.9586  -25.1247  -47.8504 C.3       13 UNK         0.1400 
     76 CB          0.4615  -25.6099  -48.1952 C.3       13 UNK        -0.1800 
     77 C          -1.4575  -23.9991  -48.7762 C.2       13 UNK         0.5000 
     78 O          -0.8747  -23.7760  -49.8398 O.2       13 UNK        -0.5000 
     79 N          -2.5218  -23.3034  -48.3361 N.am      14 UNK        -0.5000 
     80 CA         -3.0821  -22.0758  -48.9184 C.3       14 UNK         0.1400 
     81 CB         -4.4290  -21.7615  -48.2439 C.3       14 UNK        -0.1800 
     82 C          -3.2958  -22.1176  -50.4389 C.2       14 UNK         0.5000 
     83 O          -2.9751  -21.1497  -51.1260 O.2       14 UNK        -0.5000 
     84 N          -3.8271  -23.2501  -50.9206 N.am      15 UNK        -0.5000 
     85 CA         -4.2347  -23.4737  -52.3048 C.3       15 UNK         0.1400 
     86 CB         -4.9111  -24.8484  -52.4118 C.3       15 UNK        -0.1800 
     87 C          -3.1110  -23.3558  -53.3474 C.2       15 UNK         0.5000 
     88 O          -3.4227  -23.0898  -54.5101 O.2       15 UNK        -0.5000 
     89 N          -1.8518  -23.5607  -52.9285 N.am      16 UNK        -0.5000 
     90 CA         -0.6290  -23.4477  -53.7319 C.3       16 UNK         0.1400 
     91 CB         -0.3666  -21.9693  -54.0893 C.3       16 UNK        -0.1800 
     92 C          -0.6552  -24.3667  -54.9707 C.2       16 UNK         0.5000 
     93 O          -0.4729  -23.8992  -56.0945 O.2       16 UNK        -0.5000 
     94 N          -0.9588  -25.6541  -54.7428 N.am      17 UNK        -0.5000 
     95 CA         -1.1726  -26.6943  -55.7618 C.3       17 UNK         0.1400 
     96 CB          0.1389  -27.0128  -56.5104 C.3       17 UNK        -0.1800 
     97 C          -2.3483  -26.3660  -56.7116 C.2       17 UNK         0.5000 
     98 O          -2.2922  -26.6681  -57.9044 O.2       17 UNK        -0.5000 
     99 N          -3.3845  -25.7328  -56.1427 N.am      18 UNK        -0.5000 
    100 CA        -4.6097  -25.2325  -56.7742 C.3       18 UNK         0.1400 
    101 CB        -5.4018  -26.3686  -57.4540 C.3       18 UNK        -0.1800 
    102 C         -4.4028  -24.0122  -57.6977 C.2       18 UNK         0.5000 
    103 O         -5.3267  -23.6564  -58.4308 O.2       18 UNK        -0.5000 
    104 N         -3.2305  -23.3619  -57.6337 N.am      19 UNK        -0.5000 
    105 CA        -2.9491  -22.1191  -58.3558 C.3       19 UNK         0.1400 
    106 CB        -1.4331  -21.8826  -58.4199 C.3       19 UNK        -0.1800 
    107 C         -3.6567  -20.9076  -57.7216 C.2       19 UNK         0.5000 
    108 O         -4.1311  -20.0355  -58.4506 O.2       19 UNK        -0.5000 
    109 N         -3.7251  -20.8830  -56.3836 N.am      20 UNK        -0.5000 
    110 CA        -4.4425  -19.8692  -55.6087 C.3       20 UNK         0.1400 
    111 CB        -3.6290  -19.5233  -54.3527 C.3       20 UNK        -0.1800 
    112 C         -5.8503  -20.3556  -55.2241 C.2       20 UNK         0.5000 
    113 O         -6.7694  -19.5398  -55.1403 O.2       20 UNK        -0.5000 
    114 N         -5.9905  -21.6735  -55.0107 N.am      21 UNK        -0.5000 
    115 CA        -7.1920  -22.4306  -54.6358 C.3       21 UNK         0.1400 
    116 CB        -8.2976  -22.3081  -55.7008 C.3       21 UNK        -0.1800 
    117 C         -7.7196  -22.1185  -53.2207 C.2       21 UNK         0.5000 
    118 O         -7.8376  -23.0384  -52.4121 O.2       21 UNK        -0.5000 
    119 N         -7.9964  -20.8396  -52.9398 N.am      22 UNK        -0.5000 
    120 CA        -8.3990  -20.2892  -51.6297 C.3       22 UNK         0.1400 
    121 C         -9.7588  -20.8161  -51.0731 C.2       22 UNK         0.5000 
    122 N        -10.6377  -21.3717  -51.8982 N.am      22 UNK        -0.7600 
    123 O        -10.0437  -20.6897  -49.8851 O.2       22 UNK        -0.5000 
    124 C124       -7.2498  -20.3464  -50.5812 C.3       23 UNK        -0.0398 
    125 S125       -5.7896  -19.4075  -51.1450 S.3       23 UNK        -0.2404 
    126 C126       -5.8782  -17.8975  -50.1341 C.3       23 UNK        -0.0205 
    127 H127       -1.8897  -10.1359  -47.5218 H         1 UNK         0.0600 
    128 H128       -0.5867   -9.8783  -46.3555 H         1 UNK         0.0600 
    129 H129       -1.5884  -11.3287  -46.2548 H         1 UNK         0.0600 
    130 H130       -0.5381  -13.1358  -47.0172 H         1 UNK         0.3000 
    131 H131        0.7634  -13.2645  -49.5543 H         1 UNK         0.0600 
    132 H132        0.8269  -15.3448  -47.3081 H         1 UNK         0.0800 
    133 H133        1.1952  -15.6278  -48.9944 H         1 UNK         0.0800 
    134 H134       -0.7000  -17.3376  -47.2932 H         1 UNK         0.0800 
    135 H135       -0.8100  -17.7569  -48.9909 H         1 UNK         0.0800 
    136 H136       -3.2018  -17.4433  -50.1052 H         1 UNK         0.1150 
    137 H137       -6.4711  -18.4037  -47.5035 H         1 UNK         0.1150 
    138 H138       -2.5613  -17.7209  -45.8791 H         1 UNK         0.1150 
    139 H139       -4.6223  -17.6257  -44.4390 H         1 UNK         0.0800 
    140 H140       -6.1711  -18.0416  -45.1131 H         1 UNK         0.0800 
    141 H141       -3.1521  -20.4974  -43.0067 H         1 UNK         0.0800 
    142 H142       -2.8096  -19.0880  -43.9546 H         1 UNK         0.0800 
    143 H143       -2.6461  -20.7401  -46.0009 H         1 UNK         0.0600 
    144 H144       -0.6647  -19.8370  -44.2598 H         1 UNK         0.3000 
    145 H145        2.1593  -21.2856  -45.7982 H         1 UNK         0.0600 
    146 H146        2.8512  -18.9477  -46.2339 H         1 UNK         0.0600 
    147 H147        1.6470  -19.4450  -47.4129 H         1 UNK         0.0600 
    148 H148        1.1851  -18.3954  -46.0804 H         1 UNK         0.0600 
    149 H149        2.0322  -19.2416  -43.8689 H         1 UNK         0.3000 
    150 H150        1.4710  -21.3056  -40.9705 H         1 UNK         0.0600 
    151 H151        3.9045  -21.3172  -41.4813 H         1 UNK         0.0600 
    152 H152        3.5134  -20.0651  -40.3120 H         1 UNK         0.0600 
    153 H153        3.8292  -19.6364  -41.9909 H         1 UNK         0.0600 
    154 H154        1.7238  -18.4787  -41.2540 H         1 UNK         0.3000 
    155 H155       -1.7820  -17.7899  -41.6620 H         1 UNK         0.0600 
    156 H156        0.2052  -17.2220  -39.3998 H         1 UNK         0.0600 
    157 H157       -1.3534  -18.0151  -39.2104 H         1 UNK         0.0600 
    158 H158       -1.2833  -16.3374  -39.7265 H         1 UNK         0.0600 
    159 H159        0.4691  -16.0542  -41.5921 H         1 UNK         0.3000 
    160 H160        1.2518  -16.1932  -45.0965 H         1 UNK         0.0600 
    161 H161        0.0781  -13.9986  -43.3090 H         1 UNK         0.0600 
    162 H162       -0.5846  -14.5246  -44.8538 H         1 UNK         0.0600 
    163 H163        0.9901  -13.7420  -44.7926 H         1 UNK         0.0600 
    164 H164        2.4369  -14.7413  -42.9534 H         1 UNK         0.3000 
    165 H165        4.7841  -17.2502  -41.9473 H         1 UNK         0.0600 
    166 H166        6.3585  -15.4375  -42.3910 H         1 UNK         0.0600 
    167 H167        5.7520  -16.0255  -43.9315 H         1 UNK         0.0600 
    168 H168        5.1450  -14.5128  -43.2662 H         1 UNK         0.0600 
    169 H169        4.1313  -14.5600  -41.0880 H         1 UNK         0.3000 
    170 H170        1.9678  -15.5230  -38.4390 H         1 UNK         0.0600 
    171 H171        4.2464  -15.9799  -37.5271 H         1 UNK         0.0600 
    172 H172        4.8783  -14.5618  -38.3553 H         1 UNK         0.0600 
    173 H173        3.6859  -14.3799  -37.0681 H         1 UNK         0.0600 
    174 H174        3.1448  -13.0200  -39.2259 H         1 UNK         0.3000 
    175 H175        0.4614  -12.0398  -41.3911 H         1 UNK         0.0600 
    176 H176        1.4516  -11.0340  -38.6731 H         1 UNK         0.0600 
    177 H177        0.4603  -10.1406  -39.8261 H         1 UNK         0.0600 
    178 H178       -0.1928  -11.5563  -39.0191 H         1 UNK         0.0600 
    179 H179        2.6543  -10.4928  -40.8849 H         1 UNK         0.3000 
    180 H180        3.9392  -10.0659  -42.8458 H         1 UNK         0.0600 
    181 H181        5.9045  -12.2431  -41.9121 H         1 UNK         0.0600 
    182 H182        5.3794  -10.8632  -40.9550 H         1 UNK         0.0600 
    183 H183        6.3471  -10.6063  -42.3971 H         1 UNK         0.0600 
    184 H184        5.3732  -12.1374  -44.2909 H         1 UNK         0.3000 
    185 H185        4.5224  -11.7280  -47.1557 H         1 UNK         0.0600 
    186 H186        5.7596  -13.3992  -45.7044 H         1 UNK         0.0600 
    187 H187        4.2478  -14.2734  -45.4387 H         1 UNK         0.0600 
    188 H188        4.9740  -14.2071  -47.0374 H         1 UNK         0.0600 
    189 H189        1.9022  -12.3828  -46.4419 H         1 UNK         0.3000 
    190 H190       -0.6855  -22.6736  -43.8779 H         1 UNK         0.3000 
    191 H191       -2.4223  -24.9348  -43.5640 H         1 UNK         0.0600 
    192 H192        0.6382  -24.8155  -43.6245 H         1 UNK         0.0600 
    193 H193       -0.3412  -26.1176  -42.9655 H         1 UNK         0.0600 
    194 H194       -0.3569  -24.5387  -42.1940 H         1 UNK         0.0600 
    195 H195       -0.7182  -23.6883  -46.3362 H         1 UNK         0.3000 
    196 H196       -1.6503  -25.9592  -47.9812 H         1 UNK         0.0600 
    197 H197        0.5084  -25.9984  -49.2132 H         1 UNK         0.0600 
    198 H198        0.7761  -26.4123  -47.5278 H         1 UNK         0.0600 
    199 H199        1.1895  -24.8017  -48.1147 H         1 UNK         0.0600 
    200 H200       -2.9203  -23.5806  -47.4491 H         1 UNK         0.3000 
    201 H201       -2.3854  -21.2637  -48.7005 H         1 UNK         0.0600 
    202 H202       -4.3287  -21.5961  -47.1755 H         1 UNK         0.0600 
    203 H203       -5.1500  -22.5672  -48.3857 H         1 UNK         0.0600 
    204 H204       -4.8690  -20.8555  -48.6589 H         1 UNK         0.0600 
    205 H205       -4.0268  -23.9922  -50.2665 H         1 UNK         0.3000 
    206 H206       -4.9682  -22.7034  -52.5421 H         1 UNK         0.0600 
    207 H207       -5.7777  -24.9128  -51.7534 H         1 UNK         0.0600 
    208 H208       -5.2655  -25.0372  -53.4255 H         1 UNK         0.0600 
    209 H209       -4.2270  -25.6554  -52.1467 H         1 UNK         0.0600 
    210 H210       -1.7083  -23.7452  -51.9420 H         1 UNK         0.3000 
    211 H211        0.1941  -23.7904  -53.1033 H         1 UNK         0.0600 
    212 H212       -1.1373  -21.5655  -54.7464 H         1 UNK         0.0600 
    213 H213        0.5907  -21.8541  -54.5988 H         1 UNK         0.0600 
    214 H214       -0.3359  -21.3487  -53.1935 H         1 UNK         0.0600 
    215 H215       -1.1069  -25.9413  -53.7852 H         1 UNK         0.3000 
    216 H216       -1.4666  -27.5954  -55.2217 H         1 UNK         0.0600 
    217 H217        0.0165  -27.8798  -57.1605 H         1 UNK         0.0600 
    218 H218        0.9447  -27.2429  -55.8135 H         1 UNK         0.0600 
    219 H219        0.4634  -26.1807  -57.1358 H         1 UNK         0.0600 
    220 H220       -3.2855  -25.4909  -55.1677 H         1 UNK         0.3000 
    221 H221       -5.2258  -24.8654  -55.9531 H         1 UNK         0.0600 
    222 H222       -4.9013  -26.7337  -58.3509 H         1 UNK         0.0600 
    223 H223       -5.5411  -27.2124  -56.7783 H         1 UNK         0.0600 
    224 H224       -6.3940  -26.0286  -57.7532 H         1 UNK         0.0600 
    225 H225       -2.5099  -23.6991  -57.0067 H         1 UNK         0.3000 
    226 H226       -3.3139  -22.2255  -59.3797 H         1 UNK         0.0600 
    227 H227       -0.9144  -22.7445  -58.8400 H         1 UNK         0.0600 
    228 H228       -1.2013  -21.0227  -59.0494 H         1 UNK         0.0600 
    229 H229       -1.0131  -21.6851  -57.4332 H         1 UNK         0.0600 
    230 H230       -3.3385  -21.6624  -55.8608 H         1 UNK         0.3000 
    231 H231       -4.5535  -18.9555  -56.1962 H         1 UNK         0.0600 
    232 H232       -2.6345  -19.1612  -54.6130 H         1 UNK         0.0600 
    233 H233       -3.5092  -20.3849  -53.6964 H         1 UNK         0.0600 
    234 H234       -4.1200  -18.7400  -53.7740 H         1 UNK         0.0600 
    235 H235       -5.1413  -22.2245  -55.0606 H         1 UNK         0.3000 
    236 H236       -6.8806  -23.4758  -54.6234 H         1 UNK         0.0600 
    237 H237       -8.6805  -21.2908  -55.7833 H         1 UNK         0.0600 
    238 H238       -7.9297  -22.6075  -56.6825 H         1 UNK         0.0600 
    239 H239       -9.1421  -22.9546  -55.4593 H         1 UNK         0.0600 
    240 H240       -7.8135  -20.1588  -53.6719 H         1 UNK         0.3000 
    241 H241       -8.5956  -19.2334  -51.8191 H         1 UNK         0.0600 
    242 H242      -11.5196  -21.7006  -51.5374 H         1 UNK         0.3800 
    243 H243      -10.4255  -21.4742  -52.8776 H         1 UNK         0.3800 
    244 H244       -6.9496  -21.3788  -50.3975 H         1 UNK         0.0800 
    245 H245       -7.5701  -19.9525  -49.6158 H         1 UNK         0.0800 
    246 H246       -6.9045  -17.7098  -49.8156 H         1 UNK         0.0800 
    247 H247       -5.6078  -17.0500  -50.7657 H         1 UNK         0.0800 
@<TRIPOS>BOND
     1    1    2 1    
     2    1  127 1    
     3    1  128 1    
     4    1  129 1    
     5    2    3 2    
     6    2    4 am   BACKBONE|DICT|INTERRES
     7    4    5 1    
     8    4  130 1    
     9    5    6 1    
    10    5   65 1    
    11    5  131 1    
    12    6    7 1    
    13    6  132 1    
    14    6  133 1    
    15    7    8 1    
    16    8    9 1    
    17    8  134 1    
    18    8  135 1    
    19    9   10 ar   
    20    9   14 ar   
    21   10   11 ar   
    22   10  136 1    
    23   11   12 ar   
    24   11  126 1    
    25   12   13 ar   
    26   12  137 1    
    27   13   14 ar   
    28   13   15 1    
    29   14  138 1    
    30   15   16 1    
    31   15  139 1    
    32   15  140 1    
    33   16   17 1    
    34   17   18 1    
    35   17  141 1    
    36   17  142 1    
    37   18   19 1    
    38   18   67 1    
    39   18  143 1    
    40   19   20 am   BACKBONE|DICT|INTERRES
    41   19  144 1    
    42   20   21 2    
    43   20   22 1    
    44   22   23 1    
    45   22   24 1    
    46   22  145 1    
    47   23  146 1    
    48   23  147 1    
    49   23  148 1    
    50   24   25 am   BACKBONE|DICT|INTERRES
    51   24  149 1    
    52   25   26 2    
    53   25   27 1    
    54   27   28 1    
    55   27   29 1    
    56   27  150 1    
    57   28  151 1    
    58   28  152 1    
    59   28  153 1    
    60   29   30 am   BACKBONE|DICT|INTERRES
    61   29  154 1    
    62   30   31 2    
    63   30   32 1    
    64   32   33 1    
    65   32   34 1    
    66   32  155 1    
    67   33  156 1    
    68   33  157 1    
    69   33  158 1    
    70   34   35 am   BACKBONE|DICT|INTERRES
    71   34  159 1    
    72   35   36 2    
    73   35   37 1    
    74   37   38 1    
    75   37   39 1    
    76   37  160 1    
    77   38  161 1    
    78   38  162 1    
    79   38  163 1    
    80   39   40 am   BACKBONE|DICT|INTERRES
    81   39  164 1    
    82   40   41 2    
    83   40   42 1    
    84   42   43 1    
    85   42   44 1    
    86   42  165 1    
    87   43  166 1    
    88   43  167 1    
    89   43  168 1    
    90   44   45 am   BACKBONE|DICT|INTERRES
    91   44  169 1    
    92   45   46 2    
    93   45   47 1    
    94   47   48 1    
    95   47   49 1    
    96   47  170 1    
    97   48  171 1    
    98   48  172 1    
    99   48  173 1    
   100   49   50 am   BACKBONE|DICT|INTERRES
   101   49  174 1    
   102   50   51 2    
   103   50   52 1    
   104   52   53 1    
   105   52   54 1    
   106   52  175 1    
   107   53  176 1    
   108   53  177 1    
   109   53  178 1    
   110   54   55 am   BACKBONE|DICT|INTERRES
   111   54  179 1    
   112   55   56 2    
   113   55   57 1    
   114   57   58 1    
   115   57   59 1    
   116   57  180 1    
   117   58  181 1    
   118   58  182 1    
   119   58  183 1    
   120   59   60 am   BACKBONE|DICT|INTERRES
   121   59  184 1    
   122   60   61 2    
   123   60   62 1    
   124   62   63 1    
   125   62   64 1    
   126   62  185 1    
   127   63  186 1    
   128   63  187 1    
   129   63  188 1    
   130   64   65 am   BACKBONE|DICT|INTERRES
   131   64  189 1    
   132   65   66 2    
   133   67   68 2    
   134   67   69 am   BACKBONE|DICT|INTERRES
   135   69   70 1    
   136   69  190 1    
   137   70   71 1    
   138   70   72 1    
   139   70  191 1    
   140   71  192 1    
   141   71  193 1    
   142   71  194 1    
   143   72   73 2    
   144   72   74 am   BACKBONE|DICT|INTERRES
   145   74   75 1    
   146   74  195 1    
   147   75   76 1    
   148   75   77 1    
   149   75  196 1    
   150   76  197 1    
   151   76  198 1    
   152   76  199 1    
   153   77   78 2    
   154   77   79 am   BACKBONE|DICT|INTERRES
   155   79   80 1    
   156   79  200 1    
   157   80   81 1    
   158   80   82 1    
   159   80  201 1    
   160   81  202 1    
   161   81  203 1    
   162   81  204 1    
   163   82   83 2    
   164   82   84 am   BACKBONE|DICT|INTERRES
   165   84   85 1    
   166   84  205 1    
   167   85   86 1    
   168   85   87 1    
   169   85  206 1    
   170   86  207 1    
   171   86  208 1    
   172   86  209 1    
   173   87   88 2    
   174   87   89 am   BACKBONE|DICT|INTERRES
   175   89   90 1    
   176   89  210 1    
   177   90   91 1    
   178   90   92 1    
   179   90  211 1    
   180   91  212 1    
   181   91  213 1    
   182   91  214 1    
   183   92   93 2    
   184   92   94 am   BACKBONE|DICT|INTERRES
   185   94   95 1    
   186   94  215 1    
   187   95   96 1    
   188   95   97 1    
   189   95  216 1    
   190   96  217 1    
   191   96  218 1    
   192   96  219 1    
   193   97   98 2    
   194   97   99 am   BACKBONE|DICT|INTERRES
   195   99  100 1    
   196   99  220 1    
   197  100  101 1    
   198  100  102 1    
   199  100  221 1    
   200  101  222 1    
   201  101  223 1    
   202  101  224 1    
   203  102  103 2    
   204  102  104 am   BACKBONE|DICT|INTERRES
   205  104  105 1    
   206  104  225 1    
   207  105  106 1    
   208  105  107 1    
   209  105  226 1    
   210  106  227 1    
   211  106  228 1    
   212  106  229 1    
   213  107  108 2    
   214  107  109 am   BACKBONE|DICT|INTERRES
   215  109  110 1    
   216  109  230 1    
   217  110  111 1    
   218  110  112 1    
   219  110  231 1    
   220  111  232 1    
   221  111  233 1    
   222  111  234 1    
   223  112  113 2    
   224  112  114 am   BACKBONE|DICT|INTERRES
   225  114  115 1    
   226  114  235 1    
   227  115  116 1    
   228  115  117 1    
   229  115  236 1    
   230  116  237 1    
   231  116  238 1    
   232  116  239 1    
   233  117  118 2    
   234  117  119 am   BACKBONE|DICT|INTERRES
   235  119  120 1    
   236  119  240 1    
   237  120  121 1    
   238  120  124 1    
   239  120  241 1    
   240  121  122 am   BACKBONE|DICT|INTERRES
   241  121  123 2    
   242  122  242 1    
   243  122  243 1    
   244  124  125 1    
   245  124  244 1    
   246  124  245 1    
   247  125  126 1    
   248  126  246 1    
   249  126  247 1    
@<TRIPOS>SUBSTRUCTURE
     1 UNK         1 GROUP             0       ****    0 ROOT    
