@<TRIPOS>MOLECULE
3R540
247   249    1
SMALL
USER_CHARGES


@<TRIPOS>ATOM
      1 CA         -0.5089  -12.2072  -49.9956 C.3       0 UNK        -0.1800 
      2 C           0.2768  -13.2375  -49.1980 C.2       0 UNK         0.5000 
      3 O           1.0445  -12.8727  -48.3091 O.2       0 UNK        -0.5000 
      4 N           0.0676  -14.5228  -49.4983 N.am      1 UNK        -0.5000 
      5 CA          0.6325  -15.6602  -48.7633 C.3       1 UNK         0.1400 
      6 C6          0.7750  -16.9125  -49.6576 C.3       23 UNK        -0.0398 
      7 S7          1.9992  -16.6697  -50.9841 S.3       23 UNK        -0.2404 
      8 C8          1.6455  -18.0958  -52.0634 C.3       23 UNK        -0.0205 
      9 C9          1.7299  -19.4474  -51.3586 C.ar      23 UNK        -0.0193 
     10 C10         0.7084  -20.3872  -51.5377 C.ar      23 UNK        -0.1150 
     11 C11         0.7827  -21.6435  -50.9298 C.ar      23 UNK        -0.0193 
     12 C12         1.8840  -21.9544  -50.1322 C.ar      23 UNK        -0.1150 
     13 C13         2.8929  -21.0145  -49.9098 C.ar      23 UNK        -0.0193 
     14 C14         2.8228  -19.7710  -50.5441 C.ar      23 UNK        -0.1150 
     15 C15         4.0414  -21.3465  -48.9660 C.3       23 UNK        -0.0205 
     16 S16         3.8141  -20.6430  -47.2933 S.3       23 UNK        -0.2404 
     17 C17         2.1971  -21.3206  -46.7873 C.3       23 UNK        -0.0398 
     18 CA          2.2920  -22.7363  -46.1589 C.3       11 UNK         0.1400 
     19 N           2.5075  -22.6611  -44.7121 N.am      11 UNK        -0.5000 
     20 C           2.8226  -23.6936  -43.9198 C.2       10 UNK         0.5000 
     21 O           3.0725  -24.8262  -44.3332 O.2       10 UNK        -0.5000 
     22 CA          2.8161  -23.4173  -42.4046 C.3       10 UNK         0.1400 
     23 CB          4.1341  -22.7692  -41.9540 C.3       10 UNK        -0.1800 
     24 N           1.6864  -22.5749  -42.0029 N.am      10 UNK        -0.5000 
     25 C           0.4050  -22.9716  -42.0250 C.2       9 UNK         0.5000 
     26 O           0.0464  -24.1082  -42.3325 O.2       9 UNK        -0.5000 
     27 CA         -0.6618  -21.9220  -41.6669 C.3       9 UNK         0.1400 
     28 CB         -0.8706  -21.8681  -40.1463 C.3       9 UNK        -0.1800 
     29 N          -0.3381  -20.5850  -42.1634 N.am      9 UNK        -0.5000 
     30 C          -0.3103  -20.2332  -43.4570 C.2       8 UNK         0.5000 
     31 O          -0.5946  -20.9914  -44.3839 O.2       8 UNK        -0.5000 
     32 CA          0.1555  -18.8033  -43.7750 C.3       8 UNK         0.1400 
     33 CB         -0.9910  -17.8105  -43.5594 C.3       8 UNK        -0.1800 
     34 N           1.3119  -18.3926  -42.9808 N.am      8 UNK        -0.5000 
     35 C           2.5045  -19.0029  -42.9849 C.2       7 UNK         0.5000 
     36 O           2.7687  -19.9886  -43.6721 O.2       7 UNK        -0.5000 
     37 CA          3.5598  -18.4508  -42.0150 C.3       7 UNK         0.1400 
     38 CB          4.2578  -17.2165  -42.6060 C.3       7 UNK        -0.1800 
     39 N           2.9640  -18.1117  -40.7235 N.am      7 UNK        -0.5000 
     40 C           2.6076  -19.0134  -39.7989 C.2       6 UNK         0.5000 
     41 O           2.7880  -20.2254  -39.9211 O.2       6 UNK        -0.5000 
     42 CA          1.9047  -18.4716  -38.5391 C.3       6 UNK         0.1400 
     43 CB          2.9358  -17.9681  -37.5179 C.3       6 UNK        -0.1800 
     44 N           0.9472  -17.4014  -38.8287 N.am      6 UNK        -0.5000 
     45 C          -0.1821  -17.5728  -39.5293 C.2       5 UNK         0.5000 
     46 O          -0.5345  -18.6538  -39.9988 O.2       5 UNK        -0.5000 
     47 CA         -1.0519  -16.3257  -39.7810 C.3       5 UNK         0.1400 
     48 CB         -1.9781  -16.0735  -38.5816 C.3       5 UNK        -0.1800 
     49 N          -0.3277  -15.0882  -40.0979 N.am      5 UNK        -0.5000 
     50 C           0.6622  -14.9428  -40.9904 C.2       4 UNK         0.5000 
     51 O           1.2080  -15.8802  -41.5725 O.2       4 UNK        -0.5000 
     52 CA          1.0701  -13.4914  -41.3055 C.3       4 UNK         0.1400 
     53 CB          2.5776  -13.3489  -41.6041 C.3       4 UNK        -0.1800 
     54 N           0.2407  -12.9458  -42.3887 N.am      4 UNK        -0.5000 
     55 C           0.1877  -13.3606  -43.6643 C.2       3 UNK         0.5000 
     56 O           0.9516  -14.1891  -44.1622 O.2       3 UNK        -0.5000 
     57 CA         -0.8960  -12.7111  -44.5466 C.3       3 UNK         0.1400 
     58 CB         -0.3449  -11.4649  -45.2562 C.3       3 UNK        -0.1800 
     59 N          -1.3801  -13.6571  -45.5519 N.am      3 UNK        -0.5000 
     60 C          -2.1879  -14.6940  -45.2885 C.2       2 UNK         0.5000 
     61 O          -2.7341  -14.8648  -44.1979 O.2       2 UNK        -0.5000 
     62 CA         -2.4365  -15.7143  -46.4203 C.3       2 UNK         0.1400 
     63 CB         -3.8671  -15.5949  -46.9635 C.3       2 UNK        -0.1800 
     64 N          -1.4994  -15.5968  -47.5368 N.am      2 UNK        -0.5000 
     65 C          -0.2147  -15.9821  -47.5153 C.2       1 UNK         0.5000 
     66 O           0.3059  -16.5624  -46.5648 O.2       1 UNK        -0.5000 
     67 C           1.0313  -23.5518  -46.5239 C.2       11 UNK         0.5000 
     68 O           1.0270  -24.2137  -47.5615 O.2       11 UNK        -0.5000 
     69 N          -0.0183  -23.4415  -45.6951 N.am      12 UNK        -0.5000 
     70 CA         -1.4092  -23.8242  -45.9663 C.3       12 UNK         0.1400 
     71 CB         -1.5562  -25.3475  -46.1608 C.3       12 UNK        -0.1800 
     72 C          -1.9854  -22.9877  -47.1300 C.2       12 UNK         0.5000 
     73 O          -2.5931  -23.5283  -48.0550 O.2       12 UNK        -0.5000 
     74 N          -1.7193  -21.6764  -47.0779 N.am      13 UNK        -0.5000 
     75 CA         -2.0323  -20.7110  -48.1272 C.3       13 UNK         0.1400 
     76 CB         -1.1386  -19.4763  -47.9355 C.3       13 UNK        -0.1800 
     77 C          -3.5098  -20.2850  -48.1501 C.2       13 UNK         0.5000 
     78 O          -4.1964  -20.3434  -47.1276 O.2       13 UNK        -0.5000 
     79 N          -3.9327  -19.7843  -49.3149 N.am      14 UNK        -0.5000 
     80 CA         -5.1676  -19.0443  -49.5324 C.3       14 UNK         0.1400 
     81 CB         -6.2565  -19.9674  -50.1039 C.3       14 UNK        -0.1800 
     82 C          -4.8155  -17.9225  -50.5156 C.2       14 UNK         0.5000 
     83 O          -4.2077  -18.2101  -51.5525 O.2       14 UNK        -0.5000 
     84 N          -5.1714  -16.6795  -50.1614 N.am      15 UNK        -0.5000 
     85 CA         -4.8681  -15.4318  -50.8737 C.3       15 UNK         0.1400 
     86 CB         -5.7815  -15.2980  -52.1105 C.3       15 UNK        -0.1800 
     87 C          -3.3615  -15.3021  -51.1929 C.2       15 UNK         0.5000 
     88 O          -2.5426  -15.3664  -50.2749 O.2       15 UNK        -0.5000 
     89 N          -3.0222  -15.1649  -52.4777 N.am      16 UNK        -0.5000 
     90 CA         -1.6726  -15.2548  -53.0222 C.3       16 UNK         0.1400 
     91 CB         -1.2845  -13.9025  -53.6472 C.3       16 UNK        -0.1800 
     92 C          -1.6565  -16.4171  -54.0295 C.2       16 UNK         0.5000 
     93 O          -1.4316  -16.2014  -55.2208 O.2       16 UNK        -0.5000 
     94 N          -1.9455  -17.6225  -53.5167 N.am      17 UNK        -0.5000 
     95 CA         -2.1053  -18.8883  -54.2388 C.3       17 UNK         0.1400 
     96 CB         -0.8469  -19.2667  -55.0519 C.3       17 UNK        -0.1800 
     97 C          -3.4020  -18.9095  -55.0681 C.2       17 UNK         0.5000 
     98 O          -3.3667  -19.0731  -56.2894 O.2       17 UNK        -0.5000 
     99 N          -4.5358  -18.7569  -54.3709 N.am      18 UNK        -0.5000 
    100 CA        -5.8710  -19.0263  -54.9078 C.3       18 UNK         0.1400 
    101 CB        -6.9334  -18.4986  -53.9297 C.3       18 UNK        -0.1800 
    102 C         -6.0879  -20.5309  -55.1544 C.2       18 UNK         0.5000 
    103 O         -5.4128  -21.3639  -54.5413 O.2       18 UNK        -0.5000 
    104 N         -7.0683  -20.8561  -56.0074 N.am      19 UNK        -0.5000 
    105 CA        -7.4539  -22.2219  -56.3894 C.3       19 UNK         0.1400 
    106 CB        -8.5168  -22.1436  -57.4963 C.3       19 UNK        -0.1800 
    107 C         -7.9520  -23.1039  -55.2236 C.2       19 UNK         0.5000 
    108 O         -7.9752  -24.3277  -55.3564 O.2       19 UNK        -0.5000 
    109 N         -8.3159  -22.4735  -54.0982 N.am      20 UNK        -0.5000 
    110 CA        -8.6229  -23.1228  -52.8234 C.3       20 UNK         0.1400 
    111 CB        -9.2676  -22.0857  -51.8901 C.3       20 UNK        -0.1800 
    112 C         -7.3907  -23.7618  -52.1456 C.2       20 UNK         0.5000 
    113 O         -7.5658  -24.6213  -51.2805 O.2       20 UNK        -0.5000 
    114 N         -6.1822  -23.3373  -52.5373 N.am      21 UNK        -0.5000 
    115 CA        -4.9069  -23.8493  -52.0548 C.3       21 UNK         0.1400 
    116 CB        -4.3017  -22.8456  -51.0524 C.3       21 UNK        -0.1800 
    117 C         -4.0083  -24.1576  -53.2660 C.2       21 UNK         0.5000 
    118 O         -4.3268  -25.0632  -54.0380 O.2       21 UNK        -0.5000 
    119 N         -2.8969  -23.4256  -53.3982 N.am      22 UNK        -0.5000 
    120 CA        -1.8345  -23.6498  -54.3931 C.3       22 UNK         0.1400 
    121 C         -2.1457  -23.1289  -55.8265 C.2       22 UNK         0.5000 
    122 N         -3.2507  -22.4386  -56.0698 N.am      22 UNK        -0.7600 
    123 O         -1.3654  -23.3636  -56.7451 O.2       22 UNK        -0.5000 
    124 C124       -0.4684  -23.1132  -53.8873 C.3       23 UNK        -0.0398 
    125 S125        0.0633  -23.9239  -52.3399 S.3       23 UNK        -0.2404 
    126 C126       -0.3348  -22.6608  -51.0922 C.3       23 UNK        -0.0205 
    127 H127       -0.9001  -11.4355  -49.3326 H         1 UNK         0.0600 
    128 H128       -1.3526  -12.6611  -50.5156 H         1 UNK         0.0600 
    129 H129        0.1364  -11.7310  -50.7337 H         1 UNK         0.0600 
    130 H130       -0.6463  -14.7603  -50.1775 H         1 UNK         0.3000 
    131 H131        1.6286  -15.3906  -48.4049 H         1 UNK         0.0600 
    132 H132        1.1026  -17.7692  -49.0658 H         1 UNK         0.0800 
    133 H133       -0.1847  -17.1826  -50.1014 H         1 UNK         0.0800 
    134 H134        0.6576  -17.9518  -52.4992 H         1 UNK         0.0800 
    135 H135        2.3518  -18.0913  -52.8943 H         1 UNK         0.0800 
    136 H136       -0.1446  -20.1427  -52.1527 H         1 UNK         0.1150 
    137 H137        1.9371  -22.9229  -49.6554 H         1 UNK         0.1150 
    138 H138        3.6103  -19.0475  -50.3869 H         1 UNK         0.1150 
    139 H139        4.1647  -22.4275  -48.8841 H         1 UNK         0.0800 
    140 H140        4.9751  -20.9670  -49.3834 H         1 UNK         0.0800 
    141 H141        1.7435  -20.6203  -46.0850 H         1 UNK         0.0800 
    142 H142        1.5297  -21.2964  -47.6451 H         1 UNK         0.0800 
    143 H143        3.1407  -23.2657  -46.5971 H         1 UNK         0.0600 
    144 H144        2.4100  -21.7409  -44.2896 H         1 UNK         0.3000 
    145 H145        2.7212  -24.3768  -41.8917 H         1 UNK         0.0600 
    146 H146        4.1504  -22.6198  -40.8743 H         1 UNK         0.0600 
    147 H147        4.2939  -21.8005  -42.4271 H         1 UNK         0.0600 
    148 H148        4.9854  -23.4018  -42.2082 H         1 UNK         0.0600 
    149 H149        1.9009  -21.6269  -41.7234 H         1 UNK         0.3000 
    150 H150       -1.6012  -22.2335  -42.1286 H         1 UNK         0.0600 
    151 H151       -1.1121  -22.8543  -39.7477 H         1 UNK         0.0600 
    152 H152       -1.6938  -21.2026  -39.8859 H         1 UNK         0.0600 
    153 H153        0.0227  -21.5129  -39.6306 H         1 UNK         0.0600 
    154 H154       -0.1522  -19.8764  -41.4590 H         1 UNK         0.3000 
    155 H155        0.4473  -18.7691  -44.8265 H         1 UNK         0.0600 
    156 H156       -1.3325  -17.8089  -42.5260 H         1 UNK         0.0600 
    157 H157       -1.8479  -18.0653  -44.1828 H         1 UNK         0.0600 
    158 H158       -0.6809  -16.7967  -43.8125 H         1 UNK         0.0600 
    159 H159        1.2027  -17.5564  -42.4115 H         1 UNK         0.3000 
    160 H160        4.3150  -19.2245  -41.8604 H         1 UNK         0.0600 
    161 H161        3.5541  -16.4072  -42.8032 H         1 UNK         0.0600 
    162 H162        4.7450  -17.4623  -43.5504 H         1 UNK         0.0600 
    163 H163        5.0257  -16.8368  -41.9321 H         1 UNK         0.0600 
    164 H164        2.6807  -17.1482  -40.5989 H         1 UNK         0.3000 
    165 H165        1.3558  -19.3004  -38.0867 H         1 UNK         0.0600 
    166 H166        2.4541  -17.6635  -36.5886 H         1 UNK         0.0600 
    167 H167        3.6531  -18.7515  -37.2692 H         1 UNK         0.0600 
    168 H168        3.4994  -17.1160  -37.8998 H         1 UNK         0.0600 
    169 H169        1.1713  -16.4774  -38.4903 H         1 UNK         0.3000 
    170 H170       -1.6839  -16.5437  -40.6426 H         1 UNK         0.0600 
    171 H171       -2.5484  -16.9694  -38.3315 H         1 UNK         0.0600 
    172 H172       -1.4158  -15.7835  -37.6931 H         1 UNK         0.0600 
    173 H173       -2.6980  -15.2836  -38.7967 H         1 UNK         0.0600 
    174 H174       -0.7017  -14.2526  -39.6722 H         1 UNK         0.3000 
    175 H175        0.8621  -12.8880  -40.4205 H         1 UNK         0.0600 
    176 H176        2.8921  -13.9472  -42.4592 H         1 UNK         0.0600 
    177 H177        2.8415  -12.3113  -41.8079 H         1 UNK         0.0600 
    178 H178        3.1716  -13.6747  -40.7496 H         1 UNK         0.0600 
    179 H179       -0.4298  -12.2486  -42.0963 H         1 UNK         0.3000 
    180 H180       -1.7363  -12.4098  -43.9174 H         1 UNK         0.0600 
    181 H181       -1.1012  -11.0035  -45.8915 H         1 UNK         0.0600 
    182 H182        0.5164  -11.7059  -45.8803 H         1 UNK         0.0600 
    183 H183       -0.0245  -10.7139  -44.5332 H         1 UNK         0.0600 
    184 H184       -0.9251  -13.6253  -46.4520 H         1 UNK         0.3000 
    185 H185       -2.3271  -16.7102  -45.9900 H         1 UNK         0.0600 
    186 H186       -4.0816  -16.4095  -47.6532 H         1 UNK         0.0600 
    187 H187       -4.6017  -15.6518  -46.1592 H         1 UNK         0.0600 
    188 H188       -4.0227  -14.6522  -47.4895 H         1 UNK         0.0600 
    189 H189       -1.8661  -15.2035  -48.3973 H         1 UNK         0.3000 
    190 H190        0.0901  -22.8211  -44.9009 H         1 UNK         0.3000 
    191 H191       -1.9793  -23.5499  -45.0774 H         1 UNK         0.0600 
    192 H192       -2.6080  -25.6295  -46.2183 H         1 UNK         0.0600 
    193 H193       -1.1175  -25.8940  -45.3259 H         1 UNK         0.0600 
    194 H194       -1.0784  -25.6930  -47.0776 H         1 UNK         0.0600 
    195 H195       -1.2780  -21.3143  -46.2390 H         1 UNK         0.3000 
    196 H196       -1.7949  -21.1618  -49.0918 H         1 UNK         0.0600 
    197 H197       -1.2536  -19.0466  -46.9394 H         1 UNK         0.0600 
    198 H198       -0.0874  -19.7210  -48.0772 H         1 UNK         0.0600 
    199 H199       -1.3857  -18.6968  -48.6561 H         1 UNK         0.0600 
    200 H200       -3.2946  -19.7332  -50.0973 H         1 UNK         0.3000 
    201 H201       -5.5159  -18.6096  -48.5930 H         1 UNK         0.0600 
    202 H202       -7.1911  -19.4234  -50.2442 H         1 UNK         0.0600 
    203 H203       -6.4620  -20.7991  -49.4299 H         1 UNK         0.0600 
    204 H204       -5.9725  -20.3825  -51.0713 H         1 UNK         0.0600 
    205 H205       -5.6545  -16.5577  -49.2833 H         1 UNK         0.3000 
    206 H206       -5.1075  -14.6162  -50.1900 H         1 UNK         0.0600 
    207 H207       -6.8294  -15.4320  -51.8416 H         1 UNK         0.0600 
    208 H208       -5.6911  -14.3095  -52.5628 H         1 UNK         0.0600 
    209 H209       -5.5373  -16.0374  -52.8717 H         1 UNK         0.0600 
    210 H210       -3.7650  -15.1507  -53.1625 H         1 UNK         0.3000 
    211 H211       -0.9464  -15.4938  -52.2428 H         1 UNK         0.0600 
    212 H212       -1.9642  -13.6191  -54.4518 H         1 UNK         0.0600 
    213 H213       -0.2768  -13.9399  -54.0626 H         1 UNK         0.0600 
    214 H214       -1.2996  -13.1058  -52.9044 H         1 UNK         0.0600 
    215 H215       -2.2338  -17.6536  -52.5469 H         1 UNK         0.3000 
    216 H216       -2.2295  -19.6565  -53.4741 H         1 UNK         0.0600 
    217 H217        0.0456  -19.2832  -54.4285 H         1 UNK         0.0600 
    218 H218       -0.6652  -18.5784  -55.8770 H         1 UNK         0.0600 
    219 H219       -0.9551  -20.2600  -55.4880 H         1 UNK         0.0600 
    220 H220       -4.4703  -18.6192  -53.3656 H         1 UNK         0.3000 
    221 H221       -5.9785  -18.5038  -55.8606 H         1 UNK         0.0600 
    222 H222       -6.9351  -17.4111  -53.9042 H         1 UNK         0.0600 
    223 H223       -7.9381  -18.8011  -54.2275 H         1 UNK         0.0600 
    224 H224       -6.7693  -18.8642  -52.9160 H         1 UNK         0.0600 
    225 H225       -7.5862  -20.1130  -56.4544 H         1 UNK         0.3000 
    226 H226       -6.5675  -22.7100  -56.8000 H         1 UNK         0.0600 
    227 H227       -8.1421  -21.6050  -58.3669 H         1 UNK         0.0600 
    228 H228       -8.8060  -23.1399  -57.8338 H         1 UNK         0.0600 
    229 H229       -9.4201  -21.6393  -57.1506 H         1 UNK         0.0600 
    230 H230       -8.2795  -21.4657  -54.0918 H         1 UNK         0.3000 
    231 H231       -9.3471  -23.9186  -53.0092 H         1 UNK         0.0600 
    232 H232       -9.5354  -22.5338  -50.9323 H         1 UNK         0.0600 
    233 H233      -10.1813  -21.6783  -52.3232 H         1 UNK         0.0600 
    234 H234       -8.5920  -21.2543  -51.6856 H         1 UNK         0.0600 
    235 H235       -6.1154  -22.6525  -53.2849 H         1 UNK         0.3000 
    236 H236       -5.0506  -24.7988  -51.5354 H         1 UNK         0.0600 
    237 H237       -4.1321  -21.8670  -51.5024 H         1 UNK         0.0600 
    238 H238       -4.9627  -22.7067  -50.1970 H         1 UNK         0.0600 
    239 H239       -3.3535  -23.2103  -50.6575 H         1 UNK         0.0600 
    240 H240       -2.7352  -22.6861  -52.7349 H         1 UNK         0.3000 
    241 H241       -1.7274  -24.7303  -54.5076 H         1 UNK         0.0600 
    242 H242       -3.9199  -22.2245  -55.3373 H         1 UNK         0.3800 
    243 H243       -3.4168  -22.1019  -57.0039 H         1 UNK         0.3800 
    244 H244       -0.5025  -22.0323  -53.7505 H         1 UNK         0.0800 
    245 H245        0.3128  -23.2975  -54.6268 H         1 UNK         0.0800 
    246 H246       -1.2701  -22.1625  -51.3441 H         1 UNK         0.0800 
    247 H247       -0.5063  -23.1609  -50.1371 H         1 UNK         0.0800 
@<TRIPOS>BOND
     1    1    2 1    
     2    1  127 1    
     3    1  128 1    
     4    1  129 1    
     5    2    3 2    
     6    2    4 am   BACKBONE|DICT|INTERRES
     7    4    5 1    
     8    4  130 1    
     9    5    6 1    
    10    5   65 1    
    11    5  131 1    
    12    6    7 1    
    13    6  132 1    
    14    6  133 1    
    15    7    8 1    
    16    8    9 1    
    17    8  134 1    
    18    8  135 1    
    19    9   10 ar   
    20    9   14 ar   
    21   10   11 ar   
    22   10  136 1    
    23   11   12 ar   
    24   11  126 1    
    25   12   13 ar   
    26   12  137 1    
    27   13   14 ar   
    28   13   15 1    
    29   14  138 1    
    30   15   16 1    
    31   15  139 1    
    32   15  140 1    
    33   16   17 1    
    34   17   18 1    
    35   17  141 1    
    36   17  142 1    
    37   18   19 1    
    38   18   67 1    
    39   18  143 1    
    40   19   20 am   BACKBONE|DICT|INTERRES
    41   19  144 1    
    42   20   21 2    
    43   20   22 1    
    44   22   23 1    
    45   22   24 1    
    46   22  145 1    
    47   23  146 1    
    48   23  147 1    
    49   23  148 1    
    50   24   25 am   BACKBONE|DICT|INTERRES
    51   24  149 1    
    52   25   26 2    
    53   25   27 1    
    54   27   28 1    
    55   27   29 1    
    56   27  150 1    
    57   28  151 1    
    58   28  152 1    
    59   28  153 1    
    60   29   30 am   BACKBONE|DICT|INTERRES
    61   29  154 1    
    62   30   31 2    
    63   30   32 1    
    64   32   33 1    
    65   32   34 1    
    66   32  155 1    
    67   33  156 1    
    68   33  157 1    
    69   33  158 1    
    70   34   35 am   BACKBONE|DICT|INTERRES
    71   34  159 1    
    72   35   36 2    
    73   35   37 1    
    74   37   38 1    
    75   37   39 1    
    76   37  160 1    
    77   38  161 1    
    78   38  162 1    
    79   38  163 1    
    80   39   40 am   BACKBONE|DICT|INTERRES
    81   39  164 1    
    82   40   41 2    
    83   40   42 1    
    84   42   43 1    
    85   42   44 1    
    86   42  165 1    
    87   43  166 1    
    88   43  167 1    
    89   43  168 1    
    90   44   45 am   BACKBONE|DICT|INTERRES
    91   44  169 1    
    92   45   46 2    
    93   45   47 1    
    94   47   48 1    
    95   47   49 1    
    96   47  170 1    
    97   48  171 1    
    98   48  172 1    
    99   48  173 1    
   100   49   50 am   BACKBONE|DICT|INTERRES
   101   49  174 1    
   102   50   51 2    
   103   50   52 1    
   104   52   53 1    
   105   52   54 1    
   106   52  175 1    
   107   53  176 1    
   108   53  177 1    
   109   53  178 1    
   110   54   55 am   BACKBONE|DICT|INTERRES
   111   54  179 1    
   112   55   56 2    
   113   55   57 1    
   114   57   58 1    
   115   57   59 1    
   116   57  180 1    
   117   58  181 1    
   118   58  182 1    
   119   58  183 1    
   120   59   60 am   BACKBONE|DICT|INTERRES
   121   59  184 1    
   122   60   61 2    
   123   60   62 1    
   124   62   63 1    
   125   62   64 1    
   126   62  185 1    
   127   63  186 1    
   128   63  187 1    
   129   63  188 1    
   130   64   65 am   BACKBONE|DICT|INTERRES
   131   64  189 1    
   132   65   66 2    
   133   67   68 2    
   134   67   69 am   BACKBONE|DICT|INTERRES
   135   69   70 1    
   136   69  190 1    
   137   70   71 1    
   138   70   72 1    
   139   70  191 1    
   140   71  192 1    
   141   71  193 1    
   142   71  194 1    
   143   72   73 2    
   144   72   74 am   BACKBONE|DICT|INTERRES
   145   74   75 1    
   146   74  195 1    
   147   75   76 1    
   148   75   77 1    
   149   75  196 1    
   150   76  197 1    
   151   76  198 1    
   152   76  199 1    
   153   77   78 2    
   154   77   79 am   BACKBONE|DICT|INTERRES
   155   79   80 1    
   156   79  200 1    
   157   80   81 1    
   158   80   82 1    
   159   80  201 1    
   160   81  202 1    
   161   81  203 1    
   162   81  204 1    
   163   82   83 2    
   164   82   84 am   BACKBONE|DICT|INTERRES
   165   84   85 1    
   166   84  205 1    
   167   85   86 1    
   168   85   87 1    
   169   85  206 1    
   170   86  207 1    
   171   86  208 1    
   172   86  209 1    
   173   87   88 2    
   174   87   89 am   BACKBONE|DICT|INTERRES
   175   89   90 1    
   176   89  210 1    
   177   90   91 1    
   178   90   92 1    
   179   90  211 1    
   180   91  212 1    
   181   91  213 1    
   182   91  214 1    
   183   92   93 2    
   184   92   94 am   BACKBONE|DICT|INTERRES
   185   94   95 1    
   186   94  215 1    
   187   95   96 1    
   188   95   97 1    
   189   95  216 1    
   190   96  217 1    
   191   96  218 1    
   192   96  219 1    
   193   97   98 2    
   194   97   99 am   BACKBONE|DICT|INTERRES
   195   99  100 1    
   196   99  220 1    
   197  100  101 1    
   198  100  102 1    
   199  100  221 1    
   200  101  222 1    
   201  101  223 1    
   202  101  224 1    
   203  102  103 2    
   204  102  104 am   BACKBONE|DICT|INTERRES
   205  104  105 1    
   206  104  225 1    
   207  105  106 1    
   208  105  107 1    
   209  105  226 1    
   210  106  227 1    
   211  106  228 1    
   212  106  229 1    
   213  107  108 2    
   214  107  109 am   BACKBONE|DICT|INTERRES
   215  109  110 1    
   216  109  230 1    
   217  110  111 1    
   218  110  112 1    
   219  110  231 1    
   220  111  232 1    
   221  111  233 1    
   222  111  234 1    
   223  112  113 2    
   224  112  114 am   BACKBONE|DICT|INTERRES
   225  114  115 1    
   226  114  235 1    
   227  115  116 1    
   228  115  117 1    
   229  115  236 1    
   230  116  237 1    
   231  116  238 1    
   232  116  239 1    
   233  117  118 2    
   234  117  119 am   BACKBONE|DICT|INTERRES
   235  119  120 1    
   236  119  240 1    
   237  120  121 1    
   238  120  124 1    
   239  120  241 1    
   240  121  122 am   BACKBONE|DICT|INTERRES
   241  121  123 2    
   242  122  242 1    
   243  122  243 1    
   244  124  125 1    
   245  124  244 1    
   246  124  245 1    
   247  125  126 1    
   248  126  246 1    
   249  126  247 1    
@<TRIPOS>SUBSTRUCTURE
     1 UNK         1 GROUP             0       ****    0 ROOT    
