@<TRIPOS>MOLECULE
3R540
247   249    1
SMALL
USER_CHARGES


@<TRIPOS>ATOM
      1 CA         -1.8999  -10.9353  -48.9225 C.3       0 UNK        -0.1800 
      2 C          -0.9092  -11.8595  -48.2307 C.2       0 UNK         0.5000 
      3 O          -1.0208  -12.0841  -47.0264 O.2       0 UNK        -0.5000 
      4 N           0.0459  -12.4156  -48.9872 N.am      1 UNK        -0.5000 
      5 CA          1.1061  -13.3095  -48.4999 C.3       1 UNK         0.1400 
      6 C6          2.1296  -13.6053  -49.6239 C.3       23 UNK        -0.0398 
      7 S7          3.7002  -14.3009  -49.0064 S.3       23 UNK        -0.2404 
      8 C8          4.0927  -15.5420  -50.2838 C.3       23 UNK        -0.0205 
      9 C9          3.0385  -16.6355  -50.4108 C.ar      23 UNK        -0.0193 
     10 C10         2.4123  -16.8696  -51.6390 C.ar      23 UNK        -0.1150 
     11 C11         1.4686  -17.8928  -51.7745 C.ar      23 UNK        -0.0193 
     12 C12         1.1387  -18.6765  -50.6654 C.ar      23 UNK        -0.1150 
     13 C13         1.7512  -18.4448  -49.4310 C.ar      23 UNK        -0.0193 
     14 C14         2.7033  -17.4293  -49.3109 C.ar      23 UNK        -0.1150 
     15 C15         1.3745  -19.2683  -48.2142 C.3       23 UNK        -0.0205 
     16 S16         2.5113  -20.6641  -47.9521 S.3       23 UNK        -0.2404 
     17 C17         1.7840  -21.9752  -48.9953 C.3       23 UNK        -0.0398 
     18 CA          0.8269  -22.9504  -48.2563 C.3       11 UNK         0.1400 
     19 N           1.2905  -23.3320  -46.9171 N.am      11 UNK        -0.5000 
     20 C           0.8123  -24.3648  -46.2078 C.2       10 UNK         0.5000 
     21 O          -0.1041  -25.0834  -46.6042 O.2       10 UNK        -0.5000 
     22 CA          1.4509  -24.6565  -44.8367 C.3       10 UNK         0.1400 
     23 CB          2.4486  -25.8186  -44.9546 C.3       10 UNK        -0.1800 
     24 N           2.1444  -23.4914  -44.2885 N.am      10 UNK        -0.5000 
     25 C           1.5799  -22.5710  -43.4962 C.2       9 UNK         0.5000 
     26 O           0.4377  -22.6713  -43.0426 O.2       9 UNK        -0.5000 
     27 CA          2.4278  -21.3212  -43.1550 C.3       9 UNK         0.1400 
     28 CB          3.7641  -21.2421  -43.9266 C.3       9 UNK        -0.1800 
     29 N           1.7110  -20.0520  -43.3265 N.am      9 UNK        -0.5000 
     30 C           0.9443  -19.6779  -44.3635 C.2       8 UNK         0.5000 
     31 O           0.6094  -20.4160  -45.2902 O.2       8 UNK        -0.5000 
     32 CA          0.4978  -18.2051  -44.3831 C.3       8 UNK         0.1400 
     33 CB         -0.7245  -18.0006  -43.4750 C.3       8 UNK        -0.1800 
     34 N           1.5410  -17.2523  -43.9966 N.am      8 UNK        -0.5000 
     35 C           2.7673  -17.1305  -44.5292 C.2       7 UNK         0.5000 
     36 O           3.2098  -17.8604  -45.4154 O.2       7 UNK        -0.5000 
     37 CA          3.6717  -16.0161  -43.9679 C.3       7 UNK         0.1400 
     38 CB          3.7084  -14.8063  -44.9141 C.3       7 UNK        -0.1800 
     39 N           3.2406  -15.5568  -42.6462 N.am      7 UNK        -0.5000 
     40 C           3.8639  -15.8340  -41.4937 C.2       6 UNK         0.5000 
     41 O           4.8782  -16.5282  -41.4139 O.2       6 UNK        -0.5000 
     42 CA          3.2689  -15.2267  -40.2063 C.3       6 UNK         0.1400 
     43 CB          3.9931  -13.9196  -39.8485 C.3       6 UNK        -0.1800 
     44 N           1.8318  -14.9617  -40.2919 N.am      6 UNK        -0.5000 
     45 C           0.8840  -15.9079  -40.3061 C.2       5 UNK         0.5000 
     46 O           1.1202  -17.1128  -40.2132 O.2       5 UNK        -0.5000 
     47 CA         -0.5732  -15.4332  -40.4795 C.3       5 UNK         0.1400 
     48 CB         -1.2325  -15.2272  -39.1074 C.3       5 UNK        -0.1800 
     49 N          -0.7557  -14.2172  -41.2839 N.am      5 UNK        -0.5000 
     50 C          -0.3095  -14.0305  -42.5333 C.2       4 UNK         0.5000 
     51 O           0.4613  -14.7999  -43.1051 O.2       4 UNK        -0.5000 
     52 CA         -0.8124  -12.7829  -43.2787 C.3       4 UNK         0.1400 
     53 CB          0.3643  -11.9438  -43.8023 C.3       4 UNK        -0.1800 
     54 N          -1.6622  -13.1622  -44.4060 N.am      4 UNK        -0.5000 
     55 C          -2.8593  -13.7575  -44.3087 C.2       3 UNK         0.5000 
     56 O          -3.4194  -13.9974  -43.2383 O.2       3 UNK        -0.5000 
     57 CA         -3.5510  -14.1490  -45.6253 C.3       3 UNK         0.1400 
     58 CB         -4.3214  -12.9555  -46.2118 C.3       3 UNK        -0.1800 
     59 N          -2.5963  -14.6469  -46.6166 N.am      3 UNK        -0.5000 
     60 C          -2.2342  -15.9320  -46.7348 C.2       2 UNK         0.5000 
     61 O          -2.6794  -16.8279  -46.0197 O.2       2 UNK        -0.5000 
     62 CA         -1.2381  -16.2997  -47.8539 C.3       2 UNK         0.1400 
     63 CB         -1.9534  -17.0370  -48.9935 C.3       2 UNK        -0.1800 
     64 N          -0.5396  -15.1400  -48.4082 N.am      2 UNK        -0.5000 
     65 C           0.5524  -14.6003  -47.8507 C.2       1 UNK         0.5000 
     66 O           1.0830  -15.0506  -46.8378 O.2       1 UNK        -0.5000 
     67 C          -0.6360  -22.4658  -48.2643 C.2       11 UNK         0.5000 
     68 O          -1.3763  -22.8157  -49.1829 O.2       11 UNK        -0.5000 
     69 N          -1.0563  -21.7254  -47.2290 N.am      12 UNK        -0.5000 
     70 CA         -2.4458  -21.2972  -47.0577 C.3       12 UNK         0.1400 
     71 CB         -2.5276  -20.2281  -45.9642 C.3       12 UNK        -0.1800 
     72 C          -3.3890  -22.4708  -46.7390 C.2       12 UNK         0.5000 
     73 O          -4.5251  -22.4782  -47.2119 O.2       12 UNK        -0.5000 
     74 N          -2.8918  -23.4575  -45.9796 N.am      13 UNK        -0.5000 
     75 CA         -3.6089  -24.6921  -45.6590 C.3       13 UNK         0.1400 
     76 CB         -2.9029  -25.4193  -44.5043 C.3       13 UNK        -0.1800 
     77 C          -3.7578  -25.6082  -46.8871 C.2       13 UNK         0.5000 
     78 O          -4.8272  -26.1850  -47.0835 O.2       13 UNK        -0.5000 
     79 N          -2.7009  -25.6905  -47.7088 N.am      14 UNK        -0.5000 
     80 CA         -2.6880  -26.3988  -48.9898 C.3       14 UNK         0.1400 
     81 CB         -1.2496  -26.4642  -49.5258 C.3       14 UNK        -0.1800 
     82 C          -3.6259  -25.7548  -50.0275 C.2       14 UNK         0.5000 
     83 O          -4.3172  -26.4736  -50.7500 O.2       14 UNK        -0.5000 
     84 N          -3.6498  -24.4147  -50.0630 N.am      15 UNK        -0.5000 
     85 CA         -4.5607  -23.6180  -50.8840 C.3       15 UNK         0.1400 
     86 CB         -4.1350  -22.1444  -50.8171 C.3       15 UNK        -0.1800 
     87 C          -6.0306  -23.7456  -50.4445 C.2       15 UNK         0.5000 
     88 O          -6.9220  -23.7033  -51.2924 O.2       15 UNK        -0.5000 
     89 N          -6.2490  -23.8506  -49.1253 N.am      16 UNK        -0.5000 
     90 CA         -7.5142  -23.9386  -48.3843 C.3       16 UNK         0.1400 
     91 CB         -8.3510  -25.1541  -48.8248 C.3       16 UNK        -0.1800 
     92 C          -8.3395  -22.6376  -48.4149 C.2       16 UNK         0.5000 
     93 O          -8.7761  -22.1673  -47.3644 O.2       16 UNK        -0.5000 
     94 N          -8.5038  -22.0601  -49.6094 N.am      17 UNK        -0.5000 
     95 CA         -9.1406  -20.7659  -49.8597 C.3       17 UNK         0.1400 
     96 CB         -9.7738  -20.8095  -51.2605 C.3       17 UNK        -0.1800 
     97 C          -8.1546  -19.5822  -49.7476 C.2       17 UNK         0.5000 
     98 O          -8.5826  -18.4372  -49.8983 O.2       17 UNK        -0.5000 
     99 N          -6.8687  -19.8863  -49.5041 N.am      18 UNK        -0.5000 
    100 CA        -5.6857  -19.0173  -49.5372 C.3       18 UNK         0.1400 
    101 CB        -5.8496  -17.7685  -48.6477 C.3       18 UNK        -0.1800 
    102 C         -5.2726  -18.6465  -50.9770 C.2       18 UNK         0.5000 
    103 O         -6.1079  -18.5990  -51.8811 O.2       18 UNK        -0.5000 
    104 N         -3.9629  -18.4337  -51.1698 N.am      19 UNK        -0.5000 
    105 CA        -3.2571  -18.0189  -52.3955 C.3       19 UNK         0.1400 
    106 CB        -3.7372  -16.6340  -52.8662 C.3       19 UNK        -0.1800 
    107 C         -3.2631  -19.0293  -53.5642 C.2       19 UNK         0.5000 
    108 O         -2.3159  -19.0342  -54.3508 O.2       19 UNK        -0.5000 
    109 N         -4.2908  -19.8836  -53.6496 N.am      20 UNK        -0.5000 
    110 CA        -4.5250  -20.8722  -54.7089 C.3       20 UNK         0.1400 
    111 CB        -5.8464  -21.6035  -54.4253 C.3       20 UNK        -0.1800 
    112 C         -3.3835  -21.8872  -54.9255 C.2       20 UNK         0.5000 
    113 O         -3.2343  -22.3959  -56.0371 O.2       20 UNK        -0.5000 
    114 N         -2.5688  -22.1286  -53.8876 N.am      21 UNK        -0.5000 
    115 CA        -1.3631  -22.9627  -53.9323 C.3       21 UNK         0.1400 
    116 CB        -0.7931  -23.1114  -52.5123 C.3       21 UNK        -0.1800 
    117 C         -0.2785  -22.4399  -54.8979 C.2       21 UNK         0.5000 
    118 O          0.5233  -23.2373  -55.3860 O.2       21 UNK        -0.5000 
    119 N         -0.2880  -21.1294  -55.1761 N.am      22 UNK        -0.5000 
    120 CA         0.5572  -20.4844  -56.1926 C.3       22 UNK         0.1400 
    121 C         -0.0441  -20.5350  -57.6302 C.2       22 UNK         0.5000 
    122 N         -1.2201  -21.1106  -57.8570 N.am      22 UNK        -0.7600 
    123 O          0.5797  -20.0538  -58.5723 O.2       22 UNK        -0.5000 
    124 C124        0.9351  -19.0363  -55.7882 C.3       23 UNK        -0.0398 
    125 S125        1.9448  -18.9765  -54.2681 S.3       23 UNK        -0.2404 
    126 C126        0.8073  -18.1458  -53.1194 C.3       23 UNK        -0.0205 
    127 H127       -1.8922   -9.9552  -48.4458 H         1 UNK         0.0600 
    128 H128       -1.6623  -10.8023  -49.9781 H         1 UNK         0.0600 
    129 H129       -2.9078  -11.3434  -48.8484 H         1 UNK         0.0600 
    130 H130        0.0770  -12.1940  -49.9723 H         1 UNK         0.3000 
    131 H131        1.6269  -12.7615  -47.7113 H         1 UNK         0.0600 
    132 H132        1.6890  -14.2578  -50.3788 H         1 UNK         0.0800 
    133 H133        2.3842  -12.6810  -50.1442 H         1 UNK         0.0800 
    134 H134        5.0484  -16.0065  -50.0378 H         1 UNK         0.0800 
    135 H135        4.2379  -15.0300  -51.2363 H         1 UNK         0.0800 
    136 H136        2.6684  -16.2668  -52.4991 H         1 UNK         0.1150 
    137 H137        0.4034  -19.4626  -50.7617 H         1 UNK         0.1150 
    138 H138        3.1784  -17.2518  -48.3553 H         1 UNK         0.1150 
    139 H139        1.4139  -18.6300  -47.3319 H         1 UNK         0.0800 
    140 H140        0.3443  -19.6151  -48.2872 H         1 UNK         0.0800 
    141 H141        2.6240  -22.5503  -49.3867 H         1 UNK         0.0800 
    142 H142        1.3109  -21.5375  -49.8756 H         1 UNK         0.0800 
    143 H143        0.8232  -23.8697  -48.8461 H         1 UNK         0.0600 
    144 H144        1.9971  -22.7360  -46.5115 H         1 UNK         0.3000 
    145 H145        0.6517  -24.9655  -44.1597 H         1 UNK         0.0600 
    146 H146        2.8718  -26.0742  -43.9830 H         1 UNK         0.0600 
    147 H147        1.9605  -26.7145  -45.3410 H         1 UNK         0.0600 
    148 H148        3.2725  -25.5775  -45.6274 H         1 UNK         0.0600 
    149 H149        3.0947  -23.3439  -44.5962 H         1 UNK         0.3000 
    150 H150        2.6623  -21.3996  -42.0926 H         1 UNK         0.0600 
    151 H151        4.3967  -22.1084  -43.7299 H         1 UNK         0.0600 
    152 H152        4.3336  -20.3625  -43.6254 H         1 UNK         0.0600 
    153 H153        3.6058  -21.1710  -45.0036 H         1 UNK         0.0600 
    154 H154        1.8814  -19.3589  -42.6121 H         1 UNK         0.3000 
    155 H155        0.2037  -17.9625  -45.4041 H         1 UNK         0.0600 
    156 H156       -0.4768  -18.1636  -42.4258 H         1 UNK         0.0600 
    157 H157       -1.5284  -18.6897  -43.7315 H         1 UNK         0.0600 
    158 H158       -1.1262  -16.9922  -43.5758 H         1 UNK         0.0600 
    159 H159        1.2424  -16.5171  -43.3651 H         1 UNK         0.3000 
    160 H160        4.6823  -16.4265  -43.9175 H         1 UNK         0.0600 
    161 H161        4.4629  -14.0850  -44.6007 H         1 UNK         0.0600 
    162 H162        2.7476  -14.2920  -44.9420 H         1 UNK         0.0600 
    163 H163        3.9495  -15.1098  -45.9337 H         1 UNK         0.0600 
    164 H164        2.3775  -15.0241  -42.6236 H         1 UNK         0.3000 
    165 H165        3.4373  -15.9412  -39.3976 H         1 UNK         0.0600 
    166 H166        3.6363  -13.5172  -38.9002 H         1 UNK         0.0600 
    167 H167        5.0669  -14.0828  -39.7471 H         1 UNK         0.0600 
    168 H168        3.8480  -13.1566  -40.6144 H         1 UNK         0.0600 
    169 H169        1.5480  -13.9967  -40.3771 H         1 UNK         0.3000 
    170 H170       -1.1100  -16.2336  -40.9915 H         1 UNK         0.0600 
    171 H171       -1.1404  -16.1217  -38.4896 H         1 UNK         0.0600 
    172 H172       -0.7735  -14.4021  -38.5612 H         1 UNK         0.0600 
    173 H173       -2.2968  -15.0135  -39.2083 H         1 UNK         0.0600 
    174 H174       -1.3881  -13.5307  -40.8984 H         1 UNK         0.3000 
    175 H175       -1.3986  -12.1656  -42.5952 H         1 UNK         0.0600 
    176 H176        0.9554  -12.4936  -44.5364 H         1 UNK         0.0600 
    177 H177        0.0125  -11.0288  -44.2793 H         1 UNK         0.0600 
    178 H178        1.0321  -11.6538  -42.9903 H         1 UNK         0.0600 
    179 H179       -1.2945  -12.9631  -45.3316 H         1 UNK         0.3000 
    180 H180       -4.2793  -14.9310  -45.3992 H         1 UNK         0.0600 
    181 H181       -3.6641  -12.1139  -46.4309 H         1 UNK         0.0600 
    182 H182       -5.0800  -12.6024  -45.5121 H         1 UNK         0.0600 
    183 H183       -4.8332  -13.2311  -47.1339 H         1 UNK         0.0600 
    184 H184       -2.1317  -13.9524  -47.1854 H         1 UNK         0.3000 
    185 H185       -0.5058  -16.9867  -47.4269 H         1 UNK         0.0600 
    186 H186       -2.4332  -17.9438  -48.6233 H         1 UNK         0.0600 
    187 H187       -2.7196  -16.4119  -49.4538 H         1 UNK         0.0600 
    188 H188       -1.2494  -17.3333  -49.7704 H         1 UNK         0.0600 
    189 H189       -0.9344  -14.7112  -49.2323 H         1 UNK         0.3000 
    190 H190       -0.3909  -21.4347  -46.5141 H         1 UNK         0.3000 
    191 H191       -2.7781  -20.8444  -47.9937 H         1 UNK         0.0600 
    192 H192       -2.2277  -20.6255  -44.9939 H         1 UNK         0.0600 
    193 H193       -3.5430  -19.8420  -45.8654 H         1 UNK         0.0600 
    194 H194       -1.8801  -19.3836  -46.1974 H         1 UNK         0.0600 
    195 H195       -1.9373  -23.3859  -45.6596 H         1 UNK         0.3000 
    196 H196       -4.6123  -24.4224  -45.3221 H         1 UNK         0.0600 
    197 H197       -3.4570  -26.3124  -44.2128 H         1 UNK         0.0600 
    198 H198       -2.8281  -24.7815  -43.6233 H         1 UNK         0.0600 
    199 H199       -1.8959  -25.7355  -44.7751 H         1 UNK         0.0600 
    200 H200       -1.8310  -25.2479  -47.4259 H         1 UNK         0.3000 
    201 H201       -3.0335  -27.4193  -48.8126 H         1 UNK         0.0600 
    202 H202       -0.5850  -26.9540  -48.8139 H         1 UNK         0.0600 
    203 H203       -0.8491  -25.4709  -49.7285 H         1 UNK         0.0600 
    204 H204       -1.2059  -27.0309  -50.4566 H         1 UNK         0.0600 
    205 H205       -2.9803  -23.9014  -49.4975 H         1 UNK         0.3000 
    206 H206       -4.4816  -23.9596  -51.9182 H         1 UNK         0.0600 
    207 H207       -3.1145  -22.0004  -51.1651 H         1 UNK         0.0600 
    208 H208       -4.7867  -21.5256  -51.4314 H         1 UNK         0.0600 
    209 H209       -4.1848  -21.7644  -49.7984 H         1 UNK         0.0600 
    210 H210       -5.4346  -23.7725  -48.5256 H         1 UNK         0.3000 
    211 H211       -7.2267  -24.1024  -47.3443 H         1 UNK         0.0600 
    212 H212       -8.7035  -25.0610  -49.8523 H         1 UNK         0.0600 
    213 H213       -9.2299  -25.2696  -48.1895 H         1 UNK         0.0600 
    214 H214       -7.7721  -26.0748  -48.7505 H         1 UNK         0.0600 
    215 H215       -8.1048  -22.5386  -50.4138 H         1 UNK         0.3000 
    216 H216       -9.9348  -20.6041  -49.1281 H         1 UNK         0.0600 
    217 H217      -10.3048  -19.8828  -51.4818 H         1 UNK         0.0600 
    218 H218      -10.4953  -21.6227  -51.3422 H         1 UNK         0.0600 
    219 H219       -9.0199  -20.9499  -52.0366 H         1 UNK         0.0600 
    220 H220       -6.6708  -20.8679  -49.3813 H         1 UNK         0.3000 
    221 H221       -4.8803  -19.6132  -49.1066 H         1 UNK         0.0600 
    222 H222       -6.5554  -17.0531  -49.0701 H         1 UNK         0.0600 
    223 H223       -6.1974  -18.0368  -47.6501 H         1 UNK         0.0600 
    224 H224       -4.9010  -17.2460  -48.5271 H         1 UNK         0.0600 
    225 H225       -3.3573  -18.5431  -50.3701 H         1 UNK         0.3000 
    226 H226       -2.2122  -17.9109  -52.1020 H         1 UNK         0.0600 
    227 H227       -4.7765  -16.6531  -53.1952 H         1 UNK         0.0600 
    228 H228       -3.6505  -15.8953  -52.0694 H         1 UNK         0.0600 
    229 H229       -3.1374  -16.2783  -53.7050 H         1 UNK         0.0600 
    230 H230       -5.0568  -19.7242  -53.0022 H         1 UNK         0.3000 
    231 H231       -4.6380  -20.3172  -55.6422 H         1 UNK         0.0600 
    232 H232       -6.6767  -20.9021  -54.3393 H         1 UNK         0.0600 
    233 H233       -5.8004  -22.1820  -53.5028 H         1 UNK         0.0600 
    234 H234       -6.0903  -22.2960  -55.2320 H         1 UNK         0.0600 
    235 H235       -2.7530  -21.6464  -53.0221 H         1 UNK         0.3000 
    236 H236       -1.6579  -23.9529  -54.2857 H         1 UNK         0.0600 
    237 H237       -0.5734  -22.1436  -52.0598 H         1 UNK         0.0600 
    238 H238        0.1330  -23.6877  -52.5180 H         1 UNK         0.0600 
    239 H239       -1.4897  -23.6396  -51.8622 H         1 UNK         0.0600 
    240 H240       -0.9992  -20.5382  -54.7599 H         1 UNK         0.3000 
    241 H241        1.4921  -21.0438  -56.2621 H         1 UNK         0.0600 
    242 H242       -1.5788  -21.1346  -58.7984 H         1 UNK         0.3800 
    243 H243       -1.7570  -21.5385  -57.1115 H         1 UNK         0.3800 
    244 H244        1.5228  -18.5589  -56.5740 H         1 UNK         0.0800 
    245 H245        0.0380  -18.4263  -55.6718 H         1 UNK         0.0800 
    246 H246       -0.0788  -18.7672  -52.9945 H         1 UNK         0.0800 
    247 H247        0.4729  -17.1994  -53.5469 H         1 UNK         0.0800 
@<TRIPOS>BOND
     1    1    2 1    
     2    1  127 1    
     3    1  128 1    
     4    1  129 1    
     5    2    3 2    
     6    2    4 am   BACKBONE|DICT|INTERRES
     7    4    5 1    
     8    4  130 1    
     9    5    6 1    
    10    5   65 1    
    11    5  131 1    
    12    6    7 1    
    13    6  132 1    
    14    6  133 1    
    15    7    8 1    
    16    8    9 1    
    17    8  134 1    
    18    8  135 1    
    19    9   10 ar   
    20    9   14 ar   
    21   10   11 ar   
    22   10  136 1    
    23   11   12 ar   
    24   11  126 1    
    25   12   13 ar   
    26   12  137 1    
    27   13   14 ar   
    28   13   15 1    
    29   14  138 1    
    30   15   16 1    
    31   15  139 1    
    32   15  140 1    
    33   16   17 1    
    34   17   18 1    
    35   17  141 1    
    36   17  142 1    
    37   18   19 1    
    38   18   67 1    
    39   18  143 1    
    40   19   20 am   BACKBONE|DICT|INTERRES
    41   19  144 1    
    42   20   21 2    
    43   20   22 1    
    44   22   23 1    
    45   22   24 1    
    46   22  145 1    
    47   23  146 1    
    48   23  147 1    
    49   23  148 1    
    50   24   25 am   BACKBONE|DICT|INTERRES
    51   24  149 1    
    52   25   26 2    
    53   25   27 1    
    54   27   28 1    
    55   27   29 1    
    56   27  150 1    
    57   28  151 1    
    58   28  152 1    
    59   28  153 1    
    60   29   30 am   BACKBONE|DICT|INTERRES
    61   29  154 1    
    62   30   31 2    
    63   30   32 1    
    64   32   33 1    
    65   32   34 1    
    66   32  155 1    
    67   33  156 1    
    68   33  157 1    
    69   33  158 1    
    70   34   35 am   BACKBONE|DICT|INTERRES
    71   34  159 1    
    72   35   36 2    
    73   35   37 1    
    74   37   38 1    
    75   37   39 1    
    76   37  160 1    
    77   38  161 1    
    78   38  162 1    
    79   38  163 1    
    80   39   40 am   BACKBONE|DICT|INTERRES
    81   39  164 1    
    82   40   41 2    
    83   40   42 1    
    84   42   43 1    
    85   42   44 1    
    86   42  165 1    
    87   43  166 1    
    88   43  167 1    
    89   43  168 1    
    90   44   45 am   BACKBONE|DICT|INTERRES
    91   44  169 1    
    92   45   46 2    
    93   45   47 1    
    94   47   48 1    
    95   47   49 1    
    96   47  170 1    
    97   48  171 1    
    98   48  172 1    
    99   48  173 1    
   100   49   50 am   BACKBONE|DICT|INTERRES
   101   49  174 1    
   102   50   51 2    
   103   50   52 1    
   104   52   53 1    
   105   52   54 1    
   106   52  175 1    
   107   53  176 1    
   108   53  177 1    
   109   53  178 1    
   110   54   55 am   BACKBONE|DICT|INTERRES
   111   54  179 1    
   112   55   56 2    
   113   55   57 1    
   114   57   58 1    
   115   57   59 1    
   116   57  180 1    
   117   58  181 1    
   118   58  182 1    
   119   58  183 1    
   120   59   60 am   BACKBONE|DICT|INTERRES
   121   59  184 1    
   122   60   61 2    
   123   60   62 1    
   124   62   63 1    
   125   62   64 1    
   126   62  185 1    
   127   63  186 1    
   128   63  187 1    
   129   63  188 1    
   130   64   65 am   BACKBONE|DICT|INTERRES
   131   64  189 1    
   132   65   66 2    
   133   67   68 2    
   134   67   69 am   BACKBONE|DICT|INTERRES
   135   69   70 1    
   136   69  190 1    
   137   70   71 1    
   138   70   72 1    
   139   70  191 1    
   140   71  192 1    
   141   71  193 1    
   142   71  194 1    
   143   72   73 2    
   144   72   74 am   BACKBONE|DICT|INTERRES
   145   74   75 1    
   146   74  195 1    
   147   75   76 1    
   148   75   77 1    
   149   75  196 1    
   150   76  197 1    
   151   76  198 1    
   152   76  199 1    
   153   77   78 2    
   154   77   79 am   BACKBONE|DICT|INTERRES
   155   79   80 1    
   156   79  200 1    
   157   80   81 1    
   158   80   82 1    
   159   80  201 1    
   160   81  202 1    
   161   81  203 1    
   162   81  204 1    
   163   82   83 2    
   164   82   84 am   BACKBONE|DICT|INTERRES
   165   84   85 1    
   166   84  205 1    
   167   85   86 1    
   168   85   87 1    
   169   85  206 1    
   170   86  207 1    
   171   86  208 1    
   172   86  209 1    
   173   87   88 2    
   174   87   89 am   BACKBONE|DICT|INTERRES
   175   89   90 1    
   176   89  210 1    
   177   90   91 1    
   178   90   92 1    
   179   90  211 1    
   180   91  212 1    
   181   91  213 1    
   182   91  214 1    
   183   92   93 2    
   184   92   94 am   BACKBONE|DICT|INTERRES
   185   94   95 1    
   186   94  215 1    
   187   95   96 1    
   188   95   97 1    
   189   95  216 1    
   190   96  217 1    
   191   96  218 1    
   192   96  219 1    
   193   97   98 2    
   194   97   99 am   BACKBONE|DICT|INTERRES
   195   99  100 1    
   196   99  220 1    
   197  100  101 1    
   198  100  102 1    
   199  100  221 1    
   200  101  222 1    
   201  101  223 1    
   202  101  224 1    
   203  102  103 2    
   204  102  104 am   BACKBONE|DICT|INTERRES
   205  104  105 1    
   206  104  225 1    
   207  105  106 1    
   208  105  107 1    
   209  105  226 1    
   210  106  227 1    
   211  106  228 1    
   212  106  229 1    
   213  107  108 2    
   214  107  109 am   BACKBONE|DICT|INTERRES
   215  109  110 1    
   216  109  230 1    
   217  110  111 1    
   218  110  112 1    
   219  110  231 1    
   220  111  232 1    
   221  111  233 1    
   222  111  234 1    
   223  112  113 2    
   224  112  114 am   BACKBONE|DICT|INTERRES
   225  114  115 1    
   226  114  235 1    
   227  115  116 1    
   228  115  117 1    
   229  115  236 1    
   230  116  237 1    
   231  116  238 1    
   232  116  239 1    
   233  117  118 2    
   234  117  119 am   BACKBONE|DICT|INTERRES
   235  119  120 1    
   236  119  240 1    
   237  120  121 1    
   238  120  124 1    
   239  120  241 1    
   240  121  122 am   BACKBONE|DICT|INTERRES
   241  121  123 2    
   242  122  242 1    
   243  122  243 1    
   244  124  125 1    
   245  124  244 1    
   246  124  245 1    
   247  125  126 1    
   248  126  246 1    
   249  126  247 1    
@<TRIPOS>SUBSTRUCTURE
     1 UNK         1 GROUP             0       ****    0 ROOT    
