@<TRIPOS>MOLECULE
3R540
247   249    1
SMALL
USER_CHARGES


@<TRIPOS>ATOM
      1 CA          0.5893   -9.7141  -48.6488 C.3       0 UNK        -0.1800 
      2 C           0.8988  -10.7675  -47.5953 C.2       0 UNK         0.5000 
      3 O           1.9996  -10.7765  -47.0452 O.2       0 UNK        -0.5000 
      4 N          -0.0722  -11.6440  -47.3022 N.am      1 UNK        -0.5000 
      5 CA          0.0279  -12.7596  -46.3480 C.3       1 UNK         0.1400 
      6 C6         -1.2690  -13.6091  -46.3267 C.3       23 UNK        -0.0398 
      7 S7         -1.5225  -14.4968  -47.9038 S.3       23 UNK        -0.2404 
      8 C8         -2.0602  -16.1411  -47.3289 C.3       23 UNK        -0.0205 
      9 C9         -1.8736  -17.2028  -48.4025 C.ar      23 UNK        -0.0193 
     10 C10        -2.9813  -17.7663  -49.0388 C.ar      23 UNK        -0.1150 
     11 C11        -2.8251  -18.7735  -49.9954 C.ar      23 UNK        -0.0193 
     12 C12        -1.5322  -19.2130  -50.3153 C.ar      23 UNK        -0.1150 
     13 C13        -0.4110  -18.6357  -49.7091 C.ar      23 UNK        -0.0193 
     14 C14        -0.5913  -17.6408  -48.7438 C.ar      23 UNK        -0.1150 
     15 C15         0.9975  -19.0376  -50.1345 C.3       23 UNK        -0.0205 
     16 S16         1.4492  -20.7452  -49.6862 S.3       23 UNK        -0.2404 
     17 C17         1.4575  -20.6823  -47.8601 C.3       23 UNK        -0.0398 
     18 CA          0.7636  -21.9044  -47.2114 C.3       11 UNK         0.1400 
     19 N           0.9704  -21.9510  -45.7618 N.am      11 UNK        -0.5000 
     20 C           0.5962  -22.9598  -44.9606 C.2       10 UNK         0.5000 
     21 O           0.1055  -24.0124  -45.3672 O.2       10 UNK        -0.5000 
     22 CA          0.7287  -22.7271  -43.4444 C.3       10 UNK         0.1400 
     23 CB          2.1597  -22.9979  -42.9567 C.3       10 UNK        -0.1800 
     24 N           0.3144  -21.3768  -43.0606 N.am      10 UNK        -0.5000 
     25 C          -0.9430  -20.9219  -43.1679 C.2       9 UNK         0.5000 
     26 O          -1.8917  -21.6177  -43.5316 O.2       9 UNK        -0.5000 
     27 CA         -1.1716  -19.4312  -42.8614 C.3       9 UNK         0.1400 
     28 CB         -1.3371  -19.2131  -41.3505 C.3       9 UNK        -0.1800 
     29 N          -0.0954  -18.5802  -43.3752 N.am      9 UNK        -0.5000 
     30 C           0.1775  -18.4180  -44.6783 C.2       8 UNK         0.5000 
     31 O          -0.5004  -18.9141  -45.5749 O.2       8 UNK        -0.5000 
     32 CA          1.4474  -17.6313  -45.0513 C.3       8 UNK         0.1400 
     33 CB          1.1909  -16.1224  -45.0964 C.3       8 UNK        -0.1800 
     34 N           2.5562  -17.8979  -44.1432 N.am      8 UNK        -0.5000 
     35 C           3.1886  -19.0720  -44.0411 C.2       7 UNK         0.5000 
     36 O           2.8968  -20.0628  -44.7101 O.2       7 UNK        -0.5000 
     37 CA          4.3135  -19.1538  -42.9978 C.3       7 UNK         0.1400 
     38 CB          5.6299  -18.6132  -43.5760 C.3       7 UNK        -0.1800 
     39 N           3.9752  -18.4117  -41.7837 N.am      7 UNK        -0.5000 
     40 C           3.1155  -18.8431  -40.8519 C.2       6 UNK         0.5000 
     41 O           2.5375  -19.9296  -40.9049 O.2       6 UNK        -0.5000 
     42 CA          2.8362  -17.8829  -39.6793 C.3       6 UNK         0.1400 
     43 CB          3.9603  -17.9581  -38.6351 C.3       6 UNK        -0.1800 
     44 N           2.6594  -16.4914  -40.1048 N.am      6 UNK        -0.5000 
     45 C           1.6346  -16.0647  -40.8548 C.2       5 UNK         0.5000 
     46 O           0.7449  -16.8032  -41.2721 O.2       5 UNK        -0.5000 
     47 CA          1.6031  -14.5735  -41.2352 C.3       5 UNK         0.1400 
     48 CB          0.9766  -13.7402  -40.1075 C.3       5 UNK        -0.1800 
     49 N           2.8875  -13.9767  -41.6167 N.am      5 UNK        -0.5000 
     50 C           3.7728  -14.4731  -42.4930 C.2       4 UNK         0.5000 
     51 O           3.7197  -15.6101  -42.9619 O.2       4 UNK        -0.5000 
     52 CA          4.8741  -13.5056  -42.9473 C.3       4 UNK         0.1400 
     53 CB          5.7710  -14.0855  -44.0587 C.3       4 UNK        -0.1800 
     54 N           4.2505  -12.2665  -43.4067 N.am      4 UNK        -0.5000 
     55 C           4.8056  -11.0508  -43.3317 C.2       3 UNK         0.5000 
     56 O           5.9232  -10.8427  -42.8571 O.2       3 UNK        -0.5000 
     57 CA          3.9893   -9.8602  -43.8756 C.3       3 UNK         0.1400 
     58 CB          4.5183   -9.4358  -45.2541 C.3       3 UNK        -0.1800 
     59 N           2.5511  -10.1231  -43.9753 N.am      3 UNK        -0.5000 
     60 C           1.7233  -10.2222  -42.9239 C.2       2 UNK         0.5000 
     61 O           2.0957  -10.1015  -41.7563 O.2       2 UNK        -0.5000 
     62 CA          0.2334  -10.5118  -43.2063 C.3       2 UNK         0.1400 
     63 CB         -0.5960   -9.2255  -43.0731 C.3       2 UNK        -0.1800 
     64 N          -0.0370  -11.1120  -44.5153 N.am      2 UNK        -0.5000 
     65 C           0.4064  -12.3103  -44.9197 C.2       1 UNK         0.5000 
     66 O           1.1241  -13.0314  -44.2293 O.2       1 UNK        -0.5000 
     67 C          -0.7336  -21.9888  -47.5732 C.2       11 UNK         0.5000 
     68 O          -1.1026  -22.8282  -48.3926 O.2       11 UNK        -0.5000 
     69 N          -1.5699  -21.1681  -46.9217 N.am      12 UNK        -0.5000 
     70 CA         -3.0211  -21.1454  -47.1063 C.3       12 UNK         0.1400 
     71 CB         -3.6356  -20.0167  -46.2654 C.3       12 UNK        -0.1800 
     72 C          -3.6944  -22.4909  -46.7859 C.2       12 UNK         0.5000 
     73 O          -4.5731  -22.9196  -47.5343 O.2       12 UNK        -0.5000 
     74 N          -3.2441  -23.1454  -45.7067 N.am      13 UNK        -0.5000 
     75 CA         -3.6788  -24.4821  -45.3073 C.3       13 UNK         0.1400 
     76 CB         -3.1547  -24.7930  -43.8971 C.3       13 UNK        -0.1800 
     77 C          -3.2475  -25.5700  -46.3085 C.2       13 UNK         0.5000 
     78 O          -4.0671  -26.4152  -46.6681 O.2       13 UNK        -0.5000 
     79 N          -1.9835  -25.5211  -46.7535 N.am      14 UNK        -0.5000 
     80 CA         -1.4011  -26.4599  -47.7155 C.3       14 UNK         0.1400 
     81 CB          0.1215  -26.2617  -47.7698 C.3       14 UNK        -0.1800 
     82 C          -2.0149  -26.3413  -49.1224 C.2       14 UNK         0.5000 
     83 O          -2.3051  -27.3617  -49.7480 O.2       14 UNK        -0.5000 
     84 N          -2.2166  -25.1011  -49.5857 N.am      15 UNK        -0.5000 
     85 CA         -2.8497  -24.7774  -50.8648 C.3       15 UNK         0.1400 
     86 CB         -2.5193  -23.3218  -51.2262 C.3       15 UNK        -0.1800 
     87 C          -4.3754  -24.9856  -50.8541 C.2       15 UNK         0.5000 
     88 O          -4.9771  -25.0790  -51.9238 O.2       15 UNK        -0.5000 
     89 N          -4.9754  -25.0139  -49.6541 N.am      16 UNK        -0.5000 
     90 CA         -6.4038  -25.1835  -49.3614 C.3       16 UNK         0.1400 
     91 CB         -6.8582  -26.6106  -49.7294 C.3       16 UNK        -0.1800 
     92 C          -7.3003  -24.0939  -49.9913 C.2       16 UNK         0.5000 
     93 O          -8.4847  -24.3359  -50.2301 O.2       16 UNK        -0.5000 
     94 N          -6.7070  -22.9213  -50.2638 N.am      17 UNK        -0.5000 
     95 CA         -7.2800  -21.7712  -50.9705 C.3       17 UNK         0.1400 
     96 CB         -8.3707  -21.0972  -50.1128 C.3       17 UNK        -0.1800 
     97 C          -7.7517  -22.0903  -52.4091 C.2       17 UNK         0.5000 
     98 O          -8.6781  -21.4439  -52.9033 O.2       17 UNK        -0.5000 
     99 N          -7.1199  -23.0799  -53.0598 N.am      18 UNK        -0.5000 
    100 CA        -7.4127  -23.4881  -54.4340 C.3       18 UNK         0.1400 
    101 CB        -6.6674  -24.7955  -54.7425 C.3       18 UNK        -0.1800 
    102 C         -7.0218  -22.4015  -55.4512 C.2       18 UNK         0.5000 
    103 O         -5.9570  -21.7970  -55.3191 O.2       18 UNK        -0.5000 
    104 N         -7.8642  -22.2075  -56.4747 N.am      19 UNK        -0.5000 
    105 CA        -7.6897  -21.1994  -57.5282 C.3       19 UNK         0.1400 
    106 CB        -8.9811  -21.1190  -58.3570 C.3       19 UNK        -0.1800 
    107 C         -6.4744  -21.4444  -58.4467 C.2       19 UNK         0.5000 
    108 O         -5.9919  -20.5043  -59.0789 O.2       19 UNK        -0.5000 
    109 N         -5.9978  -22.6952  -58.4979 N.am      20 UNK        -0.5000 
    110 CA        -4.7849  -23.1053  -59.2077 C.3       20 UNK         0.1400 
    111 CB        -4.8665  -24.6172  -59.4739 C.3       20 UNK        -0.1800 
    112 C         -3.4860  -22.7607  -58.4466 C.2       20 UNK         0.5000 
    113 O         -2.4047  -22.8760  -59.0258 O.2       20 UNK        -0.5000 
    114 N         -3.6050  -22.3700  -57.1725 N.am      21 UNK        -0.5000 
    115 CA        -2.5125  -22.0107  -56.2748 C.3       21 UNK         0.1400 
    116 CB        -2.4971  -23.0341  -55.1222 C.3       21 UNK        -0.1800 
    117 C         -2.7060  -20.5670  -55.7697 C.2       21 UNK         0.5000 
    118 O         -3.5332  -19.8262  -56.3088 O.2       21 UNK        -0.5000 
    119 N         -1.9376  -20.1993  -54.7362 N.am      22 UNK        -0.5000 
    120 CA        -2.0150  -18.9202  -54.0069 C.3       22 UNK         0.1400 
    121 C         -1.5549  -17.6884  -54.8486 C.2       22 UNK         0.5000 
    122 N         -1.7856  -16.4672  -54.3827 N.am      22 UNK        -0.7600 
    123 O         -0.9365  -17.8192  -55.9033 O.2       22 UNK        -0.5000 
    124 C124       -3.3931  -18.7154  -53.3049 C.3       23 UNK        -0.0398 
    125 S125       -3.8746  -20.1387  -52.2626 S.3       23 UNK        -0.2404 
    126 C126       -4.0854  -19.3713  -50.6222 C.3       23 UNK        -0.0205 
    127 H127       -0.4214   -9.8196  -49.0437 H         1 UNK         0.0600 
    128 H128        1.2899   -9.7985  -49.4795 H         1 UNK         0.0600 
    129 H129        0.6853   -8.7164  -48.2205 H         1 UNK         0.0600 
    130 H130       -0.9476  -11.5863  -47.8031 H         1 UNK         0.3000 
    131 H131        0.8464  -13.3960  -46.6913 H         1 UNK         0.0600 
    132 H132       -1.2409  -14.3341  -45.5117 H         1 UNK         0.0800 
    133 H133       -2.1399  -12.9799  -46.1350 H         1 UNK         0.0800 
    134 H134       -3.1058  -16.0809  -47.0232 H         1 UNK         0.0800 
    135 H135       -1.5095  -16.4473  -46.4417 H         1 UNK         0.0800 
    136 H136       -3.9741  -17.4307  -48.7738 H         1 UNK         0.1150 
    137 H137       -1.3874  -20.0007  -51.0401 H         1 UNK         0.1150 
    138 H138        0.2664  -17.1940  -48.2615 H         1 UNK         0.1150 
    139 H139        1.0757  -18.9331  -51.2175 H         1 UNK         0.0800 
    140 H140        1.7380  -18.3559  -49.7133 H         1 UNK         0.0800 
    141 H141        0.9972  -19.7560  -47.5206 H         1 UNK         0.0800 
    142 H142        2.4984  -20.6347  -47.5373 H         1 UNK         0.0800 
    143 H143        1.2392  -22.8008  -47.6152 H         1 UNK         0.0600 
    144 H144        1.4253  -21.1461  -45.3412 H         1 UNK         0.3000 
    145 H145        0.0652  -23.4344  -42.9422 H         1 UNK         0.0600 
    146 H146        2.2396  -22.8657  -41.8775 H         1 UNK         0.0600 
    147 H147        2.4583  -24.0222  -43.1826 H         1 UNK         0.0600 
    148 H148        2.8852  -22.3359  -43.4278 H         1 UNK         0.0600 
    149 H149        1.0386  -20.7456  -42.7458 H         1 UNK         0.3000 
    150 H150       -2.1003  -19.1310  -43.3509 H         1 UNK         0.0600 
    151 H151       -2.1197  -19.8555  -40.9447 H         1 UNK         0.0600 
    152 H152       -1.6181  -18.1831  -41.1309 H         1 UNK         0.0600 
    153 H153       -0.4158  -19.4323  -40.8090 H         1 UNK         0.0600 
    154 H154        0.4605  -18.0849  -42.6836 H         1 UNK         0.3000 
    155 H155        1.7589  -17.9465  -46.0490 H         1 UNK         0.0600 
    156 H156        0.5684  -15.8651  -45.9490 H         1 UNK         0.0600 
    157 H157        2.1194  -15.5628  -45.2115 H         1 UNK         0.0600 
    158 H158        0.6964  -15.7676  -44.1918 H         1 UNK         0.0600 
    159 H159        2.8931  -17.1128  -43.5893 H         1 UNK         0.3000 
    160 H160        4.4594  -20.2051  -42.7405 H         1 UNK         0.0600 
    161 H161        5.5493  -17.5604  -43.8495 H         1 UNK         0.0600 
    162 H162        5.9166  -19.1642  -44.4726 H         1 UNK         0.0600 
    163 H163        6.4450  -18.7119  -42.8590 H         1 UNK         0.0600 
    164 H164        4.3358  -17.4699  -41.7131 H         1 UNK         0.3000 
    165 H165        1.9094  -18.2085  -39.2020 H         1 UNK         0.0600 
    166 H166        3.7267  -17.3511  -37.7602 H         1 UNK         0.0600 
    167 H167        4.1036  -18.9828  -38.2894 H         1 UNK         0.0600 
    168 H168        4.9121  -17.6119  -39.0399 H         1 UNK         0.0600 
    169 H169        3.3605  -15.8251  -39.8162 H         1 UNK         0.3000 
    170 H170        0.9491  -14.4923  -42.1038 H         1 UNK         0.0600 
    171 H171        0.0051  -14.1420  -39.8162 H         1 UNK         0.0600 
    172 H172        1.6081  -13.7281  -39.2184 H         1 UNK         0.0600 
    173 H173        0.8183  -12.7081  -40.4213 H         1 UNK         0.0600 
    174 H174        3.0363  -13.0302  -41.2979 H         1 UNK         0.3000 
    175 H175        5.4933  -13.3040  -42.0708 H         1 UNK         0.0600 
    176 H176        6.2553  -15.0060  -43.7309 H         1 UNK         0.0600 
    177 H177        5.1961  -14.3159  -44.9566 H         1 UNK         0.0600 
    178 H178        6.5599  -13.3865  -44.3362 H         1 UNK         0.0600 
    179 H179        3.3127  -12.3580  -43.7815 H         1 UNK         0.3000 
    180 H180        4.1335   -9.0246  -43.1874 H         1 UNK         0.0600 
    181 H181        4.4386  -10.2450  -45.9808 H         1 UNK         0.0600 
    182 H182        5.5694   -9.1499  -45.1979 H         1 UNK         0.0600 
    183 H183        3.9687   -8.5786  -45.6435 H         1 UNK         0.0600 
    184 H184        2.1824  -10.2663  -44.9084 H         1 UNK         0.3000 
    185 H185       -0.1056  -11.2169  -42.4445 H         1 UNK         0.0600 
    186 H186       -1.6620   -9.4299  -43.1754 H         1 UNK         0.0600 
    187 H187       -0.4485   -8.7632  -42.0961 H         1 UNK         0.0600 
    188 H188       -0.3197   -8.4897  -43.8295 H         1 UNK         0.0600 
    189 H189       -0.5945  -10.5670  -45.1568 H         1 UNK         0.3000 
    190 H190       -1.1815  -20.4641  -46.2979 H         1 UNK         0.3000 
    191 H191       -3.2043  -20.9307  -48.1588 H         1 UNK         0.0600 
    192 H192       -3.5170  -20.1993  -45.1975 H         1 UNK         0.0600 
    193 H193       -4.7030  -19.9191  -46.4664 H         1 UNK         0.0600 
    194 H194       -3.1721  -19.0568  -46.4891 H         1 UNK         0.0600 
    195 H195       -2.5522  -22.6931  -45.1174 H         1 UNK         0.3000 
    196 H196       -4.7701  -24.4805  -45.2683 H         1 UNK         0.0600 
    197 H197       -3.4848  -25.7784  -43.5659 H         1 UNK         0.0600 
    198 H198       -3.5212  -24.0658  -43.1723 H         1 UNK         0.0600 
    199 H199       -2.0652  -24.7807  -43.8586 H         1 UNK         0.0600 
    200 H200       -1.3590  -24.8104  -46.3824 H         1 UNK         0.3000 
    201 H201       -1.5962  -27.4717  -47.3541 H         1 UNK         0.0600 
    202 H202        0.5760  -26.4373  -46.7946 H         1 UNK         0.0600 
    203 H203        0.3847  -25.2509  -48.0834 H         1 UNK         0.0600 
    204 H204        0.5824  -26.9559  -48.4734 H         1 UNK         0.0600 
    205 H205       -1.8941  -24.3091  -49.0300 H         1 UNK         0.3000 
    206 H206       -2.4318  -25.4269  -51.6365 H         1 UNK         0.0600 
    207 H207       -1.4433  -23.1660  -51.3048 H         1 UNK         0.0600 
    208 H208       -2.9592  -23.0483  -52.1845 H         1 UNK         0.0600 
    209 H209       -2.9036  -22.6248  -50.4802 H         1 UNK         0.0600 
    210 H210       -4.3914  -24.8633  -48.8417 H         1 UNK         0.3000 
    211 H211       -6.5046  -25.0708  -48.2811 H         1 UNK         0.0600 
    212 H212       -6.8424  -26.7740  -50.8075 H         1 UNK         0.0600 
    213 H213       -7.8748  -26.8013  -49.3837 H         1 UNK         0.0600 
    214 H214       -6.2143  -27.3588  -49.2667 H         1 UNK         0.0600 
    215 H215       -5.7363  -22.8346  -49.9966 H         1 UNK         0.3000 
    216 H216       -6.4695  -21.0528  -51.0828 H         1 UNK         0.0600 
    217 H217       -8.6957  -20.1569  -50.5593 H         1 UNK         0.0600 
    218 H218       -8.0001  -20.8680  -49.1136 H         1 UNK         0.0600 
    219 H219       -9.2517  -21.7309  -50.0073 H         1 UNK         0.0600 
    220 H220       -6.3675  -23.5753  -52.5955 H         1 UNK         0.3000 
    221 H221       -8.4858  -23.6759  -54.5077 H         1 UNK         0.0600 
    222 H222       -5.5859  -24.6652  -54.6800 H         1 UNK         0.0600 
    223 H223       -6.9489  -25.5841  -54.0442 H         1 UNK         0.0600 
    224 H224       -6.8981  -25.1524  -55.7470 H         1 UNK         0.0600 
    225 H225       -8.7117  -22.7552  -56.5201 H         1 UNK         0.3000 
    226 H226       -7.5353  -20.2338  -57.0420 H         1 UNK         0.0600 
    227 H227       -9.8356  -20.8568  -57.7329 H         1 UNK         0.0600 
    228 H228       -8.9018  -20.3559  -59.1325 H         1 UNK         0.0600 
    229 H229       -9.2018  -22.0664  -58.8504 H         1 UNK         0.0600 
    230 H230       -6.4659  -23.4049  -57.9545 H         1 UNK         0.3000 
    231 H231       -4.7476  -22.5904  -60.1700 H         1 UNK         0.0600 
    232 H232       -5.7522  -24.8681  -60.0581 H         1 UNK         0.0600 
    233 H233       -4.9029  -25.1877  -58.5449 H         1 UNK         0.0600 
    234 H234       -3.9993  -24.9635  -60.0378 H         1 UNK         0.0600 
    235 H235       -4.5303  -22.2071  -56.7900 H         1 UNK         0.3000 
    236 H236       -1.5536  -22.0478  -56.7951 H         1 UNK         0.0600 
    237 H237       -1.6494  -22.8809  -54.4541 H         1 UNK         0.0600 
    238 H238       -3.4086  -22.9716  -54.5258 H         1 UNK         0.0600 
    239 H239       -2.4209  -24.0528  -55.5028 H         1 UNK         0.0600 
    240 H240       -1.2636  -20.8591  -54.3788 H         1 UNK         0.3000 
    241 H241       -1.2606  -19.0024  -53.2249 H         1 UNK         0.0600 
    242 H242       -1.4685  -15.6760  -54.9215 H         1 UNK         0.3800 
    243 H243       -2.2521  -16.3076  -53.5042 H         1 UNK         0.3800 
    244 H244       -4.1797  -18.5537  -54.0430 H         1 UNK         0.0800 
    245 H245       -3.3783  -17.8210  -52.6819 H         1 UNK         0.0800 
    246 H246       -4.8566  -18.6040  -50.7069 H         1 UNK         0.0800 
    247 H247       -4.4808  -20.1258  -49.9425 H         1 UNK         0.0800 
@<TRIPOS>BOND
     1    1    2 1    
     2    1  127 1    
     3    1  128 1    
     4    1  129 1    
     5    2    3 2    
     6    2    4 am   BACKBONE|DICT|INTERRES
     7    4    5 1    
     8    4  130 1    
     9    5    6 1    
    10    5   65 1    
    11    5  131 1    
    12    6    7 1    
    13    6  132 1    
    14    6  133 1    
    15    7    8 1    
    16    8    9 1    
    17    8  134 1    
    18    8  135 1    
    19    9   10 ar   
    20    9   14 ar   
    21   10   11 ar   
    22   10  136 1    
    23   11   12 ar   
    24   11  126 1    
    25   12   13 ar   
    26   12  137 1    
    27   13   14 ar   
    28   13   15 1    
    29   14  138 1    
    30   15   16 1    
    31   15  139 1    
    32   15  140 1    
    33   16   17 1    
    34   17   18 1    
    35   17  141 1    
    36   17  142 1    
    37   18   19 1    
    38   18   67 1    
    39   18  143 1    
    40   19   20 am   BACKBONE|DICT|INTERRES
    41   19  144 1    
    42   20   21 2    
    43   20   22 1    
    44   22   23 1    
    45   22   24 1    
    46   22  145 1    
    47   23  146 1    
    48   23  147 1    
    49   23  148 1    
    50   24   25 am   BACKBONE|DICT|INTERRES
    51   24  149 1    
    52   25   26 2    
    53   25   27 1    
    54   27   28 1    
    55   27   29 1    
    56   27  150 1    
    57   28  151 1    
    58   28  152 1    
    59   28  153 1    
    60   29   30 am   BACKBONE|DICT|INTERRES
    61   29  154 1    
    62   30   31 2    
    63   30   32 1    
    64   32   33 1    
    65   32   34 1    
    66   32  155 1    
    67   33  156 1    
    68   33  157 1    
    69   33  158 1    
    70   34   35 am   BACKBONE|DICT|INTERRES
    71   34  159 1    
    72   35   36 2    
    73   35   37 1    
    74   37   38 1    
    75   37   39 1    
    76   37  160 1    
    77   38  161 1    
    78   38  162 1    
    79   38  163 1    
    80   39   40 am   BACKBONE|DICT|INTERRES
    81   39  164 1    
    82   40   41 2    
    83   40   42 1    
    84   42   43 1    
    85   42   44 1    
    86   42  165 1    
    87   43  166 1    
    88   43  167 1    
    89   43  168 1    
    90   44   45 am   BACKBONE|DICT|INTERRES
    91   44  169 1    
    92   45   46 2    
    93   45   47 1    
    94   47   48 1    
    95   47   49 1    
    96   47  170 1    
    97   48  171 1    
    98   48  172 1    
    99   48  173 1    
   100   49   50 am   BACKBONE|DICT|INTERRES
   101   49  174 1    
   102   50   51 2    
   103   50   52 1    
   104   52   53 1    
   105   52   54 1    
   106   52  175 1    
   107   53  176 1    
   108   53  177 1    
   109   53  178 1    
   110   54   55 am   BACKBONE|DICT|INTERRES
   111   54  179 1    
   112   55   56 2    
   113   55   57 1    
   114   57   58 1    
   115   57   59 1    
   116   57  180 1    
   117   58  181 1    
   118   58  182 1    
   119   58  183 1    
   120   59   60 am   BACKBONE|DICT|INTERRES
   121   59  184 1    
   122   60   61 2    
   123   60   62 1    
   124   62   63 1    
   125   62   64 1    
   126   62  185 1    
   127   63  186 1    
   128   63  187 1    
   129   63  188 1    
   130   64   65 am   BACKBONE|DICT|INTERRES
   131   64  189 1    
   132   65   66 2    
   133   67   68 2    
   134   67   69 am   BACKBONE|DICT|INTERRES
   135   69   70 1    
   136   69  190 1    
   137   70   71 1    
   138   70   72 1    
   139   70  191 1    
   140   71  192 1    
   141   71  193 1    
   142   71  194 1    
   143   72   73 2    
   144   72   74 am   BACKBONE|DICT|INTERRES
   145   74   75 1    
   146   74  195 1    
   147   75   76 1    
   148   75   77 1    
   149   75  196 1    
   150   76  197 1    
   151   76  198 1    
   152   76  199 1    
   153   77   78 2    
   154   77   79 am   BACKBONE|DICT|INTERRES
   155   79   80 1    
   156   79  200 1    
   157   80   81 1    
   158   80   82 1    
   159   80  201 1    
   160   81  202 1    
   161   81  203 1    
   162   81  204 1    
   163   82   83 2    
   164   82   84 am   BACKBONE|DICT|INTERRES
   165   84   85 1    
   166   84  205 1    
   167   85   86 1    
   168   85   87 1    
   169   85  206 1    
   170   86  207 1    
   171   86  208 1    
   172   86  209 1    
   173   87   88 2    
   174   87   89 am   BACKBONE|DICT|INTERRES
   175   89   90 1    
   176   89  210 1    
   177   90   91 1    
   178   90   92 1    
   179   90  211 1    
   180   91  212 1    
   181   91  213 1    
   182   91  214 1    
   183   92   93 2    
   184   92   94 am   BACKBONE|DICT|INTERRES
   185   94   95 1    
   186   94  215 1    
   187   95   96 1    
   188   95   97 1    
   189   95  216 1    
   190   96  217 1    
   191   96  218 1    
   192   96  219 1    
   193   97   98 2    
   194   97   99 am   BACKBONE|DICT|INTERRES
   195   99  100 1    
   196   99  220 1    
   197  100  101 1    
   198  100  102 1    
   199  100  221 1    
   200  101  222 1    
   201  101  223 1    
   202  101  224 1    
   203  102  103 2    
   204  102  104 am   BACKBONE|DICT|INTERRES
   205  104  105 1    
   206  104  225 1    
   207  105  106 1    
   208  105  107 1    
   209  105  226 1    
   210  106  227 1    
   211  106  228 1    
   212  106  229 1    
   213  107  108 2    
   214  107  109 am   BACKBONE|DICT|INTERRES
   215  109  110 1    
   216  109  230 1    
   217  110  111 1    
   218  110  112 1    
   219  110  231 1    
   220  111  232 1    
   221  111  233 1    
   222  111  234 1    
   223  112  113 2    
   224  112  114 am   BACKBONE|DICT|INTERRES
   225  114  115 1    
   226  114  235 1    
   227  115  116 1    
   228  115  117 1    
   229  115  236 1    
   230  116  237 1    
   231  116  238 1    
   232  116  239 1    
   233  117  118 2    
   234  117  119 am   BACKBONE|DICT|INTERRES
   235  119  120 1    
   236  119  240 1    
   237  120  121 1    
   238  120  124 1    
   239  120  241 1    
   240  121  122 am   BACKBONE|DICT|INTERRES
   241  121  123 2    
   242  122  242 1    
   243  122  243 1    
   244  124  125 1    
   245  124  244 1    
   246  124  245 1    
   247  125  126 1    
   248  126  246 1    
   249  126  247 1    
@<TRIPOS>SUBSTRUCTURE
     1 UNK         1 GROUP             0       ****    0 ROOT    
