@<TRIPOS>MOLECULE
3R540
247   249    1
SMALL
USER_CHARGES


@<TRIPOS>ATOM
      1 CA          3.6038  -15.6109  -46.5306 C.3       0 UNK        -0.1800 
      2 C           2.8838  -14.3556  -46.9980 C.2       0 UNK         0.5000 
      3 O           3.4345  -13.5984  -47.7970 O.2       0 UNK        -0.5000 
      4 N           1.6555  -14.1391  -46.5088 N.am      1 UNK        -0.5000 
      5 CA          0.7008  -13.0839  -46.8871 C.3       1 UNK         0.1400 
      6 C6          0.3054  -13.0652  -48.3915 C.3       23 UNK        -0.0398 
      7 S7         -0.1801  -14.7034  -49.0436 S.3       23 UNK        -0.2404 
      8 C8          1.1401  -14.9682  -50.2673 C.3       23 UNK        -0.0205 
      9 C9          1.2121  -16.4137  -50.7289 C.ar      23 UNK        -0.0193 
     10 C10         0.5661  -16.8132  -51.9019 C.ar      23 UNK        -0.1150 
     11 C11         0.6788  -18.1290  -52.3602 C.ar      23 UNK        -0.0193 
     12 C12         1.4496  -19.0443  -51.6375 C.ar      23 UNK        -0.1150 
     13 C13         2.0998  -18.6581  -50.4603 C.ar      23 UNK        -0.0193 
     14 C14         1.9695  -17.3419  -50.0075 C.ar      23 UNK        -0.1150 
     15 C15         3.0010  -19.6388  -49.7201 C.3       23 UNK        -0.0205 
     16 S16         2.1570  -21.1901  -49.2776 S.3       23 UNK        -0.2404 
     17 C17         1.2687  -20.7238  -47.7540 C.3       23 UNK        -0.0398 
     18 CA          0.8597  -21.9773  -46.9404 C.3       11 UNK         0.1400 
     19 N           0.6596  -21.6917  -45.5182 N.am      11 UNK        -0.5000 
     20 C           0.5359  -22.6312  -44.5680 C.2       10 UNK         0.5000 
     21 O           0.6467  -23.8390  -44.7806 O.2       10 UNK        -0.5000 
     22 CA          0.1880  -22.1450  -43.1491 C.3       10 UNK         0.1400 
     23 CB          1.4488  -21.6883  -42.4005 C.3       10 UNK        -0.1800 
     24 N          -0.8018  -21.0675  -43.1607 N.am      10 UNK        -0.5000 
     25 C          -2.0675  -21.2114  -43.5787 C.2       9 UNK         0.5000 
     26 O          -2.5567  -22.2930  -43.9061 O.2       9 UNK        -0.5000 
     27 CA         -2.9156  -19.9299  -43.6908 C.3       9 UNK         0.1400 
     28 CB         -3.5579  -19.5800  -42.3406 C.3       9 UNK        -0.1800 
     29 N          -2.1547  -18.7798  -44.1848 N.am      9 UNK        -0.5000 
     30 C          -1.5970  -18.6964  -45.4014 C.2       8 UNK         0.5000 
     31 O          -1.6872  -19.5745  -46.2565 O.2       8 UNK        -0.5000 
     32 CA         -0.7494  -17.4466  -45.6943 C.3       8 UNK         0.1400 
     33 CB         -1.6510  -16.2536  -46.0373 C.3       8 UNK        -0.1800 
     34 N           0.1375  -17.1132  -44.5765 N.am      8 UNK        -0.5000 
     35 C           1.1512  -17.8943  -44.1714 C.2       7 UNK         0.5000 
     36 O           1.4980  -18.9175  -44.7609 O.2       7 UNK        -0.5000 
     37 CA          1.8578  -17.5016  -42.8611 C.3       7 UNK         0.1400 
     38 CB          3.0026  -16.5091  -43.1144 C.3       7 UNK        -0.1800 
     39 N           0.9228  -16.9415  -41.8857 N.am      7 UNK        -0.5000 
     40 C           0.0054  -17.6643  -41.2261 C.2       6 UNK         0.5000 
     41 O          -0.1131  -18.8828  -41.3436 O.2       6 UNK        -0.5000 
     42 CA         -0.9729  -16.8910  -40.3220 C.3       6 UNK         0.1400 
     43 CB         -0.3749  -16.7006  -38.9204 C.3       6 UNK        -0.1800 
     44 N          -1.3353  -15.5851  -40.8744 N.am      6 UNK        -0.5000 
     45 C          -2.0111  -15.3996  -42.0180 C.2       5 UNK         0.5000 
     46 O          -2.4723  -16.3211  -42.6891 O.2       5 UNK        -0.5000 
     47 CA         -2.1311  -13.9489  -42.5263 C.3       5 UNK         0.1400 
     48 CB         -3.4294  -13.3041  -42.0205 C.3       5 UNK        -0.1800 
     49 N          -0.9869  -13.1266  -42.1215 N.am      5 UNK        -0.5000 
     50 C           0.2597  -13.2994  -42.5782 C.2       4 UNK         0.5000 
     51 O           0.5587  -14.0929  -43.4771 O.2       4 UNK        -0.5000 
     52 CA          1.3614  -12.5375  -41.8309 C.3       4 UNK         0.1400 
     53 CB          1.7381  -13.3128  -40.5496 C.3       4 UNK        -0.1800 
     54 N           2.5152  -12.3961  -42.7113 N.am      4 UNK        -0.5000 
     55 C           3.6387  -11.7161  -42.4489 C.2       3 UNK         0.5000 
     56 O           3.8524  -11.1060  -41.4008 O.2       3 UNK        -0.5000 
     57 CA          4.6920  -11.6907  -43.5700 C.3       3 UNK         0.1400 
     58 CB          5.3896  -13.0545  -43.6965 C.3       3 UNK        -0.1800 
     59 N           4.0998  -11.3238  -44.8551 N.am      3 UNK        -0.5000 
     60 C           3.6313  -10.1038  -45.1591 C.2       2 UNK         0.5000 
     61 O           3.7281   -9.1252  -44.4180 O.2       2 UNK        -0.5000 
     62 CA          2.9209   -9.9586  -46.5168 C.3       2 UNK         0.1400 
     63 CB          3.9149   -9.5285  -47.6060 C.3       2 UNK        -0.1800 
     64 N           2.2708  -11.2023  -46.9271 N.am      2 UNK        -0.5000 
     65 C           1.1415  -11.6900  -46.4002 C.2       1 UNK         0.5000 
     66 O           0.4752  -11.1010  -45.5485 O.2       1 UNK        -0.5000 
     67 C          -0.3641  -22.6845  -47.5578 C.2       11 UNK         0.5000 
     68 O          -0.1906  -23.6857  -48.2505 O.2       11 UNK        -0.5000 
     69 N          -1.5749  -22.1890  -47.2583 N.am      12 UNK        -0.5000 
     70 CA         -2.8645  -22.6803  -47.7563 C.3       12 UNK         0.1400 
     71 CB         -4.0044  -21.8840  -47.1017 C.3       12 UNK        -0.1800 
     72 C          -3.1008  -24.1886  -47.5601 C.2       12 UNK         0.5000 
     73 O          -3.7209  -24.8156  -48.4194 O.2       12 UNK        -0.5000 
     74 N          -2.5789  -24.7451  -46.4594 N.am      13 UNK        -0.5000 
     75 CA         -2.6296  -26.1724  -46.1424 C.3       13 UNK         0.1400 
     76 CB         -2.1208  -26.3824  -44.7084 C.3       13 UNK        -0.1800 
     77 C          -1.8390  -27.0530  -47.1323 C.2       13 UNK         0.5000 
     78 O          -2.2471  -28.1865  -47.3872 O.2       13 UNK        -0.5000 
     79 N          -0.7377  -26.5199  -47.6773 N.am      14 UNK        -0.5000 
     80 CA          0.1009  -27.1807  -48.6785 C.3       14 UNK         0.1400 
     81 CB          1.5699  -26.8102  -48.4213 C.3       14 UNK        -0.1800 
     82 C          -0.3089  -26.7855  -50.1082 C.2       14 UNK         0.5000 
     83 O          -0.2513  -27.6183  -51.0127 O.2       14 UNK        -0.5000 
     84 N          -0.7231  -25.5242  -50.2827 N.am      15 UNK        -0.5000 
     85 CA         -1.0944  -24.9042  -51.5555 C.3       15 UNK         0.1400 
     86 CB         -0.9535  -23.3813  -51.4021 C.3       15 UNK        -0.1800 
     87 C          -2.5037  -25.2815  -52.0610 C.2       15 UNK         0.5000 
     88 O          -2.8964  -24.8105  -53.1300 O.2       15 UNK        -0.5000 
     89 N          -3.2328  -26.1077  -51.2952 N.am      16 UNK        -0.5000 
     90 CA         -4.5880  -26.6050  -51.5582 C.3       16 UNK         0.1400 
     91 CB         -4.6154  -27.4946  -52.8195 C.3       16 UNK        -0.1800 
     92 C          -5.6270  -25.4665  -51.5899 C.2       16 UNK         0.5000 
     93 O          -6.4494  -25.4029  -52.5039 O.2       16 UNK        -0.5000 
     94 N          -5.5507  -24.6077  -50.5646 N.am      17 UNK        -0.5000 
     95 CA         -6.2543  -23.3439  -50.3536 C.3       17 UNK         0.1400 
     96 CB         -7.7709  -23.4305  -50.6134 C.3       17 UNK        -0.1800 
     97 C          -5.5904  -22.1990  -51.1361 C.2       17 UNK         0.5000 
     98 O          -5.5635  -22.2072  -52.3687 O.2       17 UNK        -0.5000 
     99 N          -5.0866  -21.2125  -50.3902 N.am      18 UNK        -0.5000 
    100 CA        -4.6019  -19.9348  -50.8989 C.3       18 UNK         0.1400 
    101 CB        -3.2414  -19.6233  -50.2523 C.3       18 UNK        -0.1800 
    102 C         -5.6425  -18.8660  -50.5079 C.2       18 UNK         0.5000 
    103 O         -6.1670  -18.9390  -49.3958 O.2       18 UNK        -0.5000 
    104 N         -5.9689  -17.8821  -51.3562 N.am      19 UNK        -0.5000 
    105 CA        -5.4795  -17.6501  -52.7191 C.3       19 UNK         0.1400 
    106 CB        -5.5579  -16.1407  -53.0020 C.3       19 UNK        -0.1800 
    107 C         -6.2507  -18.4443  -53.7979 C.2       19 UNK         0.5000 
    108 O         -5.9494  -18.2840  -54.9802 O.2       19 UNK        -0.5000 
    109 N         -7.2437  -19.2466  -53.3819 N.am      20 UNK        -0.5000 
    110 CA        -8.2052  -19.9603  -54.2300 C.3       20 UNK         0.1400 
    111 CB        -9.1442  -20.7885  -53.3398 C.3       20 UNK        -0.1800 
    112 C         -7.5810  -20.8374  -55.3328 C.2       20 UNK         0.5000 
    113 O         -7.9691  -20.7057  -56.4949 O.2       20 UNK        -0.5000 
    114 N         -6.6229  -21.6918  -54.9564 N.am      21 UNK        -0.5000 
    115 CA        -5.8052  -22.4752  -55.8812 C.3       21 UNK         0.1400 
    116 CB        -5.7944  -23.9502  -55.4521 C.3       21 UNK        -0.1800 
    117 C         -4.3817  -21.9053  -55.9068 C.2       21 UNK         0.5000 
    118 O         -3.8661  -21.6075  -56.9850 O.2       21 UNK        -0.5000 
    119 N         -3.7926  -21.7329  -54.7151 N.am      22 UNK        -0.5000 
    120 CA        -2.4398  -21.1980  -54.4973 C.3       22 UNK         0.1400 
    121 C         -1.3004  -22.0610  -55.1289 C.2       22 UNK         0.5000 
    122 N         -1.4202  -23.3825  -55.1317 N.am      22 UNK        -0.7600 
    123 O         -0.2950  -21.5471  -55.6116 O.2       22 UNK        -0.5000 
    124 C124       -2.3425  -19.6736  -54.8224 C.3       23 UNK        -0.0398 
    125 S125       -1.8085  -18.7126  -53.3704 S.3       23 UNK        -0.2404 
    126 C126       -0.0207  -18.5583  -53.6405 C.3       23 UNK        -0.0205 
    127 H127        4.3521  -15.3636  -45.7790 H         1 UNK         0.0600 
    128 H128        4.1109  -16.0861  -47.3703 H         1 UNK         0.0600 
    129 H129        2.9088  -16.3365  -46.1093 H         1 UNK         0.0600 
    130 H130        1.2995  -14.7718  -45.8058 H         1 UNK         0.3000 
    131 H131       -0.2065  -13.3084  -46.3262 H         1 UNK         0.0600 
    132 H132       -0.5379  -12.3894  -48.5427 H         1 UNK         0.0800 
    133 H133        1.1156  -12.6628  -49.0013 H         1 UNK         0.0800 
    134 H134        0.9753  -14.3062  -51.1188 H         1 UNK         0.0800 
    135 H135        2.1039  -14.6834  -49.8457 H         1 UNK         0.0800 
    136 H136       -0.0214  -16.1001  -52.4632 H         1 UNK         0.1150 
    137 H137        1.5531  -20.0592  -51.9951 H         1 UNK         0.1150 
    138 H138        2.4793  -17.0283  -49.1077 H         1 UNK         0.1150 
    139 H139        3.8444  -19.8801  -50.3683 H         1 UNK         0.0800 
    140 H140        3.4281  -19.1858  -48.8241 H         1 UNK         0.0800 
    141 H141        0.4101  -20.0974  -48.0032 H         1 UNK         0.0800 
    142 H142        1.9371  -20.1010  -47.1584 H         1 UNK         0.0800 
    143 H143        1.6906  -22.6855  -46.9848 H         1 UNK         0.0600 
    144 H144        0.6039  -20.7148  -45.2520 H         1 UNK         0.3000 
    145 H145       -0.2416  -22.9883  -42.6042 H         1 UNK         0.0600 
    146 H146        1.2150  -21.3938  -41.3773 H         1 UNK         0.0600 
    147 H147        2.1830  -22.4931  -42.3477 H         1 UNK         0.0600 
    148 H148        1.9265  -20.8412  -42.8920 H         1 UNK         0.0600 
    149 H149       -0.4978  -20.1613  -42.8200 H         1 UNK         0.3000 
    150 H150       -3.7172  -20.1252  -44.4057 H         1 UNK         0.0600 
    151 H151       -4.1747  -20.4030  -41.9776 H         1 UNK         0.0600 
    152 H152       -4.2004  -18.7033  -42.4245 H         1 UNK         0.0600 
    153 H153       -2.8068  -19.3725  -41.5787 H         1 UNK         0.0600 
    154 H154       -2.0853  -17.9791  -43.5628 H         1 UNK         0.3000 
    155 H155       -0.1252  -17.6578  -46.5657 H         1 UNK         0.0600 
    156 H156       -2.2205  -16.4504  -46.9465 H         1 UNK         0.0600 
    157 H157       -1.0638  -15.3573  -46.2126 H         1 UNK         0.0600 
    158 H158       -2.3675  -16.0336  -45.2474 H         1 UNK         0.0600 
    159 H159       -0.0896  -16.2907  -44.0343 H         1 UNK         0.3000 
    160 H160        2.2924  -18.4077  -42.4336 H         1 UNK         0.0600 
    161 H161        2.6548  -15.5926  -43.5886 H         1 UNK         0.0600 
    162 H162        3.7575  -16.9500  -43.7662 H         1 UNK         0.0600 
    163 H163        3.5011  -16.2352  -42.1845 H         1 UNK         0.0600 
    164 H164        0.9329  -15.9401  -41.7689 H         1 UNK         0.3000 
    165 H165       -1.8844  -17.4849  -40.2293 H         1 UNK         0.0600 
    166 H166       -1.0854  -16.2153  -38.2510 H         1 UNK         0.0600 
    167 H167       -0.1143  -17.6613  -38.4743 H         1 UNK         0.0600 
    168 H168        0.5314  -16.0940  -38.9461 H         1 UNK         0.0600 
    169 H169       -1.0121  -14.7735  -40.3706 H         1 UNK         0.3000 
    170 H170       -2.1642  -13.9795  -43.6176 H         1 UNK         0.0600 
    171 H171       -4.2990  -13.8867  -42.3278 H         1 UNK         0.0600 
    172 H172       -3.4489  -13.2339  -40.9322 H         1 UNK         0.0600 
    173 H173       -3.5537  -12.2993  -42.4248 H         1 UNK         0.0600 
    174 H174       -1.1547  -12.4515  -41.3890 H         1 UNK         0.3000 
    175 H175        0.9923  -11.5430  -41.5730 H         1 UNK         0.0600 
    176 H176        2.1836  -14.2807  -40.7819 H         1 UNK         0.0600 
    177 H177        2.4495  -12.7605  -39.9367 H         1 UNK         0.0600 
    178 H178        0.8646  -13.4933  -39.9224 H         1 UNK         0.0600 
    179 H179        2.4025  -12.8542  -43.6056 H         1 UNK         0.3000 
    180 H180        5.4463  -10.9439  -43.3125 H         1 UNK         0.0600 
    181 H181        4.6859  -13.8495  -43.9433 H         1 UNK         0.0600 
    182 H182        5.8761  -13.3296  -42.7599 H         1 UNK         0.0600 
    183 H183        6.1592  -13.0350  -44.4684 H         1 UNK         0.0600 
    184 H184        3.9926  -12.0580  -45.5386 H         1 UNK         0.3000 
    185 H185        2.1605   -9.1811  -46.4176 H         1 UNK         0.0600 
    186 H186        4.4074   -8.5929  -47.3379 H         1 UNK         0.0600 
    187 H187        4.6926  -10.2777  -47.7604 H         1 UNK         0.0600 
    188 H188        3.4098   -9.3682  -48.5587 H         1 UNK         0.0600 
    189 H189        2.7883  -11.8067  -47.5596 H         1 UNK         0.3000 
    190 H190       -1.6122  -21.3291  -46.7138 H         1 UNK         0.3000 
    191 H191       -2.8885  -22.4837  -48.8283 H         1 UNK         0.0600 
    192 H192       -4.0306  -22.0366  -46.0240 H         1 UNK         0.0600 
    193 H193       -4.9757  -22.1914  -47.4869 H         1 UNK         0.0600 
    194 H194       -3.9051  -20.8145  -47.2817 H         1 UNK         0.0600 
    195 H195       -2.0920  -24.1472  -45.8050 H         1 UNK         0.3000 
    196 H196       -3.6746  -26.4864  -46.1838 H         1 UNK         0.0600 
    197 H197       -2.1807  -27.4332  -44.4220 H         1 UNK         0.0600 
    198 H198       -2.7150  -25.8151  -43.9916 H         1 UNK         0.0600 
    199 H199       -1.0809  -26.0711  -44.6019 H         1 UNK         0.0600 
    200 H200       -0.5020  -25.5584  -47.4586 H         1 UNK         0.3000 
    201 H201        0.0067  -28.2650  -48.5884 H         1 UNK         0.0600 
    202 H202        1.8866  -27.1265  -47.4273 H         1 UNK         0.0600 
    203 H203        1.7356  -25.7347  -48.4982 H         1 UNK         0.0600 
    204 H204        2.2276  -27.2967  -49.1428 H         1 UNK         0.0600 
    205 H205       -0.6734  -24.8930  -49.4856 H         1 UNK         0.3000 
    206 H206       -0.3821  -25.2337  -52.3145 H         1 UNK         0.0600 
    207 H207        0.0187  -23.1093  -50.9905 H         1 UNK         0.0600 
    208 H208       -1.0355  -22.8854  -52.3651 H         1 UNK         0.0600 
    209 H209       -1.7227  -22.9675  -50.7514 H         1 UNK         0.0600 
    210 H210       -2.8258  -26.3901  -50.4149 H         1 UNK         0.3000 
    211 H211       -4.8519  -27.2356  -50.7079 H         1 UNK         0.0600 
    212 H212       -4.4219  -26.9216  -53.7268 H         1 UNK         0.0600 
    213 H213       -5.5892  -27.9710  -52.9378 H         1 UNK         0.0600 
    214 H214       -3.8708  -28.2883  -52.7583 H         1 UNK         0.0600 
    215 H215       -4.8264  -24.7911  -49.8720 H         1 UNK         0.3000 
    216 H216       -6.1382  -23.1392  -49.2893 H         1 UNK         0.0600 
    217 H217       -8.2694  -22.5166  -50.2886 H         1 UNK         0.0600 
    218 H218       -8.2192  -24.2590  -50.0652 H         1 UNK         0.0600 
    219 H219       -8.0015  -23.5624  -51.6702 H         1 UNK         0.0600 
    220 H220       -5.2358  -21.2329  -49.3918 H         1 UNK         0.3000 
    221 H221       -4.4724  -19.9891  -51.9794 H         1 UNK         0.0600 
    222 H222       -3.3044  -19.5776  -49.1652 H         1 UNK         0.0600 
    223 H223       -2.4980  -20.3769  -50.5136 H         1 UNK         0.0600 
    224 H224       -2.8601  -18.6593  -50.5901 H         1 UNK         0.0600 
    225 H225       -6.6536  -17.2112  -51.0392 H         1 UNK         0.3000 
    226 H226       -4.4307  -17.9295  -52.7836 H         1 UNK         0.0600 
    227 H227       -4.9876  -15.5719  -52.2672 H         1 UNK         0.0600 
    228 H228       -5.1440  -15.9014  -53.9826 H         1 UNK         0.0600 
    229 H229       -6.5868  -15.7794  -52.9825 H         1 UNK         0.0600 
    230 H230       -7.4201  -19.2887  -52.3896 H         1 UNK         0.3000 
    231 H231       -8.8074  -19.1991  -54.7300 H         1 UNK         0.0600 
    232 H232       -9.8768  -21.3305  -53.9393 H         1 UNK         0.0600 
    233 H233       -9.6978  -20.1529  -52.6486 H         1 UNK         0.0600 
    234 H234       -8.5927  -21.5222  -52.7528 H         1 UNK         0.0600 
    235 H235       -6.3607  -21.7466  -53.9750 H         1 UNK         0.3000 
    236 H236       -6.2074  -22.4256  -56.8950 H         1 UNK         0.0600 
    237 H237       -5.3307  -24.0827  -54.4747 H         1 UNK         0.0600 
    238 H238       -6.8051  -24.3549  -55.3990 H         1 UNK         0.0600 
    239 H239       -5.2334  -24.5584  -56.1623 H         1 UNK         0.0600 
    240 H240       -4.2935  -22.0286  -53.8829 H         1 UNK         0.3000 
    241 H241       -2.2957  -21.3215  -53.4247 H         1 UNK         0.0600 
    242 H242       -0.6923  -23.9405  -55.5473 H         1 UNK         0.3800 
    243 H243       -2.1844  -23.8388  -54.6413 H         1 UNK         0.3800 
    244 H244       -1.6956  -19.4567  -55.6736 H         1 UNK         0.0800 
    245 H245       -3.3171  -19.2783  -55.1108 H         1 UNK         0.0800 
    246 H246        0.1684  -17.8310  -54.4312 H         1 UNK         0.0800 
    247 H247        0.3813  -19.5103  -53.9888 H         1 UNK         0.0800 
@<TRIPOS>BOND
     1    1    2 1    
     2    1  127 1    
     3    1  128 1    
     4    1  129 1    
     5    2    3 2    
     6    2    4 am   BACKBONE|DICT|INTERRES
     7    4    5 1    
     8    4  130 1    
     9    5    6 1    
    10    5   65 1    
    11    5  131 1    
    12    6    7 1    
    13    6  132 1    
    14    6  133 1    
    15    7    8 1    
    16    8    9 1    
    17    8  134 1    
    18    8  135 1    
    19    9   10 ar   
    20    9   14 ar   
    21   10   11 ar   
    22   10  136 1    
    23   11   12 ar   
    24   11  126 1    
    25   12   13 ar   
    26   12  137 1    
    27   13   14 ar   
    28   13   15 1    
    29   14  138 1    
    30   15   16 1    
    31   15  139 1    
    32   15  140 1    
    33   16   17 1    
    34   17   18 1    
    35   17  141 1    
    36   17  142 1    
    37   18   19 1    
    38   18   67 1    
    39   18  143 1    
    40   19   20 am   BACKBONE|DICT|INTERRES
    41   19  144 1    
    42   20   21 2    
    43   20   22 1    
    44   22   23 1    
    45   22   24 1    
    46   22  145 1    
    47   23  146 1    
    48   23  147 1    
    49   23  148 1    
    50   24   25 am   BACKBONE|DICT|INTERRES
    51   24  149 1    
    52   25   26 2    
    53   25   27 1    
    54   27   28 1    
    55   27   29 1    
    56   27  150 1    
    57   28  151 1    
    58   28  152 1    
    59   28  153 1    
    60   29   30 am   BACKBONE|DICT|INTERRES
    61   29  154 1    
    62   30   31 2    
    63   30   32 1    
    64   32   33 1    
    65   32   34 1    
    66   32  155 1    
    67   33  156 1    
    68   33  157 1    
    69   33  158 1    
    70   34   35 am   BACKBONE|DICT|INTERRES
    71   34  159 1    
    72   35   36 2    
    73   35   37 1    
    74   37   38 1    
    75   37   39 1    
    76   37  160 1    
    77   38  161 1    
    78   38  162 1    
    79   38  163 1    
    80   39   40 am   BACKBONE|DICT|INTERRES
    81   39  164 1    
    82   40   41 2    
    83   40   42 1    
    84   42   43 1    
    85   42   44 1    
    86   42  165 1    
    87   43  166 1    
    88   43  167 1    
    89   43  168 1    
    90   44   45 am   BACKBONE|DICT|INTERRES
    91   44  169 1    
    92   45   46 2    
    93   45   47 1    
    94   47   48 1    
    95   47   49 1    
    96   47  170 1    
    97   48  171 1    
    98   48  172 1    
    99   48  173 1    
   100   49   50 am   BACKBONE|DICT|INTERRES
   101   49  174 1    
   102   50   51 2    
   103   50   52 1    
   104   52   53 1    
   105   52   54 1    
   106   52  175 1    
   107   53  176 1    
   108   53  177 1    
   109   53  178 1    
   110   54   55 am   BACKBONE|DICT|INTERRES
   111   54  179 1    
   112   55   56 2    
   113   55   57 1    
   114   57   58 1    
   115   57   59 1    
   116   57  180 1    
   117   58  181 1    
   118   58  182 1    
   119   58  183 1    
   120   59   60 am   BACKBONE|DICT|INTERRES
   121   59  184 1    
   122   60   61 2    
   123   60   62 1    
   124   62   63 1    
   125   62   64 1    
   126   62  185 1    
   127   63  186 1    
   128   63  187 1    
   129   63  188 1    
   130   64   65 am   BACKBONE|DICT|INTERRES
   131   64  189 1    
   132   65   66 2    
   133   67   68 2    
   134   67   69 am   BACKBONE|DICT|INTERRES
   135   69   70 1    
   136   69  190 1    
   137   70   71 1    
   138   70   72 1    
   139   70  191 1    
   140   71  192 1    
   141   71  193 1    
   142   71  194 1    
   143   72   73 2    
   144   72   74 am   BACKBONE|DICT|INTERRES
   145   74   75 1    
   146   74  195 1    
   147   75   76 1    
   148   75   77 1    
   149   75  196 1    
   150   76  197 1    
   151   76  198 1    
   152   76  199 1    
   153   77   78 2    
   154   77   79 am   BACKBONE|DICT|INTERRES
   155   79   80 1    
   156   79  200 1    
   157   80   81 1    
   158   80   82 1    
   159   80  201 1    
   160   81  202 1    
   161   81  203 1    
   162   81  204 1    
   163   82   83 2    
   164   82   84 am   BACKBONE|DICT|INTERRES
   165   84   85 1    
   166   84  205 1    
   167   85   86 1    
   168   85   87 1    
   169   85  206 1    
   170   86  207 1    
   171   86  208 1    
   172   86  209 1    
   173   87   88 2    
   174   87   89 am   BACKBONE|DICT|INTERRES
   175   89   90 1    
   176   89  210 1    
   177   90   91 1    
   178   90   92 1    
   179   90  211 1    
   180   91  212 1    
   181   91  213 1    
   182   91  214 1    
   183   92   93 2    
   184   92   94 am   BACKBONE|DICT|INTERRES
   185   94   95 1    
   186   94  215 1    
   187   95   96 1    
   188   95   97 1    
   189   95  216 1    
   190   96  217 1    
   191   96  218 1    
   192   96  219 1    
   193   97   98 2    
   194   97   99 am   BACKBONE|DICT|INTERRES
   195   99  100 1    
   196   99  220 1    
   197  100  101 1    
   198  100  102 1    
   199  100  221 1    
   200  101  222 1    
   201  101  223 1    
   202  101  224 1    
   203  102  103 2    
   204  102  104 am   BACKBONE|DICT|INTERRES
   205  104  105 1    
   206  104  225 1    
   207  105  106 1    
   208  105  107 1    
   209  105  226 1    
   210  106  227 1    
   211  106  228 1    
   212  106  229 1    
   213  107  108 2    
   214  107  109 am   BACKBONE|DICT|INTERRES
   215  109  110 1    
   216  109  230 1    
   217  110  111 1    
   218  110  112 1    
   219  110  231 1    
   220  111  232 1    
   221  111  233 1    
   222  111  234 1    
   223  112  113 2    
   224  112  114 am   BACKBONE|DICT|INTERRES
   225  114  115 1    
   226  114  235 1    
   227  115  116 1    
   228  115  117 1    
   229  115  236 1    
   230  116  237 1    
   231  116  238 1    
   232  116  239 1    
   233  117  118 2    
   234  117  119 am   BACKBONE|DICT|INTERRES
   235  119  120 1    
   236  119  240 1    
   237  120  121 1    
   238  120  124 1    
   239  120  241 1    
   240  121  122 am   BACKBONE|DICT|INTERRES
   241  121  123 2    
   242  122  242 1    
   243  122  243 1    
   244  124  125 1    
   245  124  244 1    
   246  124  245 1    
   247  125  126 1    
   248  126  246 1    
   249  126  247 1    
@<TRIPOS>SUBSTRUCTURE
     1 UNK         1 GROUP             0       ****    0 ROOT    
