@<TRIPOS>MOLECULE
3R540
247   249    1
SMALL
USER_CHARGES


@<TRIPOS>ATOM
      1 CA          3.2091  -11.4770  -42.3356 C.3       0 UNK        -0.1800 
      2 C           3.2085  -12.0332  -43.7527 C.2       0 UNK         0.5000 
      3 O           3.9011  -11.5013  -44.6205 O.2       0 UNK        -0.5000 
      4 N           2.4383  -13.1000  -43.9883 N.am      1 UNK        -0.5000 
      5 CA          2.4166  -13.8551  -45.2417 C.3       1 UNK         0.1400 
      6 C6          1.0067  -14.4451  -45.4977 C.3       23 UNK        -0.0398 
      7 S7          0.8965  -15.6798  -46.8405 S.3       23 UNK        -0.2404 
      8 C8          0.2070  -14.7092  -48.2189 C.3       23 UNK        -0.0205 
      9 C9         -0.2158  -15.6139  -49.3698 C.ar      23 UNK        -0.0193 
     10 C10        -1.5163  -15.5536  -49.8809 C.ar      23 UNK        -0.1150 
     11 C11        -1.9257  -16.4240  -50.8976 C.ar      23 UNK        -0.0193 
     12 C12        -1.0215  -17.3669  -51.3977 C.ar      23 UNK        -0.1150 
     13 C13         0.2854  -17.4261  -50.9047 C.ar      23 UNK        -0.0193 
     14 C14         0.6849  -16.5378  -49.9057 C.ar      23 UNK        -0.1150 
     15 C15         1.2731  -18.4551  -51.4283 C.3       23 UNK        -0.0205 
     16 S16         1.5092  -19.8151  -50.2397 S.3       23 UNK        -0.2404 
     17 C17        -0.0616  -20.7238  -50.4100 C.3       23 UNK        -0.0398 
     18 CA         -0.8653  -20.8125  -49.0913 C.3       11 UNK         0.1400 
     19 N          -1.2662  -19.4922  -48.5757 N.am      11 UNK        -0.5000 
     20 C          -1.8337  -19.2815  -47.3793 C.2       10 UNK         0.5000 
     21 O          -2.0619  -20.1774  -46.5614 O.2       10 UNK        -0.5000 
     22 CA         -2.2901  -17.8521  -47.0752 C.3       10 UNK         0.1400 
     23 CB         -3.6911  -17.5925  -47.6582 C.3       10 UNK        -0.1800 
     24 N          -2.2992  -17.6672  -45.6298 N.am      10 UNK        -0.5000 
     25 C          -2.2178  -16.4907  -45.0007 C.2       9 UNK         0.5000 
     26 O          -2.2430  -15.4097  -45.5932 O.2       9 UNK        -0.5000 
     27 CA         -2.0718  -16.5365  -43.4610 C.3       9 UNK         0.1400 
     28 CB         -1.2053  -17.7180  -42.9829 C.3       9 UNK        -0.1800 
     29 N          -1.4832  -15.3057  -42.9335 N.am      9 UNK        -0.5000 
     30 C          -2.1197  -14.1432  -42.7525 C.2       8 UNK         0.5000 
     31 O          -3.3363  -13.9979  -42.8882 O.2       8 UNK        -0.5000 
     32 CA         -1.2329  -12.9616  -42.3076 C.3       8 UNK         0.1400 
     33 CB         -2.0051  -11.6333  -42.2180 C.3       8 UNK        -0.1800 
     34 N          -0.6165  -13.2368  -41.0104 N.am      8 UNK        -0.5000 
     35 C           0.4962  -13.9515  -40.8129 C.2       7 UNK         0.5000 
     36 O           1.1773  -14.4265  -41.7268 O.2       7 UNK        -0.5000 
     37 CA          0.8712  -14.2085  -39.3493 C.3       7 UNK         0.1400 
     38 CB          0.0690  -15.3954  -38.7885 C.3       7 UNK        -0.1800 
     39 N           2.2984  -14.4923  -39.2237 N.am      7 UNK        -0.5000 
     40 C           3.0591  -14.1108  -38.1890 C.2       6 UNK         0.5000 
     41 O           2.6354  -13.4255  -37.2566 O.2       6 UNK        -0.5000 
     42 CA          4.5266  -14.5823  -38.1510 C.3       6 UNK         0.1400 
     43 CB          4.7554  -15.5276  -36.9600 C.3       6 UNK        -0.1800 
     44 N           4.9490  -15.2750  -39.3663 N.am      6 UNK        -0.5000 
     45 C           5.4555  -14.6956  -40.4582 C.2       5 UNK         0.5000 
     46 O           5.5977  -13.4792  -40.5818 O.2       5 UNK        -0.5000 
     47 CA          5.8582  -15.6306  -41.6139 C.3       5 UNK         0.1400 
     48 CB          7.2412  -16.2651  -41.3761 C.3       5 UNK        -0.1800 
     49 N           4.8438  -16.6393  -41.9434 N.am      5 UNK        -0.5000 
     50 C           4.4217  -17.7004  -41.2422 C.2       4 UNK         0.5000 
     51 O           4.8806  -18.0162  -40.1438 O.2       4 UNK        -0.5000 
     52 CA          3.2724  -18.5335  -41.8354 C.3       4 UNK         0.1400 
     53 CB          1.9317  -18.1092  -41.2159 C.3       4 UNK        -0.1800 
     54 N           3.1800  -18.4384  -43.2968 N.am      4 UNK        -0.5000 
     55 C           3.0377  -19.4907  -44.1173 C.2       3 UNK         0.5000 
     56 O           2.9701  -20.6562  -43.7244 O.2       3 UNK        -0.5000 
     57 CA          2.9466  -19.2171  -45.6347 C.3       3 UNK         0.1400 
     58 CB          1.4814  -19.2473  -46.0963 C.3       3 UNK        -0.1800 
     59 N           3.5440  -17.9465  -46.0449 N.am      3 UNK        -0.5000 
     60 C           4.8538  -17.6632  -46.0096 C.2       2 UNK         0.5000 
     61 O           5.7182  -18.4838  -45.7008 O.2       2 UNK        -0.5000 
     62 CA          5.2763  -16.2165  -46.3510 C.3       2 UNK         0.1400 
     63 CB          5.8563  -16.1547  -47.7725 C.3       2 UNK        -0.1800 
     64 N           4.2179  -15.2047  -46.2335 N.am      2 UNK        -0.5000 
     65 C           3.4911  -14.9512  -45.1371 C.2       1 UNK         0.5000 
     66 O           3.5918  -15.5935  -44.0914 O.2       1 UNK        -0.5000 
     67 C          -2.0641  -21.7726  -49.2708 C.2       11 UNK         0.5000 
     68 O          -1.8693  -22.9868  -49.2967 O.2       11 UNK        -0.5000 
     69 N          -3.2847  -21.2213  -49.3380 N.am      12 UNK        -0.5000 
     70 CA         -4.5650  -21.9313  -49.3483 C.3       12 UNK         0.1400 
     71 CB         -5.6875  -20.8830  -49.3765 C.3       12 UNK        -0.1800 
     72 C          -4.7722  -22.8882  -48.1562 C.2       12 UNK         0.5000 
     73 O          -5.5040  -23.8688  -48.2866 O.2       12 UNK        -0.5000 
     74 N          -4.1158  -22.6004  -47.0232 N.am      13 UNK        -0.5000 
     75 CA         -4.0926  -23.4644  -45.8444 C.3       13 UNK         0.1400 
     76 CB         -3.6495  -22.6301  -44.6323 C.3       13 UNK        -0.1800 
     77 C          -3.1756  -24.6936  -46.0137 C.2       13 UNK         0.5000 
     78 O          -3.3520  -25.6732  -45.2881 O.2       13 UNK        -0.5000 
     79 N          -2.2080  -24.6215  -46.9388 N.am      14 UNK        -0.5000 
     80 CA         -1.2009  -25.6540  -47.1721 C.3       14 UNK         0.1400 
     81 CB          0.1594  -24.9822  -47.4222 C.3       14 UNK        -0.1800 
     82 C          -1.5625  -26.5827  -48.3434 C.2       14 UNK         0.5000 
     83 O          -1.1896  -27.7563  -48.2988 O.2       14 UNK        -0.5000 
     84 N          -2.2621  -26.0703  -49.3664 N.am      15 UNK        -0.5000 
     85 CA         -2.6133  -26.8270  -50.5670 C.3       15 UNK         0.1400 
     86 CB         -1.4848  -26.6973  -51.6053 C.3       15 UNK        -0.1800 
     87 C          -3.9415  -26.3428  -51.1601 C.2       15 UNK         0.5000 
     88 O          -4.1906  -25.1372  -51.2132 O.2       15 UNK        -0.5000 
     89 N          -4.7384  -27.2933  -51.6670 N.am      16 UNK        -0.5000 
     90 CA         -6.0053  -27.0424  -52.3602 C.3       16 UNK         0.1400 
     91 CB         -6.7726  -28.3642  -52.5095 C.3       16 UNK        -0.1800 
     92 C          -5.8177  -26.3699  -53.7336 C.2       16 UNK         0.5000 
     93 O          -6.6798  -25.6005  -54.1563 O.2       16 UNK        -0.5000 
     94 N          -4.6778  -26.6310  -54.3901 N.am      17 UNK        -0.5000 
     95 CA         -4.2734  -25.9670  -55.6317 C.3       17 UNK         0.1400 
     96 CB         -3.0294  -26.6626  -56.2036 C.3       17 UNK        -0.1800 
     97 C          -4.0098  -24.4657  -55.4184 C.2       17 UNK         0.5000 
     98 O          -4.4228  -23.6456  -56.2378 O.2       17 UNK        -0.5000 
     99 N          -3.3819  -24.1291  -54.2839 N.am      18 UNK        -0.5000 
    100 CA        -3.1522  -22.7532  -53.8518 C.3       18 UNK         0.1400 
    101 CB        -2.0954  -22.7339  -52.7453 C.3       18 UNK        -0.1800 
    102 C         -4.4431  -22.0542  -53.3920 C.2       18 UNK         0.5000 
    103 O         -4.5559  -20.8395  -53.5503 O.2       18 UNK        -0.5000 
    104 N         -5.4103  -22.8204  -52.8680 N.am      19 UNK        -0.5000 
    105 CA        -6.7501  -22.3355  -52.5265 C.3       19 UNK         0.1400 
    106 CB        -7.4793  -23.3695  -51.6560 C.3       19 UNK        -0.1800 
    107 C         -7.5820  -21.9623  -53.7677 C.2       19 UNK         0.5000 
    108 O         -8.3932  -21.0396  -53.6943 O.2       19 UNK        -0.5000 
    109 N         -7.3487  -22.6595  -54.8871 N.am      20 UNK        -0.5000 
    110 CA        -7.9268  -22.3360  -56.1889 C.3       20 UNK         0.1400 
    111 CB        -7.8901  -23.5807  -57.0896 C.3       20 UNK        -0.1800 
    112 C         -7.2091  -21.1471  -56.8559 C.2       20 UNK         0.5000 
    113 O         -7.8763  -20.2569  -57.3841 O.2       20 UNK        -0.5000 
    114 N         -5.8681  -21.1568  -56.8307 N.am      21 UNK        -0.5000 
    115 CA        -5.0210  -20.1602  -57.4920 C.3       21 UNK         0.1400 
    116 CB        -3.5918  -20.7113  -57.6069 C.3       21 UNK        -0.1800 
    117 C         -5.0046  -18.7827  -56.8014 C.2       21 UNK         0.5000 
    118 O         -4.8751  -17.7682  -57.4880 O.2       21 UNK        -0.5000 
    119 N         -5.1151  -18.7679  -55.4699 N.am      22 UNK        -0.5000 
    120 CA        -5.0636  -17.5692  -54.6232 C.3       22 UNK         0.1400 
    121 C         -6.1338  -17.6418  -53.5033 C.2       22 UNK         0.5000 
    122 N         -6.1846  -18.7212  -52.7351 N.am      22 UNK        -0.7600 
    123 O         -6.9299  -16.7217  -53.3370 O.2       22 UNK        -0.5000 
    124 C124       -3.6298  -17.3482  -54.0689 C.3       23 UNK        -0.0398 
    125 S125       -3.4178  -15.7765  -53.1576 S.3       23 UNK        -0.2404 
    126 C126       -3.3517  -16.3584  -51.4301 C.3       23 UNK        -0.0205 
    127 H127        2.7947  -12.1880  -41.6216 H         1 UNK         0.0600 
    128 H128        2.6217  -10.5600  -42.2903 H         1 UNK         0.0600 
    129 H129        4.2280  -11.2486  -42.0218 H         1 UNK         0.0600 
    130 H130        1.9755  -13.5529  -43.2037 H         1 UNK         0.3000 
    131 H131        2.6646  -13.1973  -46.0774 H         1 UNK         0.0600 
    132 H132        0.6592  -14.9492  -44.5964 H         1 UNK         0.0800 
    133 H133        0.2923  -13.6415  -45.6800 H         1 UNK         0.0800 
    134 H134       -0.6463  -14.1341  -47.8557 H         1 UNK         0.0800 
    135 H135        0.9497  -13.9927  -48.5716 H         1 UNK         0.0800 
    136 H136       -2.2171  -14.8382  -49.4736 H         1 UNK         0.1150 
    137 H137       -1.3332  -18.0495  -52.1747 H         1 UNK         0.1150 
    138 H138        1.6927  -16.5919  -49.5178 H         1 UNK         0.1150 
    139 H139        0.9521  -18.8539  -52.3919 H         1 UNK         0.0800 
    140 H140        2.2351  -17.9718  -51.6051 H         1 UNK         0.0800 
    141 H141        0.1898  -21.7230  -50.7718 H         1 UNK         0.0800 
    142 H142       -0.6661  -20.2621  -51.1902 H         1 UNK         0.0800 
    143 H143       -0.2193  -21.2683  -48.3376 H         1 UNK         0.0600 
    144 H144       -1.0809  -18.7049  -49.1826 H         1 UNK         0.3000 
    145 H145       -1.5725  -17.1634  -47.5183 H         1 UNK         0.0600 
    146 H146       -4.0004  -16.5597  -47.4979 H         1 UNK         0.0600 
    147 H147       -3.7104  -17.7694  -48.7337 H         1 UNK         0.0600 
    148 H148       -4.4410  -18.2410  -47.2037 H         1 UNK         0.0600 
    149 H149       -2.2570  -18.5323  -45.1056 H         1 UNK         0.3000 
    150 H150       -3.0731  -16.6542  -43.0422 H         1 UNK         0.0600 
    151 H151       -0.2135  -17.6978  -43.4371 H         1 UNK         0.0600 
    152 H152       -1.6622  -18.6790  -43.2211 H         1 UNK         0.0600 
    153 H153       -1.0769  -17.6926  -41.9006 H         1 UNK         0.0600 
    154 H154       -0.4871  -15.3236  -42.7561 H         1 UNK         0.3000 
    155 H155       -0.4525  -12.8369  -43.0613 H         1 UNK         0.0600 
    156 H156       -2.8010  -11.6770  -41.4734 H         1 UNK         0.0600 
    157 H157       -2.4628  -11.3823  -43.1757 H         1 UNK         0.0600 
    158 H158       -1.3417  -10.8103  -41.9515 H         1 UNK         0.0600 
    159 H159       -1.1356  -12.9185  -40.2045 H         1 UNK         0.3000 
    160 H160        0.6201  -13.3082  -38.7845 H         1 UNK         0.0600 
    161 H161        0.2797  -16.3160  -39.3337 H         1 UNK         0.0600 
    162 H162       -1.0044  -15.2137  -38.8547 H         1 UNK         0.0600 
    163 H163        0.3031  -15.5683  -37.7380 H         1 UNK         0.0600 
    164 H164        2.7162  -14.9915  -39.9967 H         1 UNK         0.3000 
    165 H165        5.1491  -13.6969  -38.0062 H         1 UNK         0.0600 
    166 H166        4.4952  -15.0447  -36.0171 H         1 UNK         0.0600 
    167 H167        4.1518  -16.4323  -37.0442 H         1 UNK         0.0600 
    168 H168        5.8011  -15.8278  -36.8906 H         1 UNK         0.0600 
    169 H169        4.8745  -16.2889  -39.3703 H         1 UNK         0.3000 
    170 H170        5.9391  -15.0041  -42.5038 H         1 UNK         0.0600 
    171 H171        8.0031  -15.4952  -41.2494 H         1 UNK         0.0600 
    172 H172        7.2593  -16.8884  -40.4819 H         1 UNK         0.0600 
    173 H173        7.5405  -16.8831  -42.2226 H         1 UNK         0.0600 
    174 H174        4.3329  -16.4038  -42.7930 H         1 UNK         0.3000 
    175 H175        3.4704  -19.5651  -41.5372 H         1 UNK         0.0600 
    176 H176        1.1375  -18.7977  -41.5029 H         1 UNK         0.0600 
    177 H177        1.9808  -18.1101  -40.1262 H         1 UNK         0.0600 
    178 H178        1.6422  -17.1073  -41.5336 H         1 UNK         0.0600 
    179 H179        3.2375  -17.5102  -43.7012 H         1 UNK         0.3000 
    180 H180        3.4809  -20.0200  -46.1467 H         1 UNK         0.0600 
    181 H181        0.8861  -18.4816  -45.5982 H         1 UNK         0.0600 
    182 H182        1.0208  -20.2118  -45.8784 H         1 UNK         0.0600 
    183 H183        1.4025  -19.0864  -47.1716 H         1 UNK         0.0600 
    184 H184        2.9038  -17.2133  -46.3159 H         1 UNK         0.3000 
    185 H185        6.0644  -15.9424  -45.6469 H         1 UNK         0.0600 
    186 H186        6.2593  -15.1660  -47.9930 H         1 UNK         0.0600 
    187 H187        6.6711  -16.8695  -47.8958 H         1 UNK         0.0600 
    188 H188        5.1002  -16.3861  -48.5240 H         1 UNK         0.0600 
    189 H189        4.0464  -14.6539  -47.0622 H         1 UNK         0.3000 
    190 H190       -3.3407  -20.2153  -49.3110 H         1 UNK         0.3000 
    191 H191       -4.6048  -22.5282  -50.2596 H         1 UNK         0.0600 
    192 H192       -5.5804  -20.2096  -50.2264 H         1 UNK         0.0600 
    193 H193       -6.6665  -21.3578  -49.4515 H         1 UNK         0.0600 
    194 H194       -5.6898  -20.2747  -48.4710 H         1 UNK         0.0600 
    195 H195       -3.5326  -21.7726  -46.9859 H         1 UNK         0.3000 
    196 H196       -5.1049  -23.8283  -45.6561 H         1 UNK         0.0600 
    197 H197       -3.6643  -23.2274  -43.7198 H         1 UNK         0.0600 
    198 H198       -4.3124  -21.7791  -44.4745 H         1 UNK         0.0600 
    199 H199       -2.6360  -22.2467  -44.7574 H         1 UNK         0.0600 
    200 H200       -2.1642  -23.8145  -47.5511 H         1 UNK         0.3000 
    201 H201       -1.0983  -26.2756  -46.2800 H         1 UNK         0.0600 
    202 H202        0.9464  -25.7290  -47.5337 H         1 UNK         0.0600 
    203 H203        0.1553  -24.3771  -48.3289 H         1 UNK         0.0600 
    204 H204        0.4399  -24.3368  -46.5896 H         1 UNK         0.0600 
    205 H205       -2.5372  -25.0943  -49.3592 H         1 UNK         0.3000 
    206 H206       -2.7326  -27.8817  -50.3095 H         1 UNK         0.0600 
    207 H207       -0.5518  -27.1154  -51.2270 H         1 UNK         0.0600 
    208 H208       -1.7287  -27.2316  -52.5243 H         1 UNK         0.0600 
    209 H209       -1.2993  -25.6550  -51.8673 H         1 UNK         0.0600 
    210 H210       -4.4574  -28.2604  -51.5891 H         1 UNK         0.3000 
    211 H211       -6.6020  -26.3703  -51.7405 H         1 UNK         0.0600 
    212 H212       -6.2163  -29.0893  -53.1050 H         1 UNK         0.0600 
    213 H213       -7.7334  -28.2040  -53.0007 H         1 UNK         0.0600 
    214 H214       -6.9775  -28.8133  -51.5375 H         1 UNK         0.0600 
    215 H215       -4.0284  -27.2905  -53.9885 H         1 UNK         0.3000 
    216 H216       -5.0863  -26.0651  -56.3545 H         1 UNK         0.0600 
    217 H217       -2.7148  -26.1926  -57.1364 H         1 UNK         0.0600 
    218 H218       -3.2301  -27.7117  -56.4214 H         1 UNK         0.0600 
    219 H219       -2.1864  -26.6182  -55.5128 H         1 UNK         0.0600 
    220 H220       -3.1101  -24.8579  -53.6417 H         1 UNK         0.3000 
    221 H221       -2.7575  -22.1886  -54.6981 H         1 UNK         0.0600 
    222 H222       -2.4074  -23.3179  -51.8808 H         1 UNK         0.0600 
    223 H223       -1.1437  -23.1331  -53.0962 H         1 UNK         0.0600 
    224 H224       -1.9199  -21.7131  -52.4114 H         1 UNK         0.0600 
    225 H225       -5.2190  -23.8002  -52.7046 H         1 UNK         0.3000 
    226 H226       -6.6349  -21.4277  -51.9362 H         1 UNK         0.0600 
    227 H227       -8.3982  -22.9476  -51.2476 H         1 UNK         0.0600 
    228 H228       -7.7580  -24.2559  -52.2235 H         1 UNK         0.0600 
    229 H229       -6.8650  -23.6882  -50.8137 H         1 UNK         0.0600 
    230 H230       -6.7118  -23.4451  -54.8465 H         1 UNK         0.3000 
    231 H231       -8.9740  -22.0595  -56.0482 H         1 UNK         0.0600 
    232 H232       -6.8711  -23.9191  -57.2771 H         1 UNK         0.0600 
    233 H233       -8.3501  -23.3748  -58.0568 H         1 UNK         0.0600 
    234 H234       -8.4372  -24.4084  -56.6379 H         1 UNK         0.0600 
    235 H235       -5.3936  -21.9622  -56.4334 H         1 UNK         0.3000 
    236 H236       -5.4040  -20.0134  -58.5042 H         1 UNK         0.0600 
    237 H237       -3.5746  -21.6561  -58.1506 H         1 UNK         0.0600 
    238 H238       -2.9461  -20.0154  -58.1441 H         1 UNK         0.0600 
    239 H239       -3.1475  -20.8800  -56.6262 H         1 UNK         0.0600 
    240 H240       -5.2024  -19.6478  -54.9734 H         1 UNK         0.3000 
    241 H241       -5.3205  -16.6994  -55.2312 H         1 UNK         0.0600 
    242 H242       -5.5462  -19.4966  -52.8932 H         1 UNK         0.3800 
    243 H243       -6.8953  -18.7805  -52.0249 H         1 UNK         0.3800 
    244 H244       -2.9222  -17.3317  -54.8988 H         1 UNK         0.0800 
    245 H245       -3.3293  -18.1921  -53.4468 H         1 UNK         0.0800 
    246 H246       -3.8268  -17.3353  -51.3322 H         1 UNK         0.0800 
    247 H247       -3.9500  -15.6779  -50.8224 H         1 UNK         0.0800 
@<TRIPOS>BOND
     1    1    2 1    
     2    1  127 1    
     3    1  128 1    
     4    1  129 1    
     5    2    3 2    
     6    2    4 am   BACKBONE|DICT|INTERRES
     7    4    5 1    
     8    4  130 1    
     9    5    6 1    
    10    5   65 1    
    11    5  131 1    
    12    6    7 1    
    13    6  132 1    
    14    6  133 1    
    15    7    8 1    
    16    8    9 1    
    17    8  134 1    
    18    8  135 1    
    19    9   10 ar   
    20    9   14 ar   
    21   10   11 ar   
    22   10  136 1    
    23   11   12 ar   
    24   11  126 1    
    25   12   13 ar   
    26   12  137 1    
    27   13   14 ar   
    28   13   15 1    
    29   14  138 1    
    30   15   16 1    
    31   15  139 1    
    32   15  140 1    
    33   16   17 1    
    34   17   18 1    
    35   17  141 1    
    36   17  142 1    
    37   18   19 1    
    38   18   67 1    
    39   18  143 1    
    40   19   20 am   BACKBONE|DICT|INTERRES
    41   19  144 1    
    42   20   21 2    
    43   20   22 1    
    44   22   23 1    
    45   22   24 1    
    46   22  145 1    
    47   23  146 1    
    48   23  147 1    
    49   23  148 1    
    50   24   25 am   BACKBONE|DICT|INTERRES
    51   24  149 1    
    52   25   26 2    
    53   25   27 1    
    54   27   28 1    
    55   27   29 1    
    56   27  150 1    
    57   28  151 1    
    58   28  152 1    
    59   28  153 1    
    60   29   30 am   BACKBONE|DICT|INTERRES
    61   29  154 1    
    62   30   31 2    
    63   30   32 1    
    64   32   33 1    
    65   32   34 1    
    66   32  155 1    
    67   33  156 1    
    68   33  157 1    
    69   33  158 1    
    70   34   35 am   BACKBONE|DICT|INTERRES
    71   34  159 1    
    72   35   36 2    
    73   35   37 1    
    74   37   38 1    
    75   37   39 1    
    76   37  160 1    
    77   38  161 1    
    78   38  162 1    
    79   38  163 1    
    80   39   40 am   BACKBONE|DICT|INTERRES
    81   39  164 1    
    82   40   41 2    
    83   40   42 1    
    84   42   43 1    
    85   42   44 1    
    86   42  165 1    
    87   43  166 1    
    88   43  167 1    
    89   43  168 1    
    90   44   45 am   BACKBONE|DICT|INTERRES
    91   44  169 1    
    92   45   46 2    
    93   45   47 1    
    94   47   48 1    
    95   47   49 1    
    96   47  170 1    
    97   48  171 1    
    98   48  172 1    
    99   48  173 1    
   100   49   50 am   BACKBONE|DICT|INTERRES
   101   49  174 1    
   102   50   51 2    
   103   50   52 1    
   104   52   53 1    
   105   52   54 1    
   106   52  175 1    
   107   53  176 1    
   108   53  177 1    
   109   53  178 1    
   110   54   55 am   BACKBONE|DICT|INTERRES
   111   54  179 1    
   112   55   56 2    
   113   55   57 1    
   114   57   58 1    
   115   57   59 1    
   116   57  180 1    
   117   58  181 1    
   118   58  182 1    
   119   58  183 1    
   120   59   60 am   BACKBONE|DICT|INTERRES
   121   59  184 1    
   122   60   61 2    
   123   60   62 1    
   124   62   63 1    
   125   62   64 1    
   126   62  185 1    
   127   63  186 1    
   128   63  187 1    
   129   63  188 1    
   130   64   65 am   BACKBONE|DICT|INTERRES
   131   64  189 1    
   132   65   66 2    
   133   67   68 2    
   134   67   69 am   BACKBONE|DICT|INTERRES
   135   69   70 1    
   136   69  190 1    
   137   70   71 1    
   138   70   72 1    
   139   70  191 1    
   140   71  192 1    
   141   71  193 1    
   142   71  194 1    
   143   72   73 2    
   144   72   74 am   BACKBONE|DICT|INTERRES
   145   74   75 1    
   146   74  195 1    
   147   75   76 1    
   148   75   77 1    
   149   75  196 1    
   150   76  197 1    
   151   76  198 1    
   152   76  199 1    
   153   77   78 2    
   154   77   79 am   BACKBONE|DICT|INTERRES
   155   79   80 1    
   156   79  200 1    
   157   80   81 1    
   158   80   82 1    
   159   80  201 1    
   160   81  202 1    
   161   81  203 1    
   162   81  204 1    
   163   82   83 2    
   164   82   84 am   BACKBONE|DICT|INTERRES
   165   84   85 1    
   166   84  205 1    
   167   85   86 1    
   168   85   87 1    
   169   85  206 1    
   170   86  207 1    
   171   86  208 1    
   172   86  209 1    
   173   87   88 2    
   174   87   89 am   BACKBONE|DICT|INTERRES
   175   89   90 1    
   176   89  210 1    
   177   90   91 1    
   178   90   92 1    
   179   90  211 1    
   180   91  212 1    
   181   91  213 1    
   182   91  214 1    
   183   92   93 2    
   184   92   94 am   BACKBONE|DICT|INTERRES
   185   94   95 1    
   186   94  215 1    
   187   95   96 1    
   188   95   97 1    
   189   95  216 1    
   190   96  217 1    
   191   96  218 1    
   192   96  219 1    
   193   97   98 2    
   194   97   99 am   BACKBONE|DICT|INTERRES
   195   99  100 1    
   196   99  220 1    
   197  100  101 1    
   198  100  102 1    
   199  100  221 1    
   200  101  222 1    
   201  101  223 1    
   202  101  224 1    
   203  102  103 2    
   204  102  104 am   BACKBONE|DICT|INTERRES
   205  104  105 1    
   206  104  225 1    
   207  105  106 1    
   208  105  107 1    
   209  105  226 1    
   210  106  227 1    
   211  106  228 1    
   212  106  229 1    
   213  107  108 2    
   214  107  109 am   BACKBONE|DICT|INTERRES
   215  109  110 1    
   216  109  230 1    
   217  110  111 1    
   218  110  112 1    
   219  110  231 1    
   220  111  232 1    
   221  111  233 1    
   222  111  234 1    
   223  112  113 2    
   224  112  114 am   BACKBONE|DICT|INTERRES
   225  114  115 1    
   226  114  235 1    
   227  115  116 1    
   228  115  117 1    
   229  115  236 1    
   230  116  237 1    
   231  116  238 1    
   232  116  239 1    
   233  117  118 2    
   234  117  119 am   BACKBONE|DICT|INTERRES
   235  119  120 1    
   236  119  240 1    
   237  120  121 1    
   238  120  124 1    
   239  120  241 1    
   240  121  122 am   BACKBONE|DICT|INTERRES
   241  121  123 2    
   242  122  242 1    
   243  122  243 1    
   244  124  125 1    
   245  124  244 1    
   246  124  245 1    
   247  125  126 1    
   248  126  246 1    
   249  126  247 1    
@<TRIPOS>SUBSTRUCTURE
     1 UNK         1 GROUP             0       ****    0 ROOT    
