@<TRIPOS>MOLECULE
3R540
247   249    1
SMALL
USER_CHARGES


@<TRIPOS>ATOM
      1 CA         -4.8205  -10.9807  -45.3907 C.3       0 UNK        -0.1800 
      2 C          -4.4329  -12.4172  -45.7137 C.2       0 UNK         0.5000 
      3 O          -3.4632  -12.9265  -45.1530 O.2       0 UNK        -0.5000 
      4 N          -5.1918  -13.0640  -46.6082 N.am      1 UNK        -0.5000 
      5 CA         -4.9861  -14.4315  -47.1008 C.3       1 UNK         0.1400 
      6 C6         -5.1357  -15.5283  -46.0070 C.3       23 UNK        -0.0398 
      7 S7         -6.7861  -15.5402  -45.2283 S.3       23 UNK        -0.2404 
      8 C8         -7.8169  -16.3333  -46.5107 C.3       23 UNK        -0.0205 
      9 C9         -7.2667  -17.6728  -46.9841 C.ar      23 UNK        -0.0193 
     10 C10        -6.9414  -17.8665  -48.3309 C.ar      23 UNK        -0.1150 
     11 C11        -6.4587  -19.1016  -48.7763 C.ar      23 UNK        -0.0193 
     12 C12        -6.2611  -20.1321  -47.8518 C.ar      23 UNK        -0.1150 
     13 C13        -6.5720  -19.9486  -46.5007 C.ar      23 UNK        -0.0193 
     14 C14        -7.0911  -18.7220  -46.0778 C.ar      23 UNK        -0.1150 
     15 C15        -6.4026  -21.0997  -45.5186 C.3       23 UNK        -0.0205 
     16 S16        -5.4557  -20.6745  -44.0143 S.3       23 UNK        -0.2404 
     17 C17        -3.7976  -20.2108  -44.6410 C.3       23 UNK        -0.0398 
     18 CA         -2.9405  -21.2803  -45.3783 C.3       11 UNK         0.1400 
     19 N          -1.5122  -20.9229  -45.3819 N.am      11 UNK        -0.5000 
     20 C          -0.5521  -21.5462  -46.0831 C.2       10 UNK         0.5000 
     21 O          -0.7736  -22.4841  -46.8460 O.2       10 UNK        -0.5000 
     22 CA          0.9014  -21.0917  -45.8737 C.3       10 UNK         0.1400 
     23 CB          1.1903  -19.7708  -46.5975 C.3       10 UNK        -0.1800 
     24 N           1.2320  -20.9752  -44.4569 N.am      10 UNK        -0.5000 
     25 C           1.2800  -22.0146  -43.6117 C.2       9 UNK         0.5000 
     26 O           1.1614  -23.1880  -43.9629 O.2       9 UNK        -0.5000 
     27 CA          1.4396  -21.6831  -42.1187 C.3       9 UNK         0.1400 
     28 CB          2.9233  -21.5548  -41.7442 C.3       9 UNK        -0.1800 
     29 N           0.7262  -20.4586  -41.7501 N.am      9 UNK        -0.5000 
     30 C          -0.6094  -20.3463  -41.7087 C.2       8 UNK         0.5000 
     31 O          -1.3811  -21.2733  -41.9546 O.2       8 UNK        -0.5000 
     32 CA         -1.1758  -18.9529  -41.3793 C.3       8 UNK         0.1400 
     33 CB         -1.1626  -18.7059  -39.8636 C.3       8 UNK        -0.1800 
     34 N          -0.4484  -17.8769  -42.0545 N.am      8 UNK        -0.5000 
     35 C          -0.4454  -17.6809  -43.3805 C.2       7 UNK         0.5000 
     36 O          -1.0867  -18.3688  -44.1740 O.2       7 UNK        -0.5000 
     37 CA          0.4628  -16.5585  -43.9159 C.3       7 UNK         0.1400 
     38 CB         -0.2897  -15.2205  -43.9282 C.3       7 UNK        -0.1800 
     39 N           1.7236  -16.4068  -43.1834 N.am      7 UNK        -0.5000 
     40 C           2.6470  -17.3663  -43.0343 C.2       6 UNK         0.5000 
     41 O           2.5057  -18.5166  -43.4528 O.2       6 UNK        -0.5000 
     42 CA          3.9559  -16.9419  -42.3488 C.3       6 UNK         0.1400 
     43 CB          4.8715  -18.1337  -42.0175 C.3       6 UNK        -0.1800 
     44 N           4.6618  -16.0391  -43.2512 N.am      6 UNK        -0.5000 
     45 C           4.7399  -14.7095  -43.1184 C.2       5 UNK         0.5000 
     46 O           4.3118  -14.0885  -42.1449 O.2       5 UNK        -0.5000 
     47 CA          5.3668  -13.9433  -44.3001 C.3       5 UNK         0.1400 
     48 CB          6.8884  -13.8265  -44.1227 C.3       5 UNK        -0.1800 
     49 N           5.0756  -14.5595  -45.5999 N.am      5 UNK        -0.5000 
     50 C           3.8512  -14.6419  -46.1387 C.2       4 UNK         0.5000 
     51 O           2.8373  -14.1944  -45.5993 O.2       4 UNK        -0.5000 
     52 CA          3.7428  -15.3979  -47.4778 C.3       4 UNK         0.1400 
     53 CB          3.5569  -16.9010  -47.2158 C.3       4 UNK        -0.1800 
     54 N           2.6232  -14.9333  -48.2958 N.am      4 UNK        -0.5000 
     55 C           2.4813  -13.7015  -48.8040 C.2       3 UNK         0.5000 
     56 O           3.3461  -12.8277  -48.7213 O.2       3 UNK        -0.5000 
     57 CA          1.1649  -13.3913  -49.5500 C.3       3 UNK         0.1400 
     58 CB          1.4313  -13.2022  -51.0521 C.3       3 UNK        -0.1800 
     59 N           0.1244  -14.4120  -49.3906 N.am      3 UNK        -0.5000 
     60 C          -0.5678  -14.6463  -48.2687 C.2       2 UNK         0.5000 
     61 O          -0.4057  -14.0274  -47.2170 O.2       2 UNK        -0.5000 
     62 CA         -1.5789  -15.8059  -48.3311 C.3       2 UNK         0.1400 
     63 CB         -0.9789  -17.0920  -47.7423 C.3       2 UNK        -0.1800 
     64 N          -2.8312  -15.5208  -47.6355 N.am      2 UNK        -0.5000 
     65 C          -3.6831  -14.5280  -47.9283 C.2       1 UNK         0.5000 
     66 O          -3.5029  -13.7228  -48.8445 O.2       1 UNK        -0.5000 
     67 C          -3.1711  -22.7396  -44.9166 C.2       11 UNK         0.5000 
     68 O          -3.9687  -23.4452  -45.5344 O.2       11 UNK        -0.5000 
     69 N          -2.4041  -23.2112  -43.9231 N.am      12 UNK        -0.5000 
     70 CA         -2.3871  -24.6130  -43.4858 C.3       12 UNK         0.1400 
     71 CB         -1.5307  -24.7416  -42.2171 C.3       12 UNK        -0.1800 
     72 C          -1.9216  -25.6129  -44.5717 C.2       12 UNK         0.5000 
     73 O          -2.2444  -26.7972  -44.4749 O.2       12 UNK        -0.5000 
     74 N          -1.2136  -25.1203  -45.5970 N.am      13 UNK        -0.5000 
     75 CA         -0.8093  -25.8450  -46.8018 C.3       13 UNK         0.1400 
     76 CB          0.6933  -25.6040  -47.0359 C.3       13 UNK        -0.1800 
     77 C          -1.6533  -25.4244  -48.0270 C.2       13 UNK         0.5000 
     78 O          -1.1910  -25.5695  -49.1595 O.2       13 UNK        -0.5000 
     79 N          -2.8615  -24.8870  -47.7927 N.am      14 UNK        -0.5000 
     80 CA         -3.8353  -24.4079  -48.7823 C.3       14 UNK         0.1400 
     81 CB         -4.3660  -25.5759  -49.6402 C.3       14 UNK        -0.1800 
     82 C          -3.3046  -23.2325  -49.6284 C.2       14 UNK         0.5000 
     83 O          -3.5026  -23.2060  -50.8420 O.2       14 UNK        -0.5000 
     84 N          -2.6043  -22.3005  -48.9680 N.am      15 UNK        -0.5000 
     85 CA         -1.8580  -21.1730  -49.5378 C.3       15 UNK         0.1400 
     86 CB         -2.7892  -20.1475  -50.2039 C.3       15 UNK        -0.1800 
     87 C          -0.7110  -21.6580  -50.4401 C.2       15 UNK         0.5000 
     88 O          -0.5464  -21.1663  -51.5578 O.2       15 UNK        -0.5000 
     89 N           0.0409  -22.6429  -49.9270 N.am      16 UNK        -0.5000 
     90 CA          1.1340  -23.3576  -50.5937 C.3       16 UNK         0.1400 
     91 CB          2.3472  -22.4232  -50.7838 C.3       16 UNK        -0.1800 
     92 C           0.6688  -24.0331  -51.9021 C.2       16 UNK         0.5000 
     93 O           1.2885  -23.8498  -52.9500 O.2       16 UNK        -0.5000 
     94 N          -0.4425  -24.7778  -51.8053 N.am      17 UNK        -0.5000 
     95 CA         -1.1828  -25.4171  -52.8981 C.3       17 UNK         0.1400 
     96 CB         -0.3556  -26.5548  -53.5325 C.3       17 UNK        -0.1800 
     97 C          -1.7099  -24.3930  -53.9276 C.2       17 UNK         0.5000 
     98 O          -1.4986  -24.5515  -55.1316 O.2       17 UNK        -0.5000 
     99 N          -2.3916  -23.3604  -53.4124 N.am      18 UNK        -0.5000 
    100 CA        -3.0170  -22.2425  -54.1225 C.3       18 UNK         0.1400 
    101 CB        -4.2467  -22.7262  -54.9174 C.3       18 UNK        -0.1800 
    102 C         -2.0259  -21.4176  -54.9720 C.2       18 UNK         0.5000 
    103 O         -2.3316  -21.0659  -56.1138 O.2       18 UNK        -0.5000 
    104 N         -0.8470  -21.1392  -54.4028 N.am      19 UNK        -0.5000 
    105 CA         0.2255  -20.3730  -55.0358 C.3       19 UNK         0.1400 
    106 CB         1.5386  -21.1623  -54.9311 C.3       19 UNK        -0.1800 
    107 C          0.3871  -18.9883  -54.3904 C.2       19 UNK         0.5000 
    108 O          0.6335  -18.0160  -55.1050 O.2       19 UNK        -0.5000 
    109 N          0.2515  -18.9136  -53.0590 N.am      20 UNK        -0.5000 
    110 CA         0.4164  -17.6837  -52.2802 C.3       20 UNK         0.1400 
    111 CB         0.8825  -18.0517  -50.8624 C.3       20 UNK        -0.1800 
    112 C         -0.8627  -16.8262  -52.2273 C.2       20 UNK         0.5000 
    113 O         -0.7842  -15.6644  -51.8290 O.2       20 UNK        -0.5000 
    114 N         -2.0021  -17.4148  -52.6044 N.am      21 UNK        -0.5000 
    115 CA        -3.3491  -16.8535  -52.6741 C.3       21 UNK         0.1400 
    116 CB        -3.8193  -16.3359  -51.2990 C.3       21 UNK        -0.1800 
    117 C         -4.2791  -17.9589  -53.2020 C.2       21 UNK         0.5000 
    118 O         -3.8316  -19.0950  -53.3699 O.2       21 UNK        -0.5000 
    119 N         -5.5504  -17.6177  -53.4482 N.am      22 UNK        -0.5000 
    120 CA        -6.6095  -18.5287  -53.9323 C.3       22 UNK         0.1400 
    121 C         -6.4081  -19.0533  -55.3902 C.2       22 UNK         0.5000 
    122 N         -5.5339  -18.4609  -56.1943 N.am      22 UNK        -0.7600 
    123 O         -7.0803  -19.9877  -55.8182 O.2       22 UNK        -0.5000 
    124 C124       -6.9414  -19.6765  -52.9315 C.3       23 UNK        -0.0398 
    125 S125       -7.5841  -19.0802  -51.3278 S.3       23 UNK        -0.2404 
    126 C126       -6.1397  -19.3262  -50.2493 C.3       23 UNK        -0.0205 
    127 H127       -5.6990  -10.6607  -45.9517 H         1 UNK         0.0600 
    128 H128       -3.9985  -10.3071  -45.6329 H         1 UNK         0.0600 
    129 H129       -5.0417  -10.8821  -44.3279 H         1 UNK         0.0600 
    130 H130       -5.9588  -12.5688  -47.0403 H         1 UNK         0.3000 
    131 H131       -5.7798  -14.5993  -47.8297 H         1 UNK         0.0600 
    132 H132       -4.9494  -16.5219  -46.4152 H         1 UNK         0.0800 
    133 H133       -4.3970  -15.3903  -45.2164 H         1 UNK         0.0800 
    134 H134       -8.8182  -16.4884  -46.1071 H         1 UNK         0.0800 
    135 H135       -7.9327  -15.6441  -47.3482 H         1 UNK         0.0800 
    136 H136       -7.0826  -17.0644  -49.0418 H         1 UNK         0.1150 
    137 H137       -5.8797  -21.0860  -48.1886 H         1 UNK         0.1150 
    138 H138       -7.3506  -18.5791  -45.0380 H         1 UNK         0.1150 
    139 H139       -7.3952  -21.4314  -45.2118 H         1 UNK         0.0800 
    140 H140       -5.9448  -21.9563  -46.0105 H         1 UNK         0.0800 
    141 H141       -3.2522  -19.8714  -43.7604 H         1 UNK         0.0800 
    142 H142       -3.9004  -19.3267  -45.2719 H         1 UNK         0.0800 
    143 H143       -3.2637  -21.2522  -46.4204 H         1 UNK         0.0600 
    144 H144       -1.2529  -20.1214  -44.8114 H         1 UNK         0.3000 
    145 H145        1.5494  -21.8562  -46.3079 H         1 UNK         0.0600 
    146 H146        2.2473  -19.5156  -46.5262 H         1 UNK         0.0600 
    147 H147        0.9426  -19.8389  -47.6576 H         1 UNK         0.0600 
    148 H148        0.6193  -18.9464  -46.1744 H         1 UNK         0.0600 
    149 H149        1.4183  -20.0451  -44.0946 H         1 UNK         0.3000 
    150 H150        1.0146  -22.5088  -41.5440 H         1 UNK         0.0600 
    151 H151        3.4486  -22.4942  -41.9204 H         1 UNK         0.0600 
    152 H152        3.0476  -21.3050  -40.6905 H         1 UNK         0.0600 
    153 H153        3.4237  -20.7884  -42.3356 H         1 UNK         0.0600 
    154 H154        1.2893  -19.6342  -41.6023 H         1 UNK         0.3000 
    155 H155       -2.2136  -18.9259  -41.7177 H         1 UNK         0.0600 
    156 H156       -1.7125  -19.4870  -39.3368 H         1 UNK         0.0600 
    157 H157       -1.6342  -17.7549  -39.6154 H         1 UNK         0.0600 
    158 H158       -0.1478  -18.6922  -39.4640 H         1 UNK         0.0600 
    159 H159        0.1078  -17.2646  -41.4762 H         1 UNK         0.3000 
    160 H160        0.7229  -16.8087  -44.9454 H         1 UNK         0.0600 
    161 H161       -0.5460  -14.8904  -42.9210 H         1 UNK         0.0600 
    162 H162       -1.2179  -15.2973  -44.4969 H         1 UNK         0.0600 
    163 H163        0.3068  -14.4379  -44.3976 H         1 UNK         0.0600 
    164 H164        1.9381  -15.4779  -42.8488 H         1 UNK         0.3000 
    165 H165        3.6999  -16.4418  -41.4126 H         1 UNK         0.0600 
    166 H166        5.7982  -17.7980  -41.5520 H         1 UNK         0.0600 
    167 H167        4.3858  -18.8123  -41.3160 H         1 UNK         0.0600 
    168 H168        5.1344  -18.7069  -42.9076 H         1 UNK         0.0600 
    169 H169        5.0113  -16.4505  -44.1044 H         1 UNK         0.3000 
    170 H170        4.9448  -12.9360  -44.3019 H         1 UNK         0.0600 
    171 H171        7.1348  -13.3510  -43.1723 H         1 UNK         0.0600 
    172 H172        7.3728  -14.8036  -44.1361 H         1 UNK         0.0600 
    173 H173        7.3324  -13.2199  -44.9123 H         1 UNK         0.0600 
    174 H174        5.8619  -14.9494  -46.0998 H         1 UNK         0.3000 
    175 H175        4.6627  -15.2448  -48.0457 H         1 UNK         0.0600 
    176 H176        2.6520  -17.0942  -46.6382 H         1 UNK         0.0600 
    177 H177        3.4874  -17.4623  -48.1479 H         1 UNK         0.0600 
    178 H178        4.3966  -17.3106  -46.6531 H         1 UNK         0.0600 
    179 H179        1.8451  -15.5652  -48.3920 H         1 UNK         0.3000 
    180 H180        0.7813  -12.4509  -49.1492 H         1 UNK         0.0600 
    181 H181        1.8075  -14.1178  -51.5105 H         1 UNK         0.0600 
    182 H182        2.1698  -12.4186  -51.2264 H         1 UNK         0.0600 
    183 H183        0.5223  -12.9135  -51.5804 H         1 UNK         0.0600 
    184 H184       -0.1239  -14.9221  -50.2356 H         1 UNK         0.3000 
    185 H185       -1.8133  -15.9948  -49.3767 H         1 UNK         0.0600 
    186 H186       -1.6076  -17.9563  -47.9579 H         1 UNK         0.0600 
    187 H187       -0.8740  -17.0191  -46.6606 H         1 UNK         0.0600 
    188 H188        0.0096  -17.2976  -48.1516 H         1 UNK         0.0600 
    189 H189       -3.0314  -16.1102  -46.8430 H         1 UNK         0.3000 
    190 H190       -1.8050  -22.5666  -43.4164 H         1 UNK         0.3000 
    191 H191       -3.4125  -24.8823  -43.2244 H         1 UNK         0.0600 
    192 H192       -0.4863  -24.4994  -42.4086 H         1 UNK         0.0600 
    193 H193       -1.8897  -24.0796  -41.4288 H         1 UNK         0.0600 
    194 H194       -1.5630  -25.7593  -41.8265 H         1 UNK         0.0600 
    195 H195       -1.0023  -24.1292  -45.6049 H         1 UNK         0.3000 
    196 H196       -0.9619  -26.9172  -46.6668 H         1 UNK         0.0600 
    197 H197        1.2780  -25.9004  -46.1649 H         1 UNK         0.0600 
    198 H198        0.9082  -24.5543  -47.2375 H         1 UNK         0.0600 
    199 H199        1.0598  -26.1846  -47.8832 H         1 UNK         0.0600 
    200 H200       -3.1382  -24.7419  -46.8272 H         1 UNK         0.3000 
    201 H201       -4.6777  -24.0114  -48.2138 H         1 UNK         0.0600 
    202 H202       -5.1813  -25.2471  -50.2856 H         1 UNK         0.0600 
    203 H203       -4.7533  -26.3797  -49.0143 H         1 UNK         0.0600 
    204 H204       -3.5914  -25.9949  -50.2828 H         1 UNK         0.0600 
    205 H205       -2.3917  -22.4908  -47.9956 H         1 UNK         0.3000 
    206 H206       -1.3800  -20.6555  -48.7069 H         1 UNK         0.0600 
    207 H207       -3.3353  -20.5700  -51.0468 H         1 UNK         0.0600 
    208 H208       -2.2269  -19.2918  -50.5742 H         1 UNK         0.0600 
    209 H209       -3.5070  -19.7663  -49.4800 H         1 UNK         0.0600 
    210 H210       -0.2029  -22.9786  -49.0038 H         1 UNK         0.3000 
    211 H211        1.4366  -24.1626  -49.9223 H         1 UNK         0.0600 
    212 H212        2.6692  -21.9999  -49.8324 H         1 UNK         0.0600 
    213 H213        3.1959  -22.9654  -51.2020 H         1 UNK         0.0600 
    214 H214        2.1235  -21.5960  -51.4576 H         1 UNK         0.0600 
    215 H215       -0.8399  -24.9081  -50.8771 H         1 UNK         0.3000 
    216 H216       -2.0638  -25.8705  -52.4415 H         1 UNK         0.0600 
    217 H217       -0.9489  -27.1059  -54.2629 H         1 UNK         0.0600 
    218 H218        0.5282  -26.1783  -54.0481 H         1 UNK         0.0600 
    219 H219       -0.0253  -27.2687  -52.7779 H         1 UNK         0.0600 
    220 H220       -2.5476  -23.3453  -52.4065 H         1 UNK         0.3000 
    221 H221       -3.3794  -21.5775  -53.3400 H         1 UNK         0.0600 
    222 H222       -4.7891  -21.8824  -55.3456 H         1 UNK         0.0600 
    223 H223       -3.9643  -23.3869  -55.7375 H         1 UNK         0.0600 
    224 H224       -4.9433  -23.2644  -54.2746 H         1 UNK         0.0600 
    225 H225       -0.6917  -21.4335  -53.4427 H         1 UNK         0.3000 
    226 H226        0.0138  -20.2202  -56.0960 H         1 UNK         0.0600 
    227 H227        1.4468  -22.1422  -55.4001 H         1 UNK         0.0600 
    228 H228        2.3531  -20.6356  -55.4298 H         1 UNK         0.0600 
    229 H229        1.8339  -21.3171  -53.8931 H         1 UNK         0.0600 
    230 H230        0.0260  -19.7563  -52.5342 H         1 UNK         0.3000 
    231 H231        1.1979  -17.0745  -52.7394 H         1 UNK         0.0600 
    232 H232        1.1261  -17.1567  -50.2899 H         1 UNK         0.0600 
    233 H233        1.7805  -18.6694  -50.8899 H         1 UNK         0.0600 
    234 H234        0.1173  -18.6009  -50.3142 H         1 UNK         0.0600 
    235 H235       -1.9701  -18.3788  -52.9170 H         1 UNK         0.3000 
    236 H236       -3.3517  -16.0356  -53.3965 H         1 UNK         0.0600 
    237 H237       -3.3074  -15.4105  -51.0393 H         1 UNK         0.0600 
    238 H238       -4.8854  -16.1077  -51.2890 H         1 UNK         0.0600 
    239 H239       -3.6317  -17.0617  -50.5080 H         1 UNK         0.0600 
    240 H240       -5.8389  -16.6618  -53.2980 H         1 UNK         0.3000 
    241 H241       -7.5034  -17.9083  -54.0038 H         1 UNK         0.0600 
    242 H242       -5.4164  -18.8027  -57.1350 H         1 UNK         0.3800 
    243 H243       -4.9790  -17.6865  -55.8692 H         1 UNK         0.3800 
    244 H244       -6.0764  -20.3228  -52.7779 H         1 UNK         0.0800 
    245 H245       -7.7179  -20.3240  -53.3417 H         1 UNK         0.0800 
    246 H246       -5.3515  -18.6405  -50.5504 H         1 UNK         0.0800 
    247 H247       -5.7562  -20.3359  -50.4042 H         1 UNK         0.0800 
@<TRIPOS>BOND
     1    1    2 1    
     2    1  127 1    
     3    1  128 1    
     4    1  129 1    
     5    2    3 2    
     6    2    4 am   BACKBONE|DICT|INTERRES
     7    4    5 1    
     8    4  130 1    
     9    5    6 1    
    10    5   65 1    
    11    5  131 1    
    12    6    7 1    
    13    6  132 1    
    14    6  133 1    
    15    7    8 1    
    16    8    9 1    
    17    8  134 1    
    18    8  135 1    
    19    9   10 ar   
    20    9   14 ar   
    21   10   11 ar   
    22   10  136 1    
    23   11   12 ar   
    24   11  126 1    
    25   12   13 ar   
    26   12  137 1    
    27   13   14 ar   
    28   13   15 1    
    29   14  138 1    
    30   15   16 1    
    31   15  139 1    
    32   15  140 1    
    33   16   17 1    
    34   17   18 1    
    35   17  141 1    
    36   17  142 1    
    37   18   19 1    
    38   18   67 1    
    39   18  143 1    
    40   19   20 am   BACKBONE|DICT|INTERRES
    41   19  144 1    
    42   20   21 2    
    43   20   22 1    
    44   22   23 1    
    45   22   24 1    
    46   22  145 1    
    47   23  146 1    
    48   23  147 1    
    49   23  148 1    
    50   24   25 am   BACKBONE|DICT|INTERRES
    51   24  149 1    
    52   25   26 2    
    53   25   27 1    
    54   27   28 1    
    55   27   29 1    
    56   27  150 1    
    57   28  151 1    
    58   28  152 1    
    59   28  153 1    
    60   29   30 am   BACKBONE|DICT|INTERRES
    61   29  154 1    
    62   30   31 2    
    63   30   32 1    
    64   32   33 1    
    65   32   34 1    
    66   32  155 1    
    67   33  156 1    
    68   33  157 1    
    69   33  158 1    
    70   34   35 am   BACKBONE|DICT|INTERRES
    71   34  159 1    
    72   35   36 2    
    73   35   37 1    
    74   37   38 1    
    75   37   39 1    
    76   37  160 1    
    77   38  161 1    
    78   38  162 1    
    79   38  163 1    
    80   39   40 am   BACKBONE|DICT|INTERRES
    81   39  164 1    
    82   40   41 2    
    83   40   42 1    
    84   42   43 1    
    85   42   44 1    
    86   42  165 1    
    87   43  166 1    
    88   43  167 1    
    89   43  168 1    
    90   44   45 am   BACKBONE|DICT|INTERRES
    91   44  169 1    
    92   45   46 2    
    93   45   47 1    
    94   47   48 1    
    95   47   49 1    
    96   47  170 1    
    97   48  171 1    
    98   48  172 1    
    99   48  173 1    
   100   49   50 am   BACKBONE|DICT|INTERRES
   101   49  174 1    
   102   50   51 2    
   103   50   52 1    
   104   52   53 1    
   105   52   54 1    
   106   52  175 1    
   107   53  176 1    
   108   53  177 1    
   109   53  178 1    
   110   54   55 am   BACKBONE|DICT|INTERRES
   111   54  179 1    
   112   55   56 2    
   113   55   57 1    
   114   57   58 1    
   115   57   59 1    
   116   57  180 1    
   117   58  181 1    
   118   58  182 1    
   119   58  183 1    
   120   59   60 am   BACKBONE|DICT|INTERRES
   121   59  184 1    
   122   60   61 2    
   123   60   62 1    
   124   62   63 1    
   125   62   64 1    
   126   62  185 1    
   127   63  186 1    
   128   63  187 1    
   129   63  188 1    
   130   64   65 am   BACKBONE|DICT|INTERRES
   131   64  189 1    
   132   65   66 2    
   133   67   68 2    
   134   67   69 am   BACKBONE|DICT|INTERRES
   135   69   70 1    
   136   69  190 1    
   137   70   71 1    
   138   70   72 1    
   139   70  191 1    
   140   71  192 1    
   141   71  193 1    
   142   71  194 1    
   143   72   73 2    
   144   72   74 am   BACKBONE|DICT|INTERRES
   145   74   75 1    
   146   74  195 1    
   147   75   76 1    
   148   75   77 1    
   149   75  196 1    
   150   76  197 1    
   151   76  198 1    
   152   76  199 1    
   153   77   78 2    
   154   77   79 am   BACKBONE|DICT|INTERRES
   155   79   80 1    
   156   79  200 1    
   157   80   81 1    
   158   80   82 1    
   159   80  201 1    
   160   81  202 1    
   161   81  203 1    
   162   81  204 1    
   163   82   83 2    
   164   82   84 am   BACKBONE|DICT|INTERRES
   165   84   85 1    
   166   84  205 1    
   167   85   86 1    
   168   85   87 1    
   169   85  206 1    
   170   86  207 1    
   171   86  208 1    
   172   86  209 1    
   173   87   88 2    
   174   87   89 am   BACKBONE|DICT|INTERRES
   175   89   90 1    
   176   89  210 1    
   177   90   91 1    
   178   90   92 1    
   179   90  211 1    
   180   91  212 1    
   181   91  213 1    
   182   91  214 1    
   183   92   93 2    
   184   92   94 am   BACKBONE|DICT|INTERRES
   185   94   95 1    
   186   94  215 1    
   187   95   96 1    
   188   95   97 1    
   189   95  216 1    
   190   96  217 1    
   191   96  218 1    
   192   96  219 1    
   193   97   98 2    
   194   97   99 am   BACKBONE|DICT|INTERRES
   195   99  100 1    
   196   99  220 1    
   197  100  101 1    
   198  100  102 1    
   199  100  221 1    
   200  101  222 1    
   201  101  223 1    
   202  101  224 1    
   203  102  103 2    
   204  102  104 am   BACKBONE|DICT|INTERRES
   205  104  105 1    
   206  104  225 1    
   207  105  106 1    
   208  105  107 1    
   209  105  226 1    
   210  106  227 1    
   211  106  228 1    
   212  106  229 1    
   213  107  108 2    
   214  107  109 am   BACKBONE|DICT|INTERRES
   215  109  110 1    
   216  109  230 1    
   217  110  111 1    
   218  110  112 1    
   219  110  231 1    
   220  111  232 1    
   221  111  233 1    
   222  111  234 1    
   223  112  113 2    
   224  112  114 am   BACKBONE|DICT|INTERRES
   225  114  115 1    
   226  114  235 1    
   227  115  116 1    
   228  115  117 1    
   229  115  236 1    
   230  116  237 1    
   231  116  238 1    
   232  116  239 1    
   233  117  118 2    
   234  117  119 am   BACKBONE|DICT|INTERRES
   235  119  120 1    
   236  119  240 1    
   237  120  121 1    
   238  120  124 1    
   239  120  241 1    
   240  121  122 am   BACKBONE|DICT|INTERRES
   241  121  123 2    
   242  122  242 1    
   243  122  243 1    
   244  124  125 1    
   245  124  244 1    
   246  124  245 1    
   247  125  126 1    
   248  126  246 1    
   249  126  247 1    
@<TRIPOS>SUBSTRUCTURE
     1 UNK         1 GROUP             0       ****    0 ROOT    
