@<TRIPOS>MOLECULE
3R540
247   249    1
SMALL
USER_CHARGES


@<TRIPOS>ATOM
      1 CA         -3.3512  -13.0512  -52.2278 C.3       0 UNK        -0.1800 
      2 C          -2.1028  -12.5953  -51.4897 C.2       0 UNK         0.5000 
      3 O          -1.5318  -11.5585  -51.8313 O.2       0 UNK        -0.5000 
      4 N          -1.6677  -13.3711  -50.4915 N.am      1 UNK        -0.5000 
      5 CA         -0.5005  -13.0734  -49.6596 C.3       1 UNK         0.1400 
      6 C6          0.0255  -14.3309  -48.9252 C.3       23 UNK        -0.0398 
      7 S7          0.6242  -15.6090  -50.0772 S.3       23 UNK        -0.2404 
      8 C8          0.3340  -17.1133  -49.0994 C.3       23 UNK        -0.0205 
      9 C9          1.1712  -18.2635  -49.6318 C.ar      23 UNK        -0.0193 
     10 C10         0.6541  -19.1330  -50.5980 C.ar      23 UNK        -0.1150 
     11 C11         1.4446  -20.1627  -51.1189 C.ar      23 UNK        -0.0193 
     12 C12         2.7590  -20.3110  -50.6677 C.ar      23 UNK        -0.1150 
     13 C13         3.2734  -19.4739  -49.6740 C.ar      23 UNK        -0.0193 
     14 C14         2.4759  -18.4472  -49.1636 C.ar      23 UNK        -0.1150 
     15 C15         4.6858  -19.6905  -49.1479 C.3       23 UNK        -0.0205 
     16 S16         4.7018  -20.6775  -47.6143 S.3       23 UNK        -0.2404 
     17 C17         3.8268  -22.1825  -48.1627 C.3       23 UNK        -0.0398 
     18 CA          4.0608  -23.4307  -47.2760 C.3       11 UNK         0.1400 
     19 N           3.8101  -23.1596  -45.8565 N.am      11 UNK        -0.5000 
     20 C           4.4086  -23.7781  -44.8293 C.2       10 UNK         0.5000 
     21 O           5.3254  -24.5888  -44.9630 O.2       10 UNK        -0.5000 
     22 CA          3.8638  -23.4781  -43.4172 C.3       10 UNK         0.1400 
     23 CB          4.7546  -22.4525  -42.7011 C.3       10 UNK        -0.1800 
     24 N           2.4742  -23.0061  -43.4324 N.am      10 UNK        -0.5000 
     25 C           1.4217  -23.7851  -43.7320 C.2       9 UNK         0.5000 
     26 O           1.5234  -24.9908  -43.9563 O.2       9 UNK        -0.5000 
     27 CA          0.0364  -23.1202  -43.8713 C.3       9 UNK         0.1400 
     28 CB         -0.7756  -23.2961  -42.5801 C.3       9 UNK        -0.1800 
     29 N           0.0848  -21.7011  -44.2245 N.am      9 UNK        -0.5000 
     30 C           0.6559  -21.1941  -45.3256 C.2       8 UNK         0.5000 
     31 O           1.1588  -21.8941  -46.2046 O.2       8 UNK        -0.5000 
     32 CA          0.7443  -19.6563  -45.4227 C.3       8 UNK         0.1400 
     33 CB         -0.4711  -19.0830  -46.1641 C.3       8 UNK        -0.1800 
     34 N           0.8577  -19.0014  -44.1149 N.am      8 UNK        -0.5000 
     35 C           1.8568  -19.1920  -43.2401 C.2       7 UNK         0.5000 
     36 O           2.8116  -19.9379  -43.4498 O.2       7 UNK        -0.5000 
     37 CA          1.7383  -18.4813  -41.8823 C.3       7 UNK         0.1400 
     38 CB          2.1612  -17.0082  -41.9817 C.3       7 UNK        -0.1800 
     39 N           0.3727  -18.5696  -41.3688 N.am      7 UNK        -0.5000 
     40 C          -0.1108  -19.6217  -40.6937 C.2       6 UNK         0.5000 
     41 O           0.5744  -20.5855  -40.3520 O.2       6 UNK        -0.5000 
     42 CA         -1.6140  -19.6071  -40.3502 C.3       6 UNK         0.1400 
     43 CB         -1.8375  -19.0278  -38.9452 C.3       6 UNK        -0.1800 
     44 N          -2.4220  -18.8524  -41.3100 N.am      6 UNK        -0.5000 
     45 C          -2.6342  -19.2156  -42.5827 C.2       5 UNK         0.5000 
     46 O          -2.2000  -20.2534  -43.0779 O.2       5 UNK        -0.5000 
     47 CA         -3.4129  -18.2207  -43.4653 C.3       5 UNK         0.1400 
     48 CB         -4.9212  -18.4985  -43.3908 C.3       5 UNK        -0.1800 
     49 N          -3.1588  -16.8160  -43.1275 N.am      5 UNK        -0.5000 
     50 C          -1.9553  -16.2292  -43.1711 C.2       4 UNK         0.5000 
     51 O          -0.9208  -16.8262  -43.4780 O.2       4 UNK        -0.5000 
     52 CA         -1.8966  -14.7587  -42.7189 C.3       4 UNK         0.1400 
     53 CB         -1.9573  -14.6781  -41.1847 C.3       4 UNK        -0.1800 
     54 N          -0.6808  -14.0797  -43.1680 N.am      4 UNK        -0.5000 
     55 C          -0.3987  -13.7748  -44.4397 C.2       3 UNK         0.5000 
     56 O          -1.1468  -14.0166  -45.3900 O.2       3 UNK        -0.5000 
     57 CA          0.9659  -13.1040  -44.6873 C.3       3 UNK         0.1400 
     58 CB          2.0343  -14.1622  -45.0050 C.3       3 UNK        -0.1800 
     59 N           0.9026  -12.1615  -45.8008 N.am      3 UNK        -0.5000 
     60 C           0.2516  -10.9894  -45.7953 C.2       2 UNK         0.5000 
     61 O          -0.2697  -10.4976  -44.7936 O.2       2 UNK        -0.5000 
     62 CA          0.1629  -10.2506  -47.1469 C.3       2 UNK         0.1400 
     63 CB          1.3085   -9.2363  -47.2859 C.3       2 UNK        -0.1800 
     64 N           0.2019  -11.1805  -48.2798 N.am      2 UNK        -0.5000 
     65 C          -0.8230  -11.9674  -48.6358 C.2       1 UNK         0.5000 
     66 O          -1.9549  -11.8753  -48.1537 O.2       1 UNK        -0.5000 
     67 C           3.1763  -24.5912  -47.7920 C.2       11 UNK         0.5000 
     68 O           3.2828  -24.9472  -48.9657 O.2       11 UNK        -0.5000 
     69 N           2.3021  -25.1303  -46.9265 N.am      12 UNK        -0.5000 
     70 CA          1.2415  -26.1024  -47.2008 C.3       12 UNK         0.1400 
     71 CB          1.8063  -27.4233  -47.7658 C.3       12 UNK        -0.1800 
     72 C           0.0875  -25.5183  -48.0434 C.2       12 UNK         0.5000 
     73 O          -0.6012  -26.2715  -48.7344 O.2       12 UNK        -0.5000 
     74 N          -0.1319  -24.1972  -47.9562 N.am      13 UNK        -0.5000 
     75 CA         -1.2817  -23.5268  -48.5611 C.3       13 UNK         0.1400 
     76 CB         -1.0183  -22.0154  -48.6309 C.3       13 UNK        -0.1800 
     77 C          -2.5553  -23.7987  -47.7417 C.2       13 UNK         0.5000 
     78 O          -2.4930  -23.8682  -46.5119 O.2       13 UNK        -0.5000 
     79 N          -3.6942  -23.9113  -48.4322 N.am      14 UNK        -0.5000 
     80 CA         -5.0135  -24.1102  -47.8283 C.3       14 UNK         0.1400 
     81 CB         -5.9813  -24.5927  -48.9202 C.3       14 UNK        -0.1800 
     82 C          -5.5789  -22.8528  -47.1345 C.2       14 UNK         0.5000 
     83 O          -6.5031  -22.9753  -46.3296 O.2       14 UNK        -0.5000 
     84 N          -5.0405  -21.6741  -47.4670 N.am      15 UNK        -0.5000 
     85 CA         -5.4731  -20.3596  -47.0060 C.3       15 UNK         0.1400 
     86 CB         -6.8093  -19.9827  -47.6821 C.3       15 UNK        -0.1800 
     87 C          -4.3717  -19.3363  -47.3313 C.2       15 UNK         0.5000 
     88 O          -3.3294  -19.7078  -47.8735 O.2       15 UNK        -0.5000 
     89 N          -4.6435  -18.0551  -47.0459 N.am      16 UNK        -0.5000 
     90 CA         -3.7848  -16.9038  -47.3616 C.3       16 UNK         0.1400 
     91 CB         -4.2698  -15.6946  -46.5454 C.3       16 UNK        -0.1800 
     92 C          -3.7152  -16.5481  -48.8665 C.2       16 UNK         0.5000 
     93 O          -3.0280  -15.5925  -49.2254 O.2       16 UNK        -0.5000 
     94 N          -4.4174  -17.3190  -49.7078 N.am      17 UNK        -0.5000 
     95 CA         -4.5132  -17.2329  -51.1653 C.3       17 UNK         0.1400 
     96 CB         -3.1171  -17.2684  -51.8268 C.3       17 UNK        -0.1800 
     97 C          -5.3716  -16.0576  -51.6685 C.2       17 UNK         0.5000 
     98 O          -5.6865  -15.1236  -50.9292 O.2       17 UNK        -0.5000 
     99 N          -5.7398  -16.1699  -52.9452 N.am      18 UNK        -0.5000 
    100 CA        -6.5299  -15.2603  -53.7744 C.3       18 UNK         0.1400 
    101 CB        -7.9086  -14.9382  -53.1613 C.3       18 UNK        -0.1800 
    102 C         -6.6708  -15.9776  -55.1223 C.2       18 UNK         0.5000 
    103 O         -6.2072  -15.4784  -56.1476 O.2       18 UNK        -0.5000 
    104 N         -7.1893  -17.2108  -55.0461 N.am      19 UNK        -0.5000 
    105 CA        -6.8628  -18.3038  -55.9578 C.3       19 UNK         0.1400 
    106 CB        -8.0322  -19.3024  -55.9605 C.3       19 UNK        -0.1800 
    107 C         -5.5591  -18.9804  -55.4799 C.2       19 UNK         0.5000 
    108 O         -5.0437  -18.6403  -54.4078 O.2       19 UNK        -0.5000 
    109 N         -5.0487  -19.9317  -56.2695 N.am      20 UNK        -0.5000 
    110 CA        -3.8469  -20.7130  -55.9726 C.3       20 UNK         0.1400 
    111 CB        -3.3636  -21.3903  -57.2673 C.3       20 UNK        -0.1800 
    112 C         -4.0881  -21.7319  -54.8383 C.2       20 UNK         0.5000 
    113 O         -4.3087  -22.9151  -55.1035 O.2       20 UNK        -0.5000 
    114 N         -4.0407  -21.2539  -53.5876 N.am      21 UNK        -0.5000 
    115 CA        -4.2794  -22.0279  -52.3625 C.3       21 UNK         0.1400 
    116 CB        -4.3327  -21.0720  -51.1611 C.3       21 UNK        -0.1800 
    117 C         -3.2759  -23.1696  -52.1004 C.2       21 UNK         0.5000 
    118 O         -3.5695  -24.0430  -51.2842 O.2       21 UNK        -0.5000 
    119 N         -2.1266  -23.1504  -52.7841 N.am      22 UNK        -0.5000 
    120 CA        -1.1624  -24.2616  -52.8314 C.3       22 UNK         0.1400 
    121 C         -1.5163  -25.3554  -53.8845 C.2       22 UNK         0.5000 
    122 N         -2.5430  -25.1975  -54.7127 N.am      22 UNK        -0.7600 
    123 O         -0.8486  -26.3841  -53.9455 O.2       22 UNK        -0.5000 
    124 C124        0.2871  -23.7488  -53.0233 C.3       23 UNK        -0.0398 
    125 S125        0.8854  -22.8333  -51.5663 S.3       23 UNK        -0.2404 
    126 C126        0.8931  -21.1156  -52.1707 C.3       23 UNK        -0.0205 
    127 H127       -4.2382  -12.8626  -51.6232 H         1 UNK         0.0600 
    128 H128       -3.2981  -14.1164  -52.4491 H         1 UNK         0.0600 
    129 H129       -3.4607  -12.5177  -53.1721 H         1 UNK         0.0600 
    130 H130       -2.2058  -14.1849  -50.1998 H         1 UNK         0.3000 
    131 H131        0.2949  -12.7069  -50.3126 H         1 UNK         0.0600 
    132 H132        0.8610  -14.0769  -48.2714 H         1 UNK         0.0800 
    133 H133       -0.7474  -14.7484  -48.2771 H         1 UNK         0.0800 
    134 H134        0.5899  -16.9255  -48.0558 H         1 UNK         0.0800 
    135 H135       -0.7267  -17.3677  -49.1222 H         1 UNK         0.0800 
    136 H136       -0.3584  -18.9996  -50.9502 H         1 UNK         0.1150 
    137 H137        3.3716  -21.1041  -51.0727 H         1 UNK         0.1150 
    138 H138        2.8735  -17.7873  -48.4054 H         1 UNK         0.1150 
    139 H139        5.3009  -20.1850  -49.9014 H         1 UNK         0.0800 
    140 H140        5.1584  -18.7265  -48.9544 H         1 UNK         0.0800 
    141 H141        2.7635  -21.9443  -48.2245 H         1 UNK         0.0800 
    142 H142        4.1457  -22.4026  -49.1827 H         1 UNK         0.0800 
    143 H143        5.1014  -23.7376  -47.3998 H         1 UNK         0.0600 
    144 H144        3.0493  -22.5155  -45.6713 H         1 UNK         0.3000 
    145 H145        3.8970  -24.4080  -42.8455 H         1 UNK         0.0600 
    146 H146        4.3544  -22.1919  -41.7211 H         1 UNK         0.0600 
    147 H147        4.8584  -21.5344  -43.2796 H         1 UNK         0.0600 
    148 H148        5.7577  -22.8524  -42.5482 H         1 UNK         0.0600 
    149 H149        2.3355  -22.0102  -43.3016 H         1 UNK         0.3000 
    150 H150       -0.4888  -23.6373  -44.6763 H         1 UNK         0.0600 
    151 H151       -0.8416  -24.3480  -42.2990 H         1 UNK         0.0600 
    152 H152       -1.7953  -22.9311  -42.7030 H         1 UNK         0.0600 
    153 H153       -0.3236  -22.7603  -41.7454 H         1 UNK         0.0600 
    154 H154       -0.3932  -21.0638  -43.5972 H         1 UNK         0.3000 
    155 H155        1.6425  -19.4094  -45.9927 H         1 UNK         0.0600 
    156 H156       -0.4561  -19.3721  -47.2149 H         1 UNK         0.0600 
    157 H157       -0.4854  -17.9937  -46.1282 H         1 UNK         0.0600 
    158 H158       -1.4073  -19.4444  -45.7393 H         1 UNK         0.0600 
    159 H159        0.1302  -18.3321  -43.8772 H         1 UNK         0.3000 
    160 H160        2.4199  -18.9750  -41.1860 H         1 UNK         0.0600 
    161 H161        1.4995  -16.4405  -42.6335 H         1 UNK         0.0600 
    162 H162        3.1727  -16.9180  -42.3797 H         1 UNK         0.0600 
    163 H163        2.1525  -16.5310  -41.0018 H         1 UNK         0.0600 
    164 H164       -0.2663  -17.8462  -41.6699 H         1 UNK         0.3000 
    165 H165       -1.9622  -20.6423  -40.3542 H         1 UNK         0.0600 
    166 H166       -2.8876  -19.0833  -38.6578 H         1 UNK         0.0600 
    167 H167       -1.2680  -19.5830  -38.1987 H         1 UNK         0.0600 
    168 H168       -1.5267  -17.9839  -38.8858 H         1 UNK         0.0600 
    169 H169       -2.8179  -17.9825  -40.9865 H         1 UNK         0.3000 
    170 H170       -3.0899  -18.3738  -44.4960 H         1 UNK         0.0600 
    171 H171       -5.1401  -19.5370  -43.6420 H         1 UNK         0.0600 
    172 H172       -5.3149  -18.3150  -42.3903 H         1 UNK         0.0600 
    173 H173       -5.4748  -17.8710  -44.0891 H         1 UNK         0.0600 
    174 H174       -3.9595  -16.2716  -42.8404 H         1 UNK         0.3000 
    175 H175       -2.7577  -14.2341  -43.1382 H         1 UNK         0.0600 
    176 H176       -1.1168  -15.1961  -40.7204 H         1 UNK         0.0600 
    177 H177       -1.9419  -13.6427  -40.8437 H         1 UNK         0.0600 
    178 H178       -2.8731  -15.1280  -40.7993 H         1 UNK         0.0600 
    179 H179        0.0038  -13.8772  -42.4550 H         1 UNK         0.3000 
    180 H180        1.2653  -12.5568  -43.7909 H         1 UNK         0.0600 
    181 H181        2.1726  -14.8414  -44.1649 H         1 UNK         0.0600 
    182 H182        3.0013  -13.7013  -45.2073 H         1 UNK         0.0600 
    183 H183        1.7607  -14.7659  -45.8716 H         1 UNK         0.0600 
    184 H184        1.2876  -12.4813  -46.6746 H         1 UNK         0.3000 
    185 H185       -0.7824   -9.7041  -47.1694 H         1 UNK         0.0600 
    186 H186        1.2917   -8.5155  -46.4673 H         1 UNK         0.0600 
    187 H187        2.2842   -9.7238  -47.2736 H         1 UNK         0.0600 
    188 H188        1.2255   -8.6727  -48.2153 H         1 UNK         0.0600 
    189 H189        1.0918  -11.2829  -48.7467 H         1 UNK         0.3000 
    190 H190        2.3146  -24.7842  -45.9756 H         1 UNK         0.3000 
    191 H191        0.8012  -26.3359  -46.2307 H         1 UNK         0.0600 
    192 H192        1.0404  -28.1995  -47.7782 H         1 UNK         0.0600 
    193 H193        2.6310  -27.7932  -47.1567 H         1 UNK         0.0600 
    194 H194        2.1663  -27.3094  -48.7884 H         1 UNK         0.0600 
    195 H195        0.4485  -23.6295  -47.3513 H         1 UNK         0.3000 
    196 H196       -1.4066  -23.9047  -49.5771 H         1 UNK         0.0600 
    197 H197       -1.1566  -21.5436  -47.6591 H         1 UNK         0.0600 
    198 H198       -0.0058  -21.7911  -48.9651 H         1 UNK         0.0600 
    199 H199       -1.7065  -21.5330  -49.3253 H         1 UNK         0.0600 
    200 H200       -3.6609  -23.9029  -49.4499 H         1 UNK         0.3000 
    201 H201       -4.9325  -24.8941  -47.0724 H         1 UNK         0.0600 
    202 H202       -6.9708  -24.7939  -48.5075 H         1 UNK         0.0600 
    203 H203       -5.6280  -25.5155  -49.3808 H         1 UNK         0.0600 
    204 H204       -6.0987  -23.8488  -49.7094 H         1 UNK         0.0600 
    205 H205       -4.2256  -21.6500  -48.0665 H         1 UNK         0.3000 
    206 H206       -5.6001  -20.3874  -45.9226 H         1 UNK         0.0600 
    207 H207       -7.5888  -20.7115  -47.4605 H         1 UNK         0.0600 
    208 H208       -7.1792  -19.0174  -47.3355 H         1 UNK         0.0600 
    209 H209       -6.7074  -19.9286  -48.7668 H         1 UNK         0.0600 
    210 H210       -5.5341  -17.8312  -46.6265 H         1 UNK         0.3000 
    211 H211       -2.7679  -17.1421  -47.0433 H         1 UNK         0.0600 
    212 H212       -5.2679  -15.3788  -46.8513 H         1 UNK         0.0600 
    213 H213       -3.6016  -14.8417  -46.6750 H         1 UNK         0.0600 
    214 H214       -4.3003  -15.9180  -45.4805 H         1 UNK         0.0600 
    215 H215       -4.9634  -18.0542  -49.2869 H         1 UNK         0.3000 
    216 H216       -5.0392  -18.1370  -51.4697 H         1 UNK         0.0600 
    217 H217       -3.1921  -17.3708  -52.9092 H         1 UNK         0.0600 
    218 H218       -2.5347  -18.1148  -51.4646 H         1 UNK         0.0600 
    219 H219       -2.5437  -16.3623  -51.6325 H         1 UNK         0.0600 
    220 H220       -5.4100  -16.9891  -53.4528 H         1 UNK         0.3000 
    221 H221       -5.9681  -14.3361  -53.9215 H         1 UNK         0.0600 
    222 H222       -8.5295  -14.3881  -53.8695 H         1 UNK         0.0600 
    223 H223       -8.4517  -15.8402  -52.8780 H         1 UNK         0.0600 
    224 H224       -7.8134  -14.3146  -52.2730 H         1 UNK         0.0600 
    225 H225       -7.5285  -17.5048  -54.1416 H         1 UNK         0.3000 
    226 H226       -6.7124  -17.9199  -56.9689 H         1 UNK         0.0600 
    227 H227       -8.9639  -18.8144  -56.2473 H         1 UNK         0.0600 
    228 H228       -7.8614  -20.1114  -56.6715 H         1 UNK         0.0600 
    229 H229       -8.1801  -19.7537  -54.9784 H         1 UNK         0.0600 
    230 H230       -5.5385  -20.1761  -57.1179 H         1 UNK         0.3000 
    231 H231       -3.0594  -20.0306  -55.6452 H         1 UNK         0.0600 
    232 H232       -2.4683  -21.9864  -57.0858 H         1 UNK         0.0600 
    233 H233       -3.1113  -20.6511  -58.0277 H         1 UNK         0.0600 
    234 H234       -4.1214  -22.0547  -57.6848 H         1 UNK         0.0600 
    235 H235       -3.9393  -20.2523  -53.4779 H         1 UNK         0.3000 
    236 H236       -5.2605  -22.4973  -52.4600 H         1 UNK         0.0600 
    237 H237       -5.1783  -20.3916  -51.2467 H         1 UNK         0.0600 
    238 H238       -4.4632  -21.6192  -50.2282 H         1 UNK         0.0600 
    239 H239       -3.4209  -20.4806  -51.0698 H         1 UNK         0.0600 
    240 H240       -1.9665  -22.3903  -53.4264 H         1 UNK         0.3000 
    241 H241       -1.1925  -24.7818  -51.8719 H         1 UNK         0.0600 
    242 H242       -2.7489  -25.9264  -55.3771 H         1 UNK         0.3800 
    243 H243       -3.1250  -24.3653  -54.6983 H         1 UNK         0.3800 
    244 H244        0.3666  -23.1324  -53.9200 H         1 UNK         0.0800 
    245 H245        0.9765  -24.5824  -53.1684 H         1 UNK         0.0800 
    246 H246       -0.1210  -20.8323  -52.4558 H         1 UNK         0.0800 
    247 H247        1.5069  -21.0468  -53.0698 H         1 UNK         0.0800 
@<TRIPOS>BOND
     1    1    2 1    
     2    1  127 1    
     3    1  128 1    
     4    1  129 1    
     5    2    3 2    
     6    2    4 am   BACKBONE|DICT|INTERRES
     7    4    5 1    
     8    4  130 1    
     9    5    6 1    
    10    5   65 1    
    11    5  131 1    
    12    6    7 1    
    13    6  132 1    
    14    6  133 1    
    15    7    8 1    
    16    8    9 1    
    17    8  134 1    
    18    8  135 1    
    19    9   10 ar   
    20    9   14 ar   
    21   10   11 ar   
    22   10  136 1    
    23   11   12 ar   
    24   11  126 1    
    25   12   13 ar   
    26   12  137 1    
    27   13   14 ar   
    28   13   15 1    
    29   14  138 1    
    30   15   16 1    
    31   15  139 1    
    32   15  140 1    
    33   16   17 1    
    34   17   18 1    
    35   17  141 1    
    36   17  142 1    
    37   18   19 1    
    38   18   67 1    
    39   18  143 1    
    40   19   20 am   BACKBONE|DICT|INTERRES
    41   19  144 1    
    42   20   21 2    
    43   20   22 1    
    44   22   23 1    
    45   22   24 1    
    46   22  145 1    
    47   23  146 1    
    48   23  147 1    
    49   23  148 1    
    50   24   25 am   BACKBONE|DICT|INTERRES
    51   24  149 1    
    52   25   26 2    
    53   25   27 1    
    54   27   28 1    
    55   27   29 1    
    56   27  150 1    
    57   28  151 1    
    58   28  152 1    
    59   28  153 1    
    60   29   30 am   BACKBONE|DICT|INTERRES
    61   29  154 1    
    62   30   31 2    
    63   30   32 1    
    64   32   33 1    
    65   32   34 1    
    66   32  155 1    
    67   33  156 1    
    68   33  157 1    
    69   33  158 1    
    70   34   35 am   BACKBONE|DICT|INTERRES
    71   34  159 1    
    72   35   36 2    
    73   35   37 1    
    74   37   38 1    
    75   37   39 1    
    76   37  160 1    
    77   38  161 1    
    78   38  162 1    
    79   38  163 1    
    80   39   40 am   BACKBONE|DICT|INTERRES
    81   39  164 1    
    82   40   41 2    
    83   40   42 1    
    84   42   43 1    
    85   42   44 1    
    86   42  165 1    
    87   43  166 1    
    88   43  167 1    
    89   43  168 1    
    90   44   45 am   BACKBONE|DICT|INTERRES
    91   44  169 1    
    92   45   46 2    
    93   45   47 1    
    94   47   48 1    
    95   47   49 1    
    96   47  170 1    
    97   48  171 1    
    98   48  172 1    
    99   48  173 1    
   100   49   50 am   BACKBONE|DICT|INTERRES
   101   49  174 1    
   102   50   51 2    
   103   50   52 1    
   104   52   53 1    
   105   52   54 1    
   106   52  175 1    
   107   53  176 1    
   108   53  177 1    
   109   53  178 1    
   110   54   55 am   BACKBONE|DICT|INTERRES
   111   54  179 1    
   112   55   56 2    
   113   55   57 1    
   114   57   58 1    
   115   57   59 1    
   116   57  180 1    
   117   58  181 1    
   118   58  182 1    
   119   58  183 1    
   120   59   60 am   BACKBONE|DICT|INTERRES
   121   59  184 1    
   122   60   61 2    
   123   60   62 1    
   124   62   63 1    
   125   62   64 1    
   126   62  185 1    
   127   63  186 1    
   128   63  187 1    
   129   63  188 1    
   130   64   65 am   BACKBONE|DICT|INTERRES
   131   64  189 1    
   132   65   66 2    
   133   67   68 2    
   134   67   69 am   BACKBONE|DICT|INTERRES
   135   69   70 1    
   136   69  190 1    
   137   70   71 1    
   138   70   72 1    
   139   70  191 1    
   140   71  192 1    
   141   71  193 1    
   142   71  194 1    
   143   72   73 2    
   144   72   74 am   BACKBONE|DICT|INTERRES
   145   74   75 1    
   146   74  195 1    
   147   75   76 1    
   148   75   77 1    
   149   75  196 1    
   150   76  197 1    
   151   76  198 1    
   152   76  199 1    
   153   77   78 2    
   154   77   79 am   BACKBONE|DICT|INTERRES
   155   79   80 1    
   156   79  200 1    
   157   80   81 1    
   158   80   82 1    
   159   80  201 1    
   160   81  202 1    
   161   81  203 1    
   162   81  204 1    
   163   82   83 2    
   164   82   84 am   BACKBONE|DICT|INTERRES
   165   84   85 1    
   166   84  205 1    
   167   85   86 1    
   168   85   87 1    
   169   85  206 1    
   170   86  207 1    
   171   86  208 1    
   172   86  209 1    
   173   87   88 2    
   174   87   89 am   BACKBONE|DICT|INTERRES
   175   89   90 1    
   176   89  210 1    
   177   90   91 1    
   178   90   92 1    
   179   90  211 1    
   180   91  212 1    
   181   91  213 1    
   182   91  214 1    
   183   92   93 2    
   184   92   94 am   BACKBONE|DICT|INTERRES
   185   94   95 1    
   186   94  215 1    
   187   95   96 1    
   188   95   97 1    
   189   95  216 1    
   190   96  217 1    
   191   96  218 1    
   192   96  219 1    
   193   97   98 2    
   194   97   99 am   BACKBONE|DICT|INTERRES
   195   99  100 1    
   196   99  220 1    
   197  100  101 1    
   198  100  102 1    
   199  100  221 1    
   200  101  222 1    
   201  101  223 1    
   202  101  224 1    
   203  102  103 2    
   204  102  104 am   BACKBONE|DICT|INTERRES
   205  104  105 1    
   206  104  225 1    
   207  105  106 1    
   208  105  107 1    
   209  105  226 1    
   210  106  227 1    
   211  106  228 1    
   212  106  229 1    
   213  107  108 2    
   214  107  109 am   BACKBONE|DICT|INTERRES
   215  109  110 1    
   216  109  230 1    
   217  110  111 1    
   218  110  112 1    
   219  110  231 1    
   220  111  232 1    
   221  111  233 1    
   222  111  234 1    
   223  112  113 2    
   224  112  114 am   BACKBONE|DICT|INTERRES
   225  114  115 1    
   226  114  235 1    
   227  115  116 1    
   228  115  117 1    
   229  115  236 1    
   230  116  237 1    
   231  116  238 1    
   232  116  239 1    
   233  117  118 2    
   234  117  119 am   BACKBONE|DICT|INTERRES
   235  119  120 1    
   236  119  240 1    
   237  120  121 1    
   238  120  124 1    
   239  120  241 1    
   240  121  122 am   BACKBONE|DICT|INTERRES
   241  121  123 2    
   242  122  242 1    
   243  122  243 1    
   244  124  125 1    
   245  124  244 1    
   246  124  245 1    
   247  125  126 1    
   248  126  246 1    
   249  126  247 1    
@<TRIPOS>SUBSTRUCTURE
     1 UNK         1 GROUP             0       ****    0 ROOT    
