@<TRIPOS>MOLECULE
3R540
247   249    1
SMALL
USER_CHARGES


@<TRIPOS>ATOM
      1 CA          5.6363  -12.8257  -47.5086 C.3       0 UNK        -0.1800 
      2 C           4.3696  -13.6536  -47.3532 C.2       0 UNK         0.5000 
      3 O           4.1582  -14.2642  -46.3066 O.2       0 UNK        -0.5000 
      4 N           3.5101  -13.6660  -48.3802 N.am      1 UNK        -0.5000 
      5 CA          2.2653  -14.4471  -48.4214 C.3       1 UNK         0.1400 
      6 C6          1.6808  -14.5388  -49.8516 C.3       23 UNK        -0.0398 
      7 S7          2.7403  -15.5213  -50.9679 S.3       23 UNK        -0.2404 
      8 C8          2.3457  -17.2346  -50.4759 C.3       23 UNK        -0.0205 
      9 C9          0.9670  -17.6791  -50.9416 C.ar      23 UNK        -0.0193 
     10 C10         0.8106  -18.2730  -52.1966 C.ar      23 UNK        -0.1150 
     11 C11        -0.4476  -18.7013  -52.6288 C.ar      23 UNK        -0.0193 
     12 C12        -1.5566  -18.5254  -51.7969 C.ar      23 UNK        -0.1150 
     13 C13        -1.4175  -17.9206  -50.5451 C.ar      23 UNK        -0.0193 
     14 C14        -0.1503  -17.5117  -50.1179 C.ar      23 UNK        -0.1150 
     15 C15        -2.6422  -17.6750  -49.6744 C.3       23 UNK        -0.0205 
     16 S16        -3.1604  -19.1617  -48.7612 S.3       23 UNK        -0.2404 
     17 C17        -1.7753  -19.3740  -47.5952 C.3       23 UNK        -0.0398 
     18 CA         -1.0252  -20.7120  -47.8237 C.3       11 UNK         0.1400 
     19 N           0.4289  -20.5429  -47.7777 N.am      11 UNK        -0.5000 
     20 C           1.3365  -21.5121  -47.9647 C.2       10 UNK         0.5000 
     21 O           1.0450  -22.6640  -48.2846 O.2       10 UNK        -0.5000 
     22 CA          2.8138  -21.1528  -47.7002 C.3       10 UNK         0.1400 
     23 CB          3.5587  -20.9722  -49.0312 C.3       10 UNK        -0.1800 
     24 N           3.0097  -19.9509  -46.8790 N.am      10 UNK        -0.5000 
     25 C           2.5466  -19.7649  -45.6341 C.2       9 UNK         0.5000 
     26 O           1.9036  -20.6139  -45.0106 O.2       9 UNK        -0.5000 
     27 CA          2.7742  -18.3611  -45.0457 C.3       9 UNK         0.1400 
     28 CB          1.9693  -17.3196  -45.8378 C.3       9 UNK        -0.1800 
     29 N           2.3603  -18.2905  -43.6495 N.am      9 UNK        -0.5000 
     30 C           3.1179  -18.6346  -42.6015 C.2       8 UNK         0.5000 
     31 O           4.2890  -19.0042  -42.7012 O.2       8 UNK        -0.5000 
     32 CA          2.4680  -18.5473  -41.2070 C.3       8 UNK         0.1400 
     33 CB          3.1934  -17.5196  -40.3229 C.3       8 UNK        -0.1800 
     34 N           1.0480  -18.1908  -41.2892 N.am      8 UNK        -0.5000 
     35 C           0.0394  -19.0579  -41.1271 C.2       7 UNK         0.5000 
     36 O           0.2000  -20.2342  -40.8019 O.2       7 UNK        -0.5000 
     37 CA         -1.3934  -18.5413  -41.3614 C.3       7 UNK         0.1400 
     38 CB         -2.0824  -18.2585  -40.0186 C.3       7 UNK        -0.1800 
     39 N          -1.4564  -17.3468  -42.2083 N.am      7 UNK        -0.5000 
     40 C          -1.2958  -17.3575  -43.5405 C.2       6 UNK         0.5000 
     41 O          -1.0487  -18.3843  -44.1741 O.2       6 UNK        -0.5000 
     42 CA         -1.3741  -16.0159  -44.3021 C.3       6 UNK         0.1400 
     43 CB         -2.2905  -16.0974  -45.5389 C.3       6 UNK        -0.1800 
     44 N          -1.7004  -14.8566  -43.4680 N.am      6 UNK        -0.5000 
     45 C          -2.8672  -14.5186  -42.9031 C.2       5 UNK         0.5000 
     46 O          -3.9148  -15.1520  -43.0356 O.2       5 UNK        -0.5000 
     47 CA         -2.8124  -13.2597  -42.0100 C.3       5 UNK         0.1400 
     48 CB         -4.0526  -13.0937  -41.1067 C.3       5 UNK        -0.1800 
     49 N          -1.5677  -13.1992  -41.2298 N.am      5 UNK        -0.5000 
     50 C          -1.1578  -14.0873  -40.3111 C.2       4 UNK         0.5000 
     51 O          -1.8393  -15.0414  -39.9389 O.2       4 UNK        -0.5000 
     52 CA          0.2750  -13.9021  -39.7677 C.3       4 UNK         0.1400 
     53 CB          0.7641  -15.1130  -38.9467 C.3       4 UNK        -0.1800 
     54 N           1.2419  -13.5660  -40.8207 N.am      4 UNK        -0.5000 
     55 C           1.5390  -14.2840  -41.9142 C.2       3 UNK         0.5000 
     56 O           1.0519  -15.3854  -42.1798 O.2       3 UNK        -0.5000 
     57 CA          2.5386  -13.6370  -42.8921 C.3       3 UNK         0.1400 
     58 CB          3.7592  -14.5480  -43.0922 C.3       3 UNK        -0.1800 
     59 N           1.9580  -13.2952  -44.1979 N.am      3 UNK        -0.5000 
     60 C           0.8408  -12.5752  -44.4020 C.2       2 UNK         0.5000 
     61 O           0.1098  -12.1849  -43.4905 O.2       2 UNK        -0.5000 
     62 CA          0.4643  -12.1922  -45.8486 C.3       2 UNK         0.1400 
     63 CB          0.4725  -10.6642  -46.0184 C.3       2 UNK        -0.1800 
     64 N           1.3478  -12.7712  -46.8591 N.am      2 UNK        -0.5000 
     65 C           1.1932  -13.9808  -47.4113 C.2       1 UNK         0.5000 
     66 O           0.2595  -14.7348  -47.1413 O.2       1 UNK        -0.5000 
     67 C          -1.5254  -21.7827  -46.8322 C.2       11 UNK         0.5000 
     68 O          -2.4181  -22.5544  -47.1777 O.2       11 UNK        -0.5000 
     69 N          -0.9206  -21.8341  -45.6357 N.am      12 UNK        -0.5000 
     70 CA         -1.2443  -22.8092  -44.5957 C.3       12 UNK         0.1400 
     71 CB         -0.6026  -22.3733  -43.2732 C.3       12 UNK        -0.1800 
     72 C          -0.8146  -24.2372  -44.9730 C.2       12 UNK         0.5000 
     73 O          -1.5611  -25.1811  -44.7147 O.2       12 UNK        -0.5000 
     74 N           0.3512  -24.3674  -45.6231 N.am      13 UNK        -0.5000 
     75 CA          0.8617  -25.6311  -46.1632 C.3       13 UNK         0.1400 
     76 CB          2.3375  -25.4634  -46.5563 C.3       13 UNK        -0.1800 
     77 C           0.0254  -26.1338  -47.3559 C.2       13 UNK         0.5000 
     78 O          -0.1828  -27.3392  -47.4939 O.2       13 UNK        -0.5000 
     79 N          -0.4777  -25.1919  -48.1640 N.am      14 UNK        -0.5000 
     80 CA         -1.4114  -25.4221  -49.2668 C.3       14 UNK         0.1400 
     81 CB         -1.3367  -24.2200  -50.2198 C.3       14 UNK        -0.1800 
     82 C          -2.8688  -25.6572  -48.8139 C.2       14 UNK         0.5000 
     83 O          -3.7210  -25.9084  -49.6665 O.2       14 UNK        -0.5000 
     84 N          -3.1408  -25.5393  -47.5048 N.am      15 UNK        -0.5000 
     85 CA         -4.4446  -25.6694  -46.8435 C.3       15 UNK         0.1400 
     86 CB         -4.9556  -27.1224  -46.9338 C.3       15 UNK        -0.1800 
     87 C          -5.4880  -24.6346  -47.3221 C.2       15 UNK         0.5000 
     88 O          -6.6870  -24.9192  -47.3049 O.2       15 UNK        -0.5000 
     89 N          -5.0059  -23.4520  -47.7353 N.am      16 UNK        -0.5000 
     90 CA         -5.7530  -22.3009  -48.2501 C.3       16 UNK         0.1400 
     91 CB         -6.5110  -21.6032  -47.1028 C.3       16 UNK        -0.1800 
     92 C          -6.6538  -22.6415  -49.4575 C.2       16 UNK         0.5000 
     93 O          -7.7879  -22.1647  -49.5329 O.2       16 UNK        -0.5000 
     94 N          -6.1346  -23.4795  -50.3693 N.am      17 UNK        -0.5000 
     95 CA         -6.8413  -24.0039  -51.5427 C.3       17 UNK         0.1400 
     96 CB         -5.9213  -24.9763  -52.2977 C.3       17 UNK        -0.1800 
     97 C          -7.3767  -22.9161  -52.4937 C.2       17 UNK         0.5000 
     98 O          -8.5265  -23.0027  -52.9271 O.2       17 UNK        -0.5000 
     99 N          -6.5449  -21.9058  -52.7699 N.am      18 UNK        -0.5000 
    100 CA        -6.8534  -20.7241  -53.5677 C.3       18 UNK         0.1400 
    101 CB        -7.0924  -21.0953  -55.0438 C.3       18 UNK        -0.1800 
    102 C         -5.6792  -19.7462  -53.4479 C.2       18 UNK         0.5000 
    103 O         -4.5406  -20.1803  -53.2593 O.2       18 UNK        -0.5000 
    104 N         -5.9686  -18.4479  -53.5924 N.am      19 UNK        -0.5000 
    105 CA        -4.9807  -17.3678  -53.5187 C.3       19 UNK         0.1400 
    106 CB        -5.7143  -16.0322  -53.3243 C.3       19 UNK        -0.1800 
    107 C         -4.0532  -17.2959  -54.7478 C.2       19 UNK         0.5000 
    108 O         -2.9324  -16.8025  -54.6278 O.2       19 UNK        -0.5000 
    109 N         -4.5385  -17.7758  -55.9003 N.am      20 UNK        -0.5000 
    110 CA        -3.8428  -17.7330  -57.1900 C.3       20 UNK         0.1400 
    111 CB        -4.6963  -16.9096  -58.1706 C.3       20 UNK        -0.1800 
    112 C         -3.5557  -19.1358  -57.7607 C.2       20 UNK         0.5000 
    113 O         -3.0136  -19.2326  -58.8626 O.2       20 UNK        -0.5000 
    114 N         -3.9251  -20.1956  -57.0301 N.am      21 UNK        -0.5000 
    115 CA        -3.8003  -21.5893  -57.4608 C.3       21 UNK         0.1400 
    116 CB        -5.0114  -21.9876  -58.3286 C.3       21 UNK        -0.1800 
    117 C         -3.5837  -22.5052  -56.2453 C.2       21 UNK         0.5000 
    118 O         -4.2323  -23.5453  -56.1215 O.2       21 UNK        -0.5000 
    119 N         -2.6860  -22.0775  -55.3523 N.am      22 UNK        -0.5000 
    120 CA        -2.2365  -22.8268  -54.1723 C.3       22 UNK         0.1400 
    121 C         -1.4935  -24.1457  -54.5377 C.2       22 UNK         0.5000 
    122 N         -1.7221  -25.2236  -53.7993 N.am      22 UNK        -0.7600 
    123 O         -0.6952  -24.1965  -55.4710 O.2       22 UNK        -0.5000 
    124 C124       -1.3966  -21.9309  -53.2227 C.3       23 UNK        -0.0398 
    125 S125       -0.0137  -21.0498  -54.0348 S.3       23 UNK        -0.2404 
    126 C126       -0.6056  -19.3296  -54.0047 C.3       23 UNK        -0.0205 
    127 H127        5.6808  -12.3309  -48.4790 H         1 UNK         0.0600 
    128 H128        6.5143  -13.4642  -47.4110 H         1 UNK         0.0600 
    129 H129        5.6816  -12.0611  -46.7331 H         1 UNK         0.0600 
    130 H130        3.7338  -13.1522  -49.2209 H         1 UNK         0.3000 
    131 H131        2.5286  -15.4554  -48.1085 H         1 UNK         0.0600 
    132 H132        1.5688  -13.5400  -50.2761 H         1 UNK         0.0800 
    133 H133        0.6784  -14.9651  -49.8539 H         1 UNK         0.0800 
    134 H134        2.4341  -17.3498  -49.3961 H         1 UNK         0.0800 
    135 H135        3.1014  -17.8945  -50.9047 H         1 UNK         0.0800 
    136 H136        1.6696  -18.4048  -52.8395 H         1 UNK         0.1150 
    137 H137       -2.5316  -18.8514  -52.1277 H         1 UNK         0.1150 
    138 H138       -0.0356  -17.0461  -49.1492 H         1 UNK         0.1150 
    139 H139       -2.4570  -16.8618  -48.9704 H         1 UNK         0.0800 
    140 H140       -3.4710  -17.3450  -50.3017 H         1 UNK         0.0800 
    141 H141       -2.1643  -19.2823  -46.5787 H         1 UNK         0.0800 
    142 H142       -1.0949  -18.5309  -47.7003 H         1 UNK         0.0800 
    143 H143       -1.2418  -21.0776  -48.8295 H         1 UNK         0.0600 
    144 H144        0.7681  -19.6327  -47.5107 H         1 UNK         0.3000 
    145 H145        3.2594  -21.9942  -47.1659 H         1 UNK         0.0600 
    146 H146        4.6219  -20.7938  -48.8699 H         1 UNK         0.0600 
    147 H147        3.4718  -21.8654  -49.6517 H         1 UNK         0.0600 
    148 H148        3.1586  -20.1358  -49.6054 H         1 UNK         0.0600 
    149 H149        3.5344  -19.2059  -47.3134 H         1 UNK         0.3000 
    150 H150        3.8361  -18.1182  -45.1238 H         1 UNK         0.0600 
    151 H151        2.2951  -17.2864  -46.8754 H         1 UNK         0.0600 
    152 H152        2.0983  -16.3188  -45.4254 H         1 UNK         0.0600 
    153 H153        0.9034  -17.5467  -45.8433 H         1 UNK         0.0600 
    154 H154        1.3873  -18.0829  -43.4810 H         1 UNK         0.3000 
    155 H155        2.5912  -19.5271  -40.7418 H         1 UNK         0.0600 
    156 H156        3.1210  -16.5124  -40.7301 H         1 UNK         0.0600 
    157 H157        4.2531  -17.7596  -40.2293 H         1 UNK         0.0600 
    158 H158        2.7766  -17.5054  -39.3160 H         1 UNK         0.0600 
    159 H159        0.8437  -17.2307  -41.5551 H         1 UNK         0.3000 
    160 H160       -1.9521  -19.3363  -41.8598 H         1 UNK         0.0600 
    161 H161       -1.5061  -17.5617  -39.4097 H         1 UNK         0.0600 
    162 H162       -2.1935  -19.1763  -39.4401 H         1 UNK         0.0600 
    163 H163       -3.0789  -17.8399  -40.1611 H         1 UNK         0.0600 
    164 H164       -1.6268  -16.4662  -41.7394 H         1 UNK         0.3000 
    165 H165       -0.3631  -15.8226  -44.6613 H         1 UNK         0.0600 
    166 H166       -3.2952  -16.4342  -45.2830 H         1 UNK         0.0600 
    167 H167       -2.3722  -15.1306  -46.0356 H         1 UNK         0.0600 
    168 H168       -1.8880  -16.7960  -46.2704 H         1 UNK         0.0600 
    169 H169       -0.9059  -14.2759  -43.2325 H         1 UNK         0.3000 
    170 H170       -2.7864  -12.4073  -42.6905 H         1 UNK         0.0600 
    171 H171       -4.9585  -12.9945  -41.7055 H         1 UNK         0.0600 
    172 H172       -4.1939  -13.9481  -40.4444 H         1 UNK         0.0600 
    173 H173       -3.9731  -12.1993  -40.4889 H         1 UNK         0.0600 
    174 H174       -0.9070  -12.4938  -41.5348 H         1 UNK         0.3000 
    175 H175        0.2376  -13.0430  -39.0966 H         1 UNK         0.0600 
    176 H176        0.7362  -16.0327  -39.5292 H         1 UNK         0.0600 
    177 H177        1.7853  -14.9679  -38.5949 H         1 UNK         0.0600 
    178 H178        0.1363  -15.2674  -38.0685 H         1 UNK         0.0600 
    179 H179        1.6842  -12.6632  -40.7175 H         1 UNK         0.3000 
    180 H180        2.8948  -12.7037  -42.4520 H         1 UNK         0.0600 
    181 H181        3.4950  -15.4697  -43.6112 H         1 UNK         0.0600 
    182 H182        4.2046  -14.8250  -42.1362 H         1 UNK         0.0600 
    183 H183        4.5344  -14.0464  -43.6709 H         1 UNK         0.0600 
    184 H184        2.4941  -13.5904  -45.0048 H         1 UNK         0.3000 
    185 H185       -0.5559  -12.5439  -46.0173 H         1 UNK         0.0600 
    186 H186        1.4644  -10.2452  -45.8447 H         1 UNK         0.0600 
    187 H187        0.1576  -10.3775  -47.0219 H         1 UNK         0.0600 
    188 H188       -0.2132  -10.1860  -45.3176 H         1 UNK         0.0600 
    189 H189        2.1508  -12.2219  -47.1296 H         1 UNK         0.3000 
    190 H190       -0.1645  -21.1899  -45.4317 H         1 UNK         0.3000 
    191 H191       -2.3281  -22.8127  -44.4606 H         1 UNK         0.0600 
    192 H192       -0.8570  -23.0614  -42.4662 H         1 UNK         0.0600 
    193 H193       -0.9552  -21.3846  -42.9822 H         1 UNK         0.0600 
    194 H194        0.4851  -22.3327  -43.3423 H         1 UNK         0.0600 
    195 H195        0.8859  -23.5353  -45.8254 H         1 UNK         0.3000 
    196 H196        0.8042  -26.3849  -45.3751 H         1 UNK         0.0600 
    197 H197        2.4662  -24.7271  -47.3497 H         1 UNK         0.0600 
    198 H198        2.9396  -25.1475  -45.7042 H         1 UNK         0.0600 
    199 H199        2.7526  -26.4058  -46.9156 H         1 UNK         0.0600 
    200 H200       -0.1875  -24.2304  -48.0162 H         1 UNK         0.3000 
    201 H201       -1.0943  -26.3125  -49.8134 H         1 UNK         0.0600 
    202 H202       -1.6313  -23.2953  -49.7245 H         1 UNK         0.0600 
    203 H203       -1.9981  -24.3549  -51.0749 H         1 UNK         0.0600 
    204 H204       -0.3254  -24.0867  -50.6047 H         1 UNK         0.0600 
    205 H205       -2.3739  -25.2966  -46.8920 H         1 UNK         0.3000 
    206 H206       -4.2683  -25.4486  -45.7899 H         1 UNK         0.0600 
    207 H207       -4.2020  -27.8271  -46.5820 H         1 UNK         0.0600 
    208 H208       -5.8435  -27.2650  -46.3169 H         1 UNK         0.0600 
    209 H209       -5.2204  -27.3957  -47.9556 H         1 UNK         0.0600 
    210 H210       -4.0015  -23.3016  -47.6505 H         1 UNK         0.3000 
    211 H211       -5.0058  -21.5996  -48.6228 H         1 UNK         0.0600 
    212 H212       -6.9753  -20.6777  -47.4451 H         1 UNK         0.0600 
    213 H213       -5.8351  -21.3424  -46.2882 H         1 UNK         0.0600 
    214 H214       -7.2996  -22.2369  -46.6959 H         1 UNK         0.0600 
    215 H215       -5.2174  -23.8649  -50.1913 H         1 UNK         0.3000 
    216 H216       -7.7009  -24.5684  -51.1757 H         1 UNK         0.0600 
    217 H217       -5.0058  -24.4883  -52.6328 H         1 UNK         0.0600 
    218 H218       -6.4189  -25.3809  -53.1801 H         1 UNK         0.0600 
    219 H219       -5.6409  -25.8216  -51.6691 H         1 UNK         0.0600 
    220 H220       -5.6149  -21.8998  -52.3707 H         1 UNK         0.3000 
    221 H221       -7.7471  -20.2495  -53.1577 H         1 UNK         0.0600 
    222 H222       -8.0156  -21.6599  -55.1707 H         1 UNK         0.0600 
    223 H223       -6.2782  -21.7040  -55.4326 H         1 UNK         0.0600 
    224 H224       -7.1749  -20.2078  -55.6723 H         1 UNK         0.0600 
    225 H225       -6.9278  -18.1699  -53.7447 H         1 UNK         0.3000 
    226 H226       -4.3544  -17.5351  -52.6413 H         1 UNK         0.0600 
    227 H227       -6.3746  -15.8087  -54.1632 H         1 UNK         0.0600 
    228 H228       -6.3157  -16.0411  -52.4150 H         1 UNK         0.0600 
    229 H229       -5.0062  -15.2072  -53.2351 H         1 UNK         0.0600 
    230 H230       -5.4801  -18.1395  -55.9085 H         1 UNK         0.3000 
    231 H231       -2.8749  -17.2382  -57.0887 H         1 UNK         0.0600 
    232 H232       -5.6671  -17.3745  -58.3472 H         1 UNK         0.0600 
    233 H233       -4.2002  -16.8064  -59.1365 H         1 UNK         0.0600 
    234 H234       -4.8709  -15.9031  -57.7899 H         1 UNK         0.0600 
    235 H235       -4.3036  -20.0467  -56.1056 H         1 UNK         0.3000 
    236 H236       -2.9010  -21.6971  -58.0712 H         1 UNK         0.0600 
    237 H237       -5.0809  -21.3630  -59.2192 H         1 UNK         0.0600 
    238 H238       -4.9289  -23.0209  -58.6677 H         1 UNK         0.0600 
    239 H239       -5.9496  -21.8933  -57.7823 H         1 UNK         0.0600 
    240 H240       -2.1726  -21.2316  -55.5479 H         1 UNK         0.3000 
    241 H241       -3.1395  -23.1076  -53.6268 H         1 UNK         0.0600 
    242 H242       -1.2380  -26.0776  -54.0292 H         1 UNK         0.3800 
    243 H243       -2.3930  -25.2258  -53.0487 H         1 UNK         0.3800 
    244 H244       -0.9822  -22.5172  -52.4035 H         1 UNK         0.0800 
    245 H245       -2.0551  -21.2048  -52.7462 H         1 UNK         0.0800 
    246 H246       -1.6457  -19.2914  -54.3318 H         1 UNK         0.0800 
    247 H247       -0.0378  -18.7468  -54.7314 H         1 UNK         0.0800 
@<TRIPOS>BOND
     1    1    2 1    
     2    1  127 1    
     3    1  128 1    
     4    1  129 1    
     5    2    3 2    
     6    2    4 am   BACKBONE|DICT|INTERRES
     7    4    5 1    
     8    4  130 1    
     9    5    6 1    
    10    5   65 1    
    11    5  131 1    
    12    6    7 1    
    13    6  132 1    
    14    6  133 1    
    15    7    8 1    
    16    8    9 1    
    17    8  134 1    
    18    8  135 1    
    19    9   10 ar   
    20    9   14 ar   
    21   10   11 ar   
    22   10  136 1    
    23   11   12 ar   
    24   11  126 1    
    25   12   13 ar   
    26   12  137 1    
    27   13   14 ar   
    28   13   15 1    
    29   14  138 1    
    30   15   16 1    
    31   15  139 1    
    32   15  140 1    
    33   16   17 1    
    34   17   18 1    
    35   17  141 1    
    36   17  142 1    
    37   18   19 1    
    38   18   67 1    
    39   18  143 1    
    40   19   20 am   BACKBONE|DICT|INTERRES
    41   19  144 1    
    42   20   21 2    
    43   20   22 1    
    44   22   23 1    
    45   22   24 1    
    46   22  145 1    
    47   23  146 1    
    48   23  147 1    
    49   23  148 1    
    50   24   25 am   BACKBONE|DICT|INTERRES
    51   24  149 1    
    52   25   26 2    
    53   25   27 1    
    54   27   28 1    
    55   27   29 1    
    56   27  150 1    
    57   28  151 1    
    58   28  152 1    
    59   28  153 1    
    60   29   30 am   BACKBONE|DICT|INTERRES
    61   29  154 1    
    62   30   31 2    
    63   30   32 1    
    64   32   33 1    
    65   32   34 1    
    66   32  155 1    
    67   33  156 1    
    68   33  157 1    
    69   33  158 1    
    70   34   35 am   BACKBONE|DICT|INTERRES
    71   34  159 1    
    72   35   36 2    
    73   35   37 1    
    74   37   38 1    
    75   37   39 1    
    76   37  160 1    
    77   38  161 1    
    78   38  162 1    
    79   38  163 1    
    80   39   40 am   BACKBONE|DICT|INTERRES
    81   39  164 1    
    82   40   41 2    
    83   40   42 1    
    84   42   43 1    
    85   42   44 1    
    86   42  165 1    
    87   43  166 1    
    88   43  167 1    
    89   43  168 1    
    90   44   45 am   BACKBONE|DICT|INTERRES
    91   44  169 1    
    92   45   46 2    
    93   45   47 1    
    94   47   48 1    
    95   47   49 1    
    96   47  170 1    
    97   48  171 1    
    98   48  172 1    
    99   48  173 1    
   100   49   50 am   BACKBONE|DICT|INTERRES
   101   49  174 1    
   102   50   51 2    
   103   50   52 1    
   104   52   53 1    
   105   52   54 1    
   106   52  175 1    
   107   53  176 1    
   108   53  177 1    
   109   53  178 1    
   110   54   55 am   BACKBONE|DICT|INTERRES
   111   54  179 1    
   112   55   56 2    
   113   55   57 1    
   114   57   58 1    
   115   57   59 1    
   116   57  180 1    
   117   58  181 1    
   118   58  182 1    
   119   58  183 1    
   120   59   60 am   BACKBONE|DICT|INTERRES
   121   59  184 1    
   122   60   61 2    
   123   60   62 1    
   124   62   63 1    
   125   62   64 1    
   126   62  185 1    
   127   63  186 1    
   128   63  187 1    
   129   63  188 1    
   130   64   65 am   BACKBONE|DICT|INTERRES
   131   64  189 1    
   132   65   66 2    
   133   67   68 2    
   134   67   69 am   BACKBONE|DICT|INTERRES
   135   69   70 1    
   136   69  190 1    
   137   70   71 1    
   138   70   72 1    
   139   70  191 1    
   140   71  192 1    
   141   71  193 1    
   142   71  194 1    
   143   72   73 2    
   144   72   74 am   BACKBONE|DICT|INTERRES
   145   74   75 1    
   146   74  195 1    
   147   75   76 1    
   148   75   77 1    
   149   75  196 1    
   150   76  197 1    
   151   76  198 1    
   152   76  199 1    
   153   77   78 2    
   154   77   79 am   BACKBONE|DICT|INTERRES
   155   79   80 1    
   156   79  200 1    
   157   80   81 1    
   158   80   82 1    
   159   80  201 1    
   160   81  202 1    
   161   81  203 1    
   162   81  204 1    
   163   82   83 2    
   164   82   84 am   BACKBONE|DICT|INTERRES
   165   84   85 1    
   166   84  205 1    
   167   85   86 1    
   168   85   87 1    
   169   85  206 1    
   170   86  207 1    
   171   86  208 1    
   172   86  209 1    
   173   87   88 2    
   174   87   89 am   BACKBONE|DICT|INTERRES
   175   89   90 1    
   176   89  210 1    
   177   90   91 1    
   178   90   92 1    
   179   90  211 1    
   180   91  212 1    
   181   91  213 1    
   182   91  214 1    
   183   92   93 2    
   184   92   94 am   BACKBONE|DICT|INTERRES
   185   94   95 1    
   186   94  215 1    
   187   95   96 1    
   188   95   97 1    
   189   95  216 1    
   190   96  217 1    
   191   96  218 1    
   192   96  219 1    
   193   97   98 2    
   194   97   99 am   BACKBONE|DICT|INTERRES
   195   99  100 1    
   196   99  220 1    
   197  100  101 1    
   198  100  102 1    
   199  100  221 1    
   200  101  222 1    
   201  101  223 1    
   202  101  224 1    
   203  102  103 2    
   204  102  104 am   BACKBONE|DICT|INTERRES
   205  104  105 1    
   206  104  225 1    
   207  105  106 1    
   208  105  107 1    
   209  105  226 1    
   210  106  227 1    
   211  106  228 1    
   212  106  229 1    
   213  107  108 2    
   214  107  109 am   BACKBONE|DICT|INTERRES
   215  109  110 1    
   216  109  230 1    
   217  110  111 1    
   218  110  112 1    
   219  110  231 1    
   220  111  232 1    
   221  111  233 1    
   222  111  234 1    
   223  112  113 2    
   224  112  114 am   BACKBONE|DICT|INTERRES
   225  114  115 1    
   226  114  235 1    
   227  115  116 1    
   228  115  117 1    
   229  115  236 1    
   230  116  237 1    
   231  116  238 1    
   232  116  239 1    
   233  117  118 2    
   234  117  119 am   BACKBONE|DICT|INTERRES
   235  119  120 1    
   236  119  240 1    
   237  120  121 1    
   238  120  124 1    
   239  120  241 1    
   240  121  122 am   BACKBONE|DICT|INTERRES
   241  121  123 2    
   242  122  242 1    
   243  122  243 1    
   244  124  125 1    
   245  124  244 1    
   246  124  245 1    
   247  125  126 1    
   248  126  246 1    
   249  126  247 1    
@<TRIPOS>SUBSTRUCTURE
     1 UNK         1 GROUP             0       ****    0 ROOT    
