@<TRIPOS>MOLECULE
3R540
247   249    1
SMALL
USER_CHARGES


@<TRIPOS>ATOM
      1 CA          2.7553  -15.4109  -51.7268 C.3       0 UNK        -0.1800 
      2 C           3.7935  -14.7508  -50.8306 C.2       0 UNK         0.5000 
      3 O           4.9488  -15.1764  -50.8121 O.2       0 UNK        -0.5000 
      4 N           3.3925  -13.7058  -50.1030 N.am      1 UNK        -0.5000 
      5 CA          4.2446  -12.8970  -49.2353 C.3       1 UNK         0.1400 
      6 C6          4.5423  -13.5836  -47.8702 C.3       23 UNK        -0.0398 
      7 S7          3.1602  -13.5714  -46.6704 S.3       23 UNK        -0.2404 
      8 C8          2.8760  -15.3415  -46.3780 C.3       23 UNK        -0.0205 
      9 C9          2.1515  -16.0279  -47.5267 C.ar      23 UNK        -0.0193 
     10 C10         0.9337  -15.5281  -47.9989 C.ar      23 UNK        -0.1150 
     11 C11         0.2395  -16.1886  -49.0148 C.ar      23 UNK        -0.0193 
     12 C12         0.7694  -17.3602  -49.5621 C.ar      23 UNK        -0.1150 
     13 C13         1.9942  -17.8605  -49.1113 C.ar      23 UNK        -0.0193 
     14 C14         2.6791  -17.1916  -48.0926 C.ar      23 UNK        -0.1150 
     15 C15         2.5950  -19.1066  -49.7426 C.3       23 UNK        -0.0205 
     16 S16         2.4571  -20.5583  -48.6571 S.3       23 UNK        -0.2404 
     17 C17         0.6633  -20.8821  -48.7061 C.3       23 UNK        -0.0398 
     18 CA          0.3268  -22.2766  -48.1298 C.3       11 UNK         0.1400 
     19 N           0.6430  -22.3893  -46.7032 N.am      11 UNK        -0.5000 
     20 C           0.6150  -23.5318  -46.0036 C.2       10 UNK         0.5000 
     21 O           0.3656  -24.6309  -46.4971 O.2       10 UNK        -0.5000 
     22 CA          0.8462  -23.4208  -44.4878 C.3       10 UNK         0.1400 
     23 CB          2.3444  -23.3443  -44.1563 C.3       10 UNK        -0.1800 
     24 N           0.1479  -22.2686  -43.9182 N.am      10 UNK        -0.5000 
     25 C          -1.1847  -22.1777  -43.8053 C.2       9 UNK         0.5000 
     26 O          -1.9604  -23.0765  -44.1299 O.2       9 UNK        -0.5000 
     27 CA         -1.7459  -20.8455  -43.2774 C.3       9 UNK         0.1400 
     28 CB         -1.7192  -20.8150  -41.7422 C.3       9 UNK        -0.1800 
     29 N          -1.0232  -19.6851  -43.7976 N.am      9 UNK        -0.5000 
     30 C          -1.0370  -19.3000  -45.0829 C.2       8 UNK         0.5000 
     31 O          -1.6723  -19.8769  -45.9635 O.2       8 UNK        -0.5000 
     32 CA         -0.1534  -18.0956  -45.4543 C.3       8 UNK         0.1400 
     33 CB         -0.8958  -16.7894  -45.1402 C.3       8 UNK        -0.1800 
     34 N           1.1304  -18.0810  -44.7540 N.am      8 UNK        -0.5000 
     35 C           2.0241  -19.0789  -44.7180 C.2       7 UNK         0.5000 
     36 O           1.9006  -20.1283  -45.3468 O.2       7 UNK        -0.5000 
     37 CA          3.2237  -18.9075  -43.7662 C.3       7 UNK         0.1400 
     38 CB          4.5151  -18.6441  -44.5532 C.3       7 UNK        -0.1800 
     39 N           3.0445  -17.8545  -42.7601 N.am      7 UNK        -0.5000 
     40 C           2.1285  -17.8517  -41.7832 C.2       6 UNK         0.5000 
     41 O           1.2853  -18.7394  -41.6446 O.2       6 UNK        -0.5000 
     42 CA          2.1207  -16.6470  -40.8225 C.3       6 UNK         0.1400 
     43 CB          3.1931  -16.8082  -39.7289 C.3       6 UNK        -0.1800 
     44 N           2.2091  -15.3271  -41.4663 N.am      6 UNK        -0.5000 
     45 C           3.2207  -14.7653  -42.1423 C.2       5 UNK         0.5000 
     46 O           4.2620  -15.3575  -42.4320 O.2       5 UNK        -0.5000 
     47 CA          3.0172  -13.2941  -42.5693 C.3       5 UNK         0.1400 
     48 CB          4.3106  -12.6534  -43.1046 C.3       5 UNK        -0.1800 
     49 N           1.9695  -13.1280  -43.5777 N.am      5 UNK        -0.5000 
     50 C           0.6512  -13.2522  -43.3848 C.2       4 UNK         0.5000 
     51 O           0.1436  -13.5389  -42.2989 O.2       4 UNK        -0.5000 
     52 CA         -0.2299  -12.9500  -44.6051 C.3       4 UNK         0.1400 
     53 CB         -1.7261  -13.2311  -44.3692 C.3       4 UNK        -0.1800 
     54 N          -0.0428  -11.5513  -44.9737 N.am      4 UNK        -0.5000 
     55 C          -0.0691  -11.0690  -46.2202 C.2       3 UNK         0.5000 
     56 O          -0.2703  -11.7646  -47.2167 O.2       3 UNK        -0.5000 
     57 CA          0.1512   -9.5507  -46.4006 C.3       3 UNK         0.1400 
     58 CB          0.1303   -8.7358  -45.0860 C.3       3 UNK        -0.1800 
     59 N           1.3672   -9.2776  -47.1717 N.am      3 UNK        -0.5000 
     60 C           2.6217   -9.6033  -46.8324 C.2       2 UNK         0.5000 
     61 O           2.9413  -10.1123  -45.7557 O.2       2 UNK        -0.5000 
     62 CA          3.7071   -9.3403  -47.8931 C.3       2 UNK         0.1400 
     63 CB          4.8308   -8.4515  -47.3357 C.3       2 UNK        -0.1800 
     64 N           4.2732  -10.6117  -48.3377 N.am      2 UNK        -0.5000 
     65 C           3.6199  -11.4921  -49.1072 C.2       1 UNK         0.5000 
     66 O           2.5582  -11.2334  -49.6838 O.2       1 UNK        -0.5000 
     67 C          -1.1366  -22.6648  -48.4192 C.2       11 UNK         0.5000 
     68 O          -1.3806  -23.4232  -49.3570 O.2       11 UNK        -0.5000 
     69 N          -2.0765  -22.1900  -47.5878 N.am      12 UNK        -0.5000 
     70 CA         -3.4931  -22.5526  -47.6478 C.3       12 UNK         0.1400 
     71 CB         -4.2975  -21.7016  -46.6553 C.3       12 UNK        -0.1800 
     72 C          -3.7369  -24.0514  -47.4084 C.2       12 UNK         0.5000 
     73 O          -4.5226  -24.6534  -48.1395 O.2       12 UNK        -0.5000 
     74 N          -3.0369  -24.6351  -46.4253 N.am      13 UNK        -0.5000 
     75 CA         -3.0687  -26.0682  -46.1319 C.3       13 UNK         0.1400 
     76 CB         -2.3193  -26.3513  -44.8214 C.3       13 UNK        -0.1800 
     77 C          -2.5081  -26.9195  -47.2858 C.2       13 UNK         0.5000 
     78 O          -3.1354  -27.9092  -47.6632 O.2       13 UNK        -0.5000 
     79 N          -1.3698  -26.4975  -47.8555 N.am      14 UNK        -0.5000 
     80 CA         -0.7247  -27.1323  -49.0082 C.3       14 UNK         0.1400 
     81 CB          0.6496  -26.4887  -49.2465 C.3       14 UNK        -0.1800 
     82 C          -1.5815  -27.0759  -50.2873 C.2       14 UNK         0.5000 
     83 O          -1.6276  -28.0553  -51.0324 O.2       14 UNK        -0.5000 
     84 N          -2.2711  -25.9472  -50.4988 N.am      15 UNK        -0.5000 
     85 CA         -3.2239  -25.7382  -51.5903 C.3       15 UNK         0.1400 
     86 CB         -3.4313  -24.2271  -51.7833 C.3       15 UNK        -0.1800 
     87 C          -4.5817  -26.4347  -51.3682 C.2       15 UNK         0.5000 
     88 O          -5.3966  -26.4464  -52.2891 O.2       15 UNK        -0.5000 
     89 N          -4.8265  -26.9619  -50.1588 N.am      16 UNK        -0.5000 
     90 CA         -6.0848  -27.5532  -49.6883 C.3       16 UNK         0.1400 
     91 CB         -6.3798  -28.8760  -50.4254 C.3       16 UNK        -0.1800 
     92 C          -7.2588  -26.5501  -49.7390 C.2       16 UNK         0.5000 
     93 O          -8.3707  -26.9075  -50.1318 O.2       16 UNK        -0.5000 
     94 N          -6.9638  -25.2995  -49.3549 N.am      17 UNK        -0.5000 
     95 CA         -7.8399  -24.1242  -49.3321 C.3       17 UNK         0.1400 
     96 CB         -9.0010  -24.3231  -48.3355 C.3       17 UNK        -0.1800 
     97 C          -8.3210  -23.6514  -50.7227 C.2       17 UNK         0.5000 
     98 O          -9.2879  -22.8906  -50.8001 O.2       17 UNK        -0.5000 
     99 N          -7.6420  -24.0795  -51.7969 N.am      18 UNK        -0.5000 
    100 CA        -7.8905  -23.6225  -53.1644 C.3       18 UNK         0.1400 
    101 CB        -7.2089  -24.5832  -54.1508 C.3       18 UNK        -0.1800 
    102 C         -7.3871  -22.1847  -53.3915 C.2       18 UNK         0.5000 
    103 O         -6.5023  -21.7121  -52.6734 O.2       18 UNK        -0.5000 
    104 N         -7.9179  -21.5437  -54.4419 N.am      19 UNK        -0.5000 
    105 CA        -7.6211  -20.1683  -54.8660 C.3       19 UNK         0.1400 
    106 CB        -8.6107  -19.7768  -55.9757 C.3       19 UNK        -0.1800 
    107 C         -6.1654  -19.9137  -55.3189 C.2       19 UNK         0.5000 
    108 O         -5.7994  -18.7617  -55.5566 O.2       19 UNK        -0.5000 
    109 N         -5.3556  -20.9771  -55.4170 N.am      20 UNK        -0.5000 
    110 CA        -3.9058  -20.9261  -55.6091 C.3       20 UNK         0.1400 
    111 CB        -3.3934  -22.3522  -55.8656 C.3       20 UNK        -0.1800 
    112 C         -3.1545  -20.2914  -54.4182 C.2       20 UNK         0.5000 
    113 O         -2.0431  -19.7953  -54.6081 O.2       20 UNK        -0.5000 
    114 N         -3.7692  -20.3079  -53.2284 N.am      21 UNK        -0.5000 
    115 CA        -3.2955  -19.6423  -52.0197 C.3       21 UNK         0.1400 
    116 CB        -3.0595  -20.7050  -50.9365 C.3       21 UNK        -0.1800 
    117 C         -4.3358  -18.6126  -51.5482 C.2       21 UNK         0.5000 
    118 O         -5.4831  -18.6245  -52.0004 O.2       21 UNK        -0.5000 
    119 N         -3.9103  -17.7461  -50.6244 N.am      22 UNK        -0.5000 
    120 CA        -4.7413  -16.7243  -49.9654 C.3       22 UNK         0.1400 
    121 C         -5.7016  -17.2637  -48.8619 C.2       22 UNK         0.5000 
    122 N         -5.6333  -18.5318  -48.4756 N.am      22 UNK        -0.7600 
    123 O         -6.5384  -16.5189  -48.3586 O.2       22 UNK        -0.5000 
    124 C124       -3.8791  -15.5380  -49.4559 C.3       23 UNK        -0.0398 
    125 S125       -2.4555  -16.0565  -48.4314 S.3       23 UNK        -0.2404 
    126 C126       -1.0731  -15.6249  -49.5303 C.3       23 UNK        -0.0205 
    127 H127        1.7450  -15.0812  -51.4831 H         1 UNK         0.0600 
    128 H128        2.7946  -16.4940  -51.6149 H         1 UNK         0.0600 
    129 H129        2.9529  -15.1691  -52.7709 H         1 UNK         0.0600 
    130 H130        2.4464  -13.3532  -50.1784 H         1 UNK         0.3000 
    131 H131        5.1954  -12.7520  -49.7527 H         1 UNK         0.0600 
    132 H132        4.8728  -14.6095  -48.0367 H         1 UNK         0.0800 
    133 H133        5.3883  -13.0904  -47.3903 H         1 UNK         0.0800 
    134 H134        2.2784  -15.4548  -45.4737 H         1 UNK         0.0800 
    135 H135        3.8348  -15.8175  -46.1753 H         1 UNK         0.0800 
    136 H136        0.5200  -14.6251  -47.5723 H         1 UNK         0.1150 
    137 H137        0.2380  -17.8728  -50.3512 H         1 UNK         0.1150 
    138 H138        3.6198  -17.5874  -47.7368 H         1 UNK         0.1150 
    139 H139        2.1273  -19.3218  -50.7046 H         1 UNK         0.0800 
    140 H140        3.6499  -18.9250  -49.9530 H         1 UNK         0.0800 
    141 H141        0.3325  -20.8067  -49.7437 H         1 UNK         0.0800 
    142 H142        0.1445  -20.0967  -48.1541 H         1 UNK         0.0800 
    143 H143        0.9482  -23.0076  -48.6518 H         1 UNK         0.0600 
    144 H144        0.9242  -21.5340  -46.2307 H         1 UNK         0.3000 
    145 H145        0.4456  -24.3237  -44.0221 H         1 UNK         0.0600 
    146 H146        2.5084  -23.2962  -43.0797 H         1 UNK         0.0600 
    147 H147        2.8671  -24.2275  -44.5255 H         1 UNK         0.0600 
    148 H148        2.8199  -22.4736  -44.6076 H         1 UNK         0.0600 
    149 H149        0.7104  -21.4615  -43.6920 H         1 UNK         0.3000 
    150 H150       -2.7859  -20.7704  -43.6018 H         1 UNK         0.0600 
    151 H151       -2.2668  -21.6612  -41.3252 H         1 UNK         0.0600 
    152 H152       -2.1830  -19.9064  -41.3581 H         1 UNK         0.0600 
    153 H153       -0.7000  -20.8594  -41.3557 H         1 UNK         0.0600 
    154 H154       -0.4376  -19.1826  -43.1426 H         1 UNK         0.3000 
    155 H155        0.0458  -18.1411  -46.5266 H         1 UNK         0.0600 
    156 H156       -1.0396  -16.6550  -44.0674 H         1 UNK         0.0600 
    157 H157       -0.3500  -15.9267  -45.5165 H         1 UNK         0.0600 
    158 H158       -1.8820  -16.7764  -45.6049 H         1 UNK         0.0600 
    159 H159        1.3186  -17.2757  -44.1782 H         1 UNK         0.3000 
    160 H160        3.3404  -19.8543  -43.2350 H         1 UNK         0.0600 
    161 H161        4.4918  -17.6777  -45.0535 H         1 UNK         0.0600 
    162 H162        4.6724  -19.4068  -45.3174 H         1 UNK         0.0600 
    163 H163        5.3849  -18.6584  -43.8964 H         1 UNK         0.0600 
    164 H164        3.6854  -17.0642  -42.7938 H         1 UNK         0.3000 
    165 H165        1.1496  -16.6593  -40.3249 H         1 UNK         0.0600 
    166 H166        3.1325  -16.0033  -38.9963 H         1 UNK         0.0600 
    167 H167        3.0612  -17.7476  -39.1906 H         1 UNK         0.0600 
    168 H168        4.2021  -16.8101  -40.1423 H         1 UNK         0.0600 
    169 H169        1.3682  -14.7607  -41.3891 H         1 UNK         0.3000 
    170 H170        2.7215  -12.7384  -41.6770 H         1 UNK         0.0600 
    171 H171        5.1087  -12.7042  -42.3630 H         1 UNK         0.0600 
    172 H172        4.6669  -13.1542  -44.0056 H         1 UNK         0.0600 
    173 H173        4.1589  -11.6011  -43.3469 H         1 UNK         0.0600 
    174 H174        2.2933  -12.8802  -44.5045 H         1 UNK         0.3000 
    175 H175        0.1207  -13.5941  -45.4133 H         1 UNK         0.0600 
    176 H176       -2.1430  -12.5725  -43.6065 H         1 UNK         0.0600 
    177 H177       -2.3008  -13.0902  -45.2847 H         1 UNK         0.0600 
    178 H178       -1.8880  -14.2578  -44.0406 H         1 UNK         0.0600 
    179 H179        0.1721  -10.9200  -44.2142 H         1 UNK         0.3000 
    180 H180       -0.6820   -9.1990  -47.0107 H         1 UNK         0.0600 
    181 H181        0.9394   -9.0108  -44.4089 H         1 UNK         0.0600 
    182 H182       -0.8111   -8.8758  -44.5532 H         1 UNK         0.0600 
    183 H183        0.2240   -7.6693  -45.2908 H         1 UNK         0.0600 
    184 H184        1.2092   -8.9186  -48.1030 H         1 UNK         0.3000 
    185 H185        3.2640   -8.8284  -48.7502 H         1 UNK         0.0600 
    186 H186        5.3346   -8.9181  -46.4882 H         1 UNK         0.0600 
    187 H187        5.5815   -8.2412  -48.0976 H         1 UNK         0.0600 
    188 H188        4.4353   -7.4937  -46.9953 H         1 UNK         0.0600 
    189 H189        5.1232  -10.8991  -47.8759 H         1 UNK         0.3000 
    190 H190       -1.8123  -21.5209  -46.8688 H         1 UNK         0.3000 
    191 H191       -3.8523  -22.3248  -48.6516 H         1 UNK         0.0600 
    192 H192       -3.9729  -21.8668  -45.6278 H         1 UNK         0.0600 
    193 H193       -5.3606  -21.9400  -46.7075 H         1 UNK         0.0600 
    194 H194       -4.1909  -20.6387  -46.8710 H         1 UNK         0.0600 
    195 H195       -2.4486  -24.0603  -45.8308 H         1 UNK         0.3000 
    196 H196       -4.1132  -26.3530  -45.9890 H         1 UNK         0.0600 
    197 H197       -2.3522  -27.4132  -44.5747 H         1 UNK         0.0600 
    198 H198       -2.7667  -25.8098  -43.9878 H         1 UNK         0.0600 
    199 H199       -1.2707  -26.0611  -44.8832 H         1 UNK         0.0600 
    200 H200       -0.8911  -25.6944  -47.4550 H         1 UNK         0.3000 
    201 H201       -0.5680  -28.1845  -48.7619 H         1 UNK         0.0600 
    202 H202        1.2919  -26.5965  -48.3723 H         1 UNK         0.0600 
    203 H203        0.5624  -25.4246  -49.4675 H         1 UNK         0.0600 
    204 H204        1.1616  -26.9587  -50.0869 H         1 UNK         0.0600 
    205 H205       -2.1185  -25.1582  -49.8763 H         1 UNK         0.3000 
    206 H206       -2.7965  -26.1434  -52.5096 H         1 UNK         0.0600 
    207 H207       -2.4899  -23.7286  -52.0137 H         1 UNK         0.0600 
    208 H208       -4.1160  -24.0191  -52.6063 H         1 UNK         0.0600 
    209 H209       -3.8467  -23.7646  -50.8873 H         1 UNK         0.0600 
    210 H210       -4.0986  -26.8874  -49.4595 H         1 UNK         0.3000 
    211 H211       -5.9331  -27.7901  -48.6343 H         1 UNK         0.0600 
    212 H212       -6.5993  -28.7137  -51.4809 H         1 UNK         0.0600 
    213 H213       -7.2402  -29.3830  -49.9873 H         1 UNK         0.0600 
    214 H214       -5.5331  -29.5593  -50.3597 H         1 UNK         0.0600 
    215 H215       -6.0141  -25.1249  -49.0264 H         1 UNK         0.3000 
    216 H216       -7.2214  -23.3116  -48.9482 H         1 UNK         0.0600 
    217 H217       -9.5540  -23.3950  -48.1868 H         1 UNK         0.0600 
    218 H218       -8.6326  -24.6378  -47.3591 H         1 UNK         0.0600 
    219 H219       -9.7113  -25.0727  -48.6850 H         1 UNK         0.0600 
    220 H220       -6.8634  -24.7107  -51.6654 H         1 UNK         0.3000 
    221 H221       -8.9674  -23.6472  -53.3445 H         1 UNK         0.0600 
    222 H222       -6.1226  -24.5499  -54.0604 H         1 UNK         0.0600 
    223 H223       -7.5279  -25.6124  -53.9842 H         1 UNK         0.0600 
    224 H224       -7.4578  -24.3318  -55.1824 H         1 UNK         0.0600 
    225 H225       -8.6139  -22.0256  -54.9928 H         1 UNK         0.3000 
    226 H226       -7.7967  -19.5174  -54.0070 H         1 UNK         0.0600 
    227 H227       -9.6424  -19.8626  -55.6340 H         1 UNK         0.0600 
    228 H228       -8.4618  -18.7427  -56.2897 H         1 UNK         0.0600 
    229 H229       -8.4938  -20.4075  -56.8578 H         1 UNK         0.0600 
    230 H230       -5.7489  -21.8822  -55.2093 H         1 UNK         0.3000 
    231 H231       -3.7006  -20.3188  -56.4930 H         1 UNK         0.0600 
    232 H232       -2.3170  -22.3547  -56.0424 H         1 UNK         0.0600 
    233 H233       -3.8668  -22.7903  -56.7445 H         1 UNK         0.0600 
    234 H234       -3.5878  -23.0082  -55.0159 H         1 UNK         0.0600 
    235 H235       -4.7103  -20.6844  -53.1662 H         1 UNK         0.3000 
    236 H236       -2.3594  -19.1124  -52.2072 H         1 UNK         0.0600 
    237 H237       -2.2914  -21.4135  -51.2458 H         1 UNK         0.0600 
    238 H238       -2.7249  -20.2581  -49.9996 H         1 UNK         0.0600 
    239 H239       -3.9714  -21.2668  -50.7324 H         1 UNK         0.0600 
    240 H240       -2.9641  -17.8106  -50.2789 H         1 UNK         0.3000 
    241 H241       -5.4056  -16.3148  -50.7289 H         1 UNK         0.0600 
    242 H242       -4.9580  -19.1538  -48.8852 H         1 UNK         0.3800 
    243 H243       -6.2667  -18.8655  -47.7671 H         1 UNK         0.3800 
    244 H244       -3.5150  -14.9693  -50.3123 H         1 UNK         0.0800 
    245 H245       -4.4811  -14.8309  -48.8826 H         1 UNK         0.0800 
    246 H246       -1.0013  -14.5389  -49.6101 H         1 UNK         0.0800 
    247 H247       -1.2708  -15.9969  -50.5368 H         1 UNK         0.0800 
@<TRIPOS>BOND
     1    1    2 1    
     2    1  127 1    
     3    1  128 1    
     4    1  129 1    
     5    2    3 2    
     6    2    4 am   BACKBONE|DICT|INTERRES
     7    4    5 1    
     8    4  130 1    
     9    5    6 1    
    10    5   65 1    
    11    5  131 1    
    12    6    7 1    
    13    6  132 1    
    14    6  133 1    
    15    7    8 1    
    16    8    9 1    
    17    8  134 1    
    18    8  135 1    
    19    9   10 ar   
    20    9   14 ar   
    21   10   11 ar   
    22   10  136 1    
    23   11   12 ar   
    24   11  126 1    
    25   12   13 ar   
    26   12  137 1    
    27   13   14 ar   
    28   13   15 1    
    29   14  138 1    
    30   15   16 1    
    31   15  139 1    
    32   15  140 1    
    33   16   17 1    
    34   17   18 1    
    35   17  141 1    
    36   17  142 1    
    37   18   19 1    
    38   18   67 1    
    39   18  143 1    
    40   19   20 am   BACKBONE|DICT|INTERRES
    41   19  144 1    
    42   20   21 2    
    43   20   22 1    
    44   22   23 1    
    45   22   24 1    
    46   22  145 1    
    47   23  146 1    
    48   23  147 1    
    49   23  148 1    
    50   24   25 am   BACKBONE|DICT|INTERRES
    51   24  149 1    
    52   25   26 2    
    53   25   27 1    
    54   27   28 1    
    55   27   29 1    
    56   27  150 1    
    57   28  151 1    
    58   28  152 1    
    59   28  153 1    
    60   29   30 am   BACKBONE|DICT|INTERRES
    61   29  154 1    
    62   30   31 2    
    63   30   32 1    
    64   32   33 1    
    65   32   34 1    
    66   32  155 1    
    67   33  156 1    
    68   33  157 1    
    69   33  158 1    
    70   34   35 am   BACKBONE|DICT|INTERRES
    71   34  159 1    
    72   35   36 2    
    73   35   37 1    
    74   37   38 1    
    75   37   39 1    
    76   37  160 1    
    77   38  161 1    
    78   38  162 1    
    79   38  163 1    
    80   39   40 am   BACKBONE|DICT|INTERRES
    81   39  164 1    
    82   40   41 2    
    83   40   42 1    
    84   42   43 1    
    85   42   44 1    
    86   42  165 1    
    87   43  166 1    
    88   43  167 1    
    89   43  168 1    
    90   44   45 am   BACKBONE|DICT|INTERRES
    91   44  169 1    
    92   45   46 2    
    93   45   47 1    
    94   47   48 1    
    95   47   49 1    
    96   47  170 1    
    97   48  171 1    
    98   48  172 1    
    99   48  173 1    
   100   49   50 am   BACKBONE|DICT|INTERRES
   101   49  174 1    
   102   50   51 2    
   103   50   52 1    
   104   52   53 1    
   105   52   54 1    
   106   52  175 1    
   107   53  176 1    
   108   53  177 1    
   109   53  178 1    
   110   54   55 am   BACKBONE|DICT|INTERRES
   111   54  179 1    
   112   55   56 2    
   113   55   57 1    
   114   57   58 1    
   115   57   59 1    
   116   57  180 1    
   117   58  181 1    
   118   58  182 1    
   119   58  183 1    
   120   59   60 am   BACKBONE|DICT|INTERRES
   121   59  184 1    
   122   60   61 2    
   123   60   62 1    
   124   62   63 1    
   125   62   64 1    
   126   62  185 1    
   127   63  186 1    
   128   63  187 1    
   129   63  188 1    
   130   64   65 am   BACKBONE|DICT|INTERRES
   131   64  189 1    
   132   65   66 2    
   133   67   68 2    
   134   67   69 am   BACKBONE|DICT|INTERRES
   135   69   70 1    
   136   69  190 1    
   137   70   71 1    
   138   70   72 1    
   139   70  191 1    
   140   71  192 1    
   141   71  193 1    
   142   71  194 1    
   143   72   73 2    
   144   72   74 am   BACKBONE|DICT|INTERRES
   145   74   75 1    
   146   74  195 1    
   147   75   76 1    
   148   75   77 1    
   149   75  196 1    
   150   76  197 1    
   151   76  198 1    
   152   76  199 1    
   153   77   78 2    
   154   77   79 am   BACKBONE|DICT|INTERRES
   155   79   80 1    
   156   79  200 1    
   157   80   81 1    
   158   80   82 1    
   159   80  201 1    
   160   81  202 1    
   161   81  203 1    
   162   81  204 1    
   163   82   83 2    
   164   82   84 am   BACKBONE|DICT|INTERRES
   165   84   85 1    
   166   84  205 1    
   167   85   86 1    
   168   85   87 1    
   169   85  206 1    
   170   86  207 1    
   171   86  208 1    
   172   86  209 1    
   173   87   88 2    
   174   87   89 am   BACKBONE|DICT|INTERRES
   175   89   90 1    
   176   89  210 1    
   177   90   91 1    
   178   90   92 1    
   179   90  211 1    
   180   91  212 1    
   181   91  213 1    
   182   91  214 1    
   183   92   93 2    
   184   92   94 am   BACKBONE|DICT|INTERRES
   185   94   95 1    
   186   94  215 1    
   187   95   96 1    
   188   95   97 1    
   189   95  216 1    
   190   96  217 1    
   191   96  218 1    
   192   96  219 1    
   193   97   98 2    
   194   97   99 am   BACKBONE|DICT|INTERRES
   195   99  100 1    
   196   99  220 1    
   197  100  101 1    
   198  100  102 1    
   199  100  221 1    
   200  101  222 1    
   201  101  223 1    
   202  101  224 1    
   203  102  103 2    
   204  102  104 am   BACKBONE|DICT|INTERRES
   205  104  105 1    
   206  104  225 1    
   207  105  106 1    
   208  105  107 1    
   209  105  226 1    
   210  106  227 1    
   211  106  228 1    
   212  106  229 1    
   213  107  108 2    
   214  107  109 am   BACKBONE|DICT|INTERRES
   215  109  110 1    
   216  109  230 1    
   217  110  111 1    
   218  110  112 1    
   219  110  231 1    
   220  111  232 1    
   221  111  233 1    
   222  111  234 1    
   223  112  113 2    
   224  112  114 am   BACKBONE|DICT|INTERRES
   225  114  115 1    
   226  114  235 1    
   227  115  116 1    
   228  115  117 1    
   229  115  236 1    
   230  116  237 1    
   231  116  238 1    
   232  116  239 1    
   233  117  118 2    
   234  117  119 am   BACKBONE|DICT|INTERRES
   235  119  120 1    
   236  119  240 1    
   237  120  121 1    
   238  120  124 1    
   239  120  241 1    
   240  121  122 am   BACKBONE|DICT|INTERRES
   241  121  123 2    
   242  122  242 1    
   243  122  243 1    
   244  124  125 1    
   245  124  244 1    
   246  124  245 1    
   247  125  126 1    
   248  126  246 1    
   249  126  247 1    
@<TRIPOS>SUBSTRUCTURE
     1 UNK         1 GROUP             0       ****    0 ROOT    
