@<TRIPOS>MOLECULE
3R540
247   249    1
SMALL
USER_CHARGES


@<TRIPOS>ATOM
      1 CA          0.6714  -11.7575  -48.3544 C.3       0 UNK        -0.1800 
      2 C          -0.1832  -11.0473  -47.3071 C.2       0 UNK         0.5000 
      3 O          -0.2115   -9.8188  -47.2836 O.2       0 UNK        -0.5000 
      4 N          -0.8919  -11.7626  -46.4220 N.am      1 UNK        -0.5000 
      5 CA         -0.9489  -13.2268  -46.3065 C.3       1 UNK         0.1400 
      6 C6         -2.1981  -13.6864  -45.5194 C.3       23 UNK        -0.0398 
      7 S7         -3.7397  -13.4417  -46.4642 S.3       23 UNK        -0.2404 
      8 C8         -4.1268  -15.1463  -46.9875 C.3       23 UNK        -0.0205 
      9 C9         -3.1772  -15.6435  -48.0686 C.ar      23 UNK        -0.0193 
     10 C10        -3.4964  -15.4735  -49.4188 C.ar      23 UNK        -0.1150 
     11 C11        -2.6269  -15.9258  -50.4161 C.ar      23 UNK        -0.0193 
     12 C12        -1.4208  -16.5331  -50.0564 C.ar      23 UNK        -0.1150 
     13 C13        -1.0945  -16.7149  -48.7104 C.ar      23 UNK        -0.0193 
     14 C14        -1.9829  -16.2820  -47.7230 C.ar      23 UNK        -0.1150 
     15 C15         0.2124  -17.3883  -48.3204 C.3       23 UNK        -0.0205 
     16 S16         0.1496  -19.1836  -48.5795 S.3       23 UNK        -0.2404 
     17 C17        -1.2654  -19.6441  -47.5305 C.3       23 UNK        -0.0398 
     18 CA         -1.0976  -21.0697  -46.9673 C.3       11 UNK         0.1400 
     19 N          -0.1906  -21.1069  -45.8179 N.am      11 UNK        -0.5000 
     20 C           0.3979  -22.2161  -45.3545 C.2       10 UNK         0.5000 
     21 O           0.2544  -23.3286  -45.8617 O.2       10 UNK        -0.5000 
     22 CA          1.2438  -22.0598  -44.0771 C.3       10 UNK         0.1400 
     23 CB          2.6260  -21.4720  -44.3965 C.3       10 UNK        -0.1800 
     24 N           0.5864  -21.2330  -43.0625 N.am      10 UNK        -0.5000 
     25 C          -0.5469  -21.5767  -42.4355 C.2       9 UNK         0.5000 
     26 O          -1.1418  -22.6348  -42.6350 O.2       9 UNK        -0.5000 
     27 CA         -1.1418  -20.5575  -41.4465 C.3       9 UNK         0.1400 
     28 CB         -0.5213  -20.7417  -40.0535 C.3       9 UNK        -0.1800 
     29 N          -1.0118  -19.1529  -41.8424 N.am      9 UNK        -0.5000 
     30 C          -1.3718  -18.6056  -43.0129 C.2       8 UNK         0.5000 
     31 O          -1.7827  -19.2540  -43.9756 O.2       8 UNK        -0.5000 
     32 CA         -1.2894  -17.0689  -43.1257 C.3       8 UNK         0.1400 
     33 CB         -2.7112  -16.4849  -43.1047 C.3       8 UNK        -0.1800 
     34 N          -0.5117  -16.4187  -42.0649 N.am      8 UNK        -0.5000 
     35 C           0.8092  -16.5376  -41.8821 C.2       7 UNK         0.5000 
     36 O           1.5397  -17.2413  -42.5847 O.2       7 UNK        -0.5000 
     37 CA          1.3930  -15.7680  -40.6870 C.3       7 UNK         0.1400 
     38 CB          0.9053  -16.3543  -39.3498 C.3       7 UNK        -0.1800 
     39 N           2.8456  -15.8476  -40.7410 N.am      7 UNK        -0.5000 
     40 C           3.7077  -14.8961  -40.3688 C.2       6 UNK         0.5000 
     41 O           3.3627  -13.8288  -39.8603 O.2       6 UNK        -0.5000 
     42 CA          5.2117  -15.1762  -40.5943 C.3       6 UNK         0.1400 
     43 CB          5.9407  -15.3218  -39.2488 C.3       6 UNK        -0.1800 
     44 N           5.4904  -16.3666  -41.4076 N.am      6 UNK        -0.5000 
     45 C           5.2192  -16.4810  -42.7134 C.2       5 UNK         0.5000 
     46 O           4.7290  -15.5701  -43.3841 O.2       5 UNK        -0.5000 
     47 CA          5.5114  -17.8404  -43.3686 C.3       5 UNK         0.1400 
     48 CB          4.8355  -19.0072  -42.6192 C.3       5 UNK        -0.1800 
     49 N           5.0284  -17.7831  -44.7415 N.am      5 UNK        -0.5000 
     50 C           5.3653  -18.5910  -45.7494 C.2       4 UNK         0.5000 
     51 O           6.1498  -19.5339  -45.6394 O.2       4 UNK        -0.5000 
     52 CA          4.7135  -18.2985  -47.1142 C.3       4 UNK         0.1400 
     53 CB          3.5602  -19.2773  -47.3798 C.3       4 UNK        -0.1800 
     54 N           4.2054  -16.9276  -47.2349 N.am      4 UNK        -0.5000 
     55 C           4.9707  -15.8605  -47.5060 C.2       3 UNK         0.5000 
     56 O           6.1922  -15.9150  -47.6522 O.2       3 UNK        -0.5000 
     57 CA          4.2513  -14.5091  -47.6376 C.3       3 UNK         0.1400 
     58 CB          3.4848  -14.4325  -48.9686 C.3       3 UNK        -0.1800 
     59 N           3.3247  -14.2919  -46.5264 N.am      3 UNK        -0.5000 
     60 C           3.5387  -13.4701  -45.4915 C.2       2 UNK         0.5000 
     61 O           4.5323  -12.7483  -45.3874 O.2       2 UNK        -0.5000 
     62 CA          2.4268  -13.4260  -44.4176 C.3       2 UNK         0.1400 
     63 CB          2.7614  -12.4869  -43.2454 C.3       2 UNK        -0.1800 
     64 N           1.1376  -13.0281  -44.9898 N.am      2 UNK        -0.5000 
     65 C           0.3276  -13.8355  -45.6869 C.2       1 UNK         0.5000 
     66 O           0.5795  -15.0244  -45.8812 O.2       1 UNK        -0.5000 
     67 C          -2.4665  -21.6873  -46.6360 C.2       11 UNK         0.5000 
     68 O          -3.0657  -22.3081  -47.5141 O.2       11 UNK        -0.5000 
     69 N          -2.9281  -21.5361  -45.3870 N.am      12 UNK        -0.5000 
     70 CA         -4.1487  -22.1642  -44.8817 C.3       12 UNK         0.1400 
     71 CB         -4.5005  -21.5856  -43.5036 C.3       12 UNK        -0.1800 
     72 C          -4.0279  -23.6986  -44.8268 C.2       12 UNK         0.5000 
     73 O          -4.9523  -24.3922  -45.2501 O.2       12 UNK        -0.5000 
     74 N          -2.8755  -24.1971  -44.3549 N.am      13 UNK        -0.5000 
     75 CA         -2.5319  -25.6199  -44.3196 C.3       13 UNK         0.1400 
     76 CB         -1.2574  -25.8198  -43.4856 C.3       13 UNK        -0.1800 
     77 C          -2.3634  -26.2278  -45.7243 C.2       13 UNK         0.5000 
     78 O          -2.8167  -27.3487  -45.9582 O.2       13 UNK        -0.5000 
     79 N          -1.7399  -25.4712  -46.6389 N.am      14 UNK        -0.5000 
     80 CA         -1.5754  -25.8405  -48.0477 C.3       14 UNK         0.1400 
     81 CB         -0.5041  -24.9373  -48.6779 C.3       14 UNK        -0.1800 
     82 C          -2.8817  -25.7561  -48.8640 C.2       14 UNK         0.5000 
     83 O          -2.9607  -26.3670  -49.9302 O.2       14 UNK        -0.5000 
     84 N          -3.8595  -24.9881  -48.3601 N.am      15 UNK        -0.5000 
     85 CA         -5.1292  -24.6154  -48.9888 C.3       15 UNK         0.1400 
     86 CB         -6.0385  -25.8468  -49.1755 C.3       15 UNK        -0.1800 
     87 C          -4.9025  -23.8156  -50.2877 C.2       15 UNK         0.5000 
     88 O          -5.5030  -24.1193  -51.3192 O.2       15 UNK        -0.5000 
     89 N          -4.0166  -22.8112  -50.2085 N.am      16 UNK        -0.5000 
     90 CA         -3.4971  -22.0230  -51.3317 C.3       16 UNK         0.1400 
     91 CB         -2.5376  -20.9520  -50.7935 C.3       16 UNK        -0.1800 
     92 C          -4.5739  -21.3673  -52.2146 C.2       16 UNK         0.5000 
     93 O          -4.4297  -21.3543  -53.4374 O.2       16 UNK        -0.5000 
     94 N          -5.6424  -20.8619  -51.5855 N.am      17 UNK        -0.5000 
     95 CA         -6.7734  -20.2337  -52.2678 C.3       17 UNK         0.1400 
     96 CB         -7.6218  -19.4680  -51.2420 C.3       17 UNK        -0.1800 
     97 C          -7.6366  -21.2428  -53.0490 C.2       17 UNK         0.5000 
     98 O          -8.1163  -20.9140  -54.1339 O.2       17 UNK        -0.5000 
     99 N          -7.7975  -22.4567  -52.5026 N.am      18 UNK        -0.5000 
    100 CA        -8.5322  -23.5579  -53.1310 C.3       18 UNK         0.1400 
    101 CB        -8.9366  -24.5825  -52.0606 C.3       18 UNK        -0.1800 
    102 C         -7.7108  -24.2290  -54.2456 C.2       18 UNK         0.5000 
    103 O         -8.2707  -24.6098  -55.2739 O.2       18 UNK        -0.5000 
    104 N         -6.3910  -24.3239  -54.0342 N.am      19 UNK        -0.5000 
    105 CA        -5.4052  -24.8054  -55.0039 C.3       19 UNK         0.1400 
    106 CB        -4.0885  -25.0836  -54.2612 C.3       19 UNK        -0.1800 
    107 C         -5.1620  -23.8261  -56.1718 C.2       19 UNK         0.5000 
    108 O         -4.5550  -24.2202  -57.1681 O.2       19 UNK        -0.5000 
    109 N         -5.6198  -22.5743  -56.0172 N.am      20 UNK        -0.5000 
    110 CA        -5.4605  -21.4341  -56.9248 C.3       20 UNK         0.1400 
    111 CB        -6.1330  -21.6994  -58.2875 C.3       20 UNK        -0.1800 
    112 C         -3.9970  -20.9623  -57.0533 C.2       20 UNK         0.5000 
    113 O         -3.6319  -20.3430  -58.0545 O.2       20 UNK        -0.5000 
    114 N         -3.1917  -21.2112  -56.0107 N.am      21 UNK        -0.5000 
    115 CA        -1.8001  -20.7695  -55.8911 C.3       21 UNK         0.1400 
    116 CB        -1.1430  -21.4956  -54.7080 C.3       21 UNK        -0.1800 
    117 C         -1.6782  -19.2407  -55.7367 C.2       21 UNK         0.5000 
    118 O         -0.6433  -18.6729  -56.0873 O.2       21 UNK        -0.5000 
    119 N         -2.7545  -18.6055  -55.2560 N.am      22 UNK        -0.5000 
    120 CA        -2.9465  -17.1485  -55.2331 C.3       22 UNK         0.1400 
    121 C         -3.1765  -16.5062  -56.6361 C.2       22 UNK         0.5000 
    122 N         -3.3775  -17.2660  -57.7080 N.am      22 UNK        -0.7600 
    123 O         -3.1665  -15.2842  -56.7558 O.2       22 UNK        -0.5000 
    124 C124       -4.0813  -16.7410  -54.2582 C.3       23 UNK        -0.0398 
    125 S125       -3.7683  -17.2672  -52.5396 S.3       23 UNK        -0.2404 
    126 C126       -2.9891  -15.7604  -51.8816 C.3       23 UNK        -0.0205 
    127 H127        1.0918  -11.0369  -49.0560 H         1 UNK         0.0600 
    128 H128        0.0842  -12.4722  -48.9305 H         1 UNK         0.0600 
    129 H129        1.5009  -12.2787  -47.8797 H         1 UNK         0.0600 
    130 H130       -1.4669  -11.2611  -45.7602 H         1 UNK         0.3000 
    131 H131       -1.0235  -13.6444  -47.3115 H         1 UNK         0.0600 
    132 H132       -2.2778  -13.1483  -44.5734 H         1 UNK         0.0800 
    133 H133       -2.1253  -14.7393  -45.2534 H         1 UNK         0.0800 
    134 H134       -5.1519  -15.1708  -47.3603 H         1 UNK         0.0800 
    135 H135       -4.1068  -15.8149  -46.1259 H         1 UNK         0.0800 
    136 H136       -4.4251  -14.9934  -49.6939 H         1 UNK         0.1150 
    137 H137       -0.7444  -16.8829  -50.8237 H         1 UNK         0.1150 
    138 H138       -1.7345  -16.4366  -46.6835 H         1 UNK         0.1150 
    139 H139        0.4564  -17.1935  -47.2760 H         1 UNK         0.0800 
    140 H140        1.0281  -16.9727  -48.9125 H         1 UNK         0.0800 
    141 H141       -2.1613  -19.5509  -48.1454 H         1 UNK         0.0800 
    142 H142       -1.3847  -18.9272  -46.7170 H         1 UNK         0.0800 
    143 H143       -0.6684  -21.6959  -47.7522 H         1 UNK         0.0600 
    144 H144       -0.0861  -20.2470  -45.2988 H         1 UNK         0.3000 
    145 H145        1.3896  -23.0581  -43.6590 H         1 UNK         0.0600 
    146 H146        3.1110  -22.0188  -45.2063 H         1 UNK         0.0600 
    147 H147        3.2816  -21.5325  -43.5284 H         1 UNK         0.0600 
    148 H148        2.5622  -20.4256  -44.6949 H         1 UNK         0.0600 
    149 H149        1.0022  -20.3369  -42.8529 H         1 UNK         0.3000 
    150 H150       -2.2095  -20.7665  -41.3680 H         1 UNK         0.0600 
    151 H151        0.5404  -20.4916  -40.0501 H         1 UNK         0.0600 
    152 H152       -0.6170  -21.7745  -39.7155 H         1 UNK         0.0600 
    153 H153       -1.0168  -20.1129  -39.3135 H         1 UNK         0.0600 
    154 H154       -0.6852  -18.5230  -41.1259 H         1 UNK         0.3000 
    155 H155       -0.8227  -16.8300  -44.0838 H         1 UNK         0.0600 
    156 H156       -3.2552  -16.7889  -42.2093 H         1 UNK         0.0600 
    157 H157       -3.2861  -16.8259  -43.9666 H         1 UNK         0.0600 
    158 H158       -2.7015  -15.3958  -43.1250 H         1 UNK         0.0600 
    159 H159       -1.0368  -15.8333  -41.4310 H         1 UNK         0.3000 
    160 H160        1.0756  -14.7266  -40.7723 H         1 UNK         0.0600 
    161 H161        1.1797  -17.4052  -39.2482 H         1 UNK         0.0600 
    162 H162       -0.1788  -16.2851  -39.2550 H         1 UNK         0.0600 
    163 H163        1.3353  -15.8156  -38.5051 H         1 UNK         0.0600 
    164 H164        3.1978  -16.6606  -41.2283 H         1 UNK         0.3000 
    165 H165        5.6237  -14.3081  -41.1132 H         1 UNK         0.0600 
    166 H166        5.7975  -14.4373  -38.6266 H         1 UNK         0.0600 
    167 H167        5.5756  -16.1815  -38.6855 H         1 UNK         0.0600 
    168 H168        7.0145  -15.4439  -39.3922 H         1 UNK         0.0600 
    169 H169        5.8905  -17.1549  -40.9196 H         1 UNK         0.3000 
    170 H170        6.5937  -17.9830  -43.3749 H         1 UNK         0.0600 
    171 H171        3.7502  -18.9018  -42.6080 H         1 UNK         0.0600 
    172 H172        5.1731  -19.0737  -41.5849 H         1 UNK         0.0600 
    173 H173        5.0723  -19.9624  -43.0868 H         1 UNK         0.0600 
    174 H174        4.4341  -16.9844  -44.9258 H         1 UNK         0.3000 
    175 H175        5.4758  -18.4621  -47.8791 H         1 UNK         0.0600 
    176 H176        3.8826  -20.3123  -47.2581 H         1 UNK         0.0600 
    177 H177        2.7237  -19.1102  -46.7007 H         1 UNK         0.0600 
    178 H178        3.1900  -19.1741  -48.3997 H         1 UNK         0.0600 
    179 H179        3.2107  -16.8062  -47.1267 H         1 UNK         0.3000 
    180 H180        5.0175  -13.7311  -47.6528 H         1 UNK         0.0600 
    181 H181        2.6303  -15.1090  -48.9883 H         1 UNK         0.0600 
    182 H182        4.1304  -14.6931  -49.8085 H         1 UNK         0.0600 
    183 H183        3.1175  -13.4236  -49.1516 H         1 UNK         0.0600 
    184 H184        2.4563  -14.8159  -46.5260 H         1 UNK         0.3000 
    185 H185        2.3349  -14.4350  -44.0091 H         1 UNK         0.0600 
    186 H186        3.7072  -12.7680  -42.7801 H         1 UNK         0.0600 
    187 H187        2.8482  -11.4494  -43.5700 H         1 UNK         0.0600 
    188 H188        1.9960  -12.5357  -42.4707 H         1 UNK         0.0600 
    189 H189        0.8857  -12.0540  -44.9011 H         1 UNK         0.3000 
    190 H190       -2.4100  -20.9442  -44.7448 H         1 UNK         0.3000 
    191 H191       -4.9600  -21.9155  -45.5692 H         1 UNK         0.0600 
    192 H192       -4.5639  -20.4976  -43.5343 H         1 UNK         0.0600 
    193 H193       -5.4660  -21.9602  -43.1618 H         1 UNK         0.0600 
    194 H194       -3.7619  -21.8587  -42.7514 H         1 UNK         0.0600 
    195 H195       -2.1869  -23.5580  -43.9669 H         1 UNK         0.3000 
    196 H196       -3.3480  -26.1499  -43.8241 H         1 UNK         0.0600 
    197 H197       -0.9815  -26.8739  -43.4377 H         1 UNK         0.0600 
    198 H198       -1.3995  -25.4740  -42.4616 H         1 UNK         0.0600 
    199 H199       -0.4110  -25.2760  -43.9067 H         1 UNK         0.0600 
    200 H200       -1.3259  -24.5921  -46.3476 H         1 UNK         0.3000 
    201 H201       -1.2225  -26.8727  -48.0940 H         1 UNK         0.0600 
    202 H202       -0.3145  -25.2192  -49.7144 H         1 UNK         0.0600 
    203 H203        0.4426  -25.0124  -48.1426 H         1 UNK         0.0600 
    204 H204       -0.8107  -23.8912  -48.6747 H         1 UNK         0.0600 
    205 H205       -3.6549  -24.4979  -47.4992 H         1 UNK         0.3000 
    206 H206       -5.6270  -23.9397  -48.2919 H         1 UNK         0.0600 
    207 H207       -6.1453  -26.4014  -48.2432 H         1 UNK         0.0600 
    208 H208       -7.0381  -25.5462  -49.4890 H         1 UNK         0.0600 
    209 H209       -5.6503  -26.5308  -49.9308 H         1 UNK         0.0600 
    210 H210       -3.5990  -22.6295  -49.2989 H         1 UNK         0.3000 
    211 H211       -2.9266  -22.7050  -51.9645 H         1 UNK         0.0600 
    212 H212       -2.0965  -20.3693  -51.6029 H         1 UNK         0.0600 
    213 H213       -1.7182  -21.3985  -50.2299 H         1 UNK         0.0600 
    214 H214       -3.0564  -20.2503  -50.1406 H         1 UNK         0.0600 
    215 H215       -5.6815  -20.9165  -50.5786 H         1 UNK         0.3000 
    216 H216       -6.3777  -19.5108  -52.9850 H         1 UNK         0.0600 
    217 H217       -7.0339  -18.6968  -50.7436 H         1 UNK         0.0600 
    218 H218       -8.0262  -20.1313  -50.4765 H         1 UNK         0.0600 
    219 H219       -8.4641  -18.9713  -51.7255 H         1 UNK         0.0600 
    220 H220       -7.3066  -22.6728  -51.6464 H         1 UNK         0.3000 
    221 H221       -9.4448  -23.1583  -53.5787 H         1 UNK         0.0600 
    222 H222       -8.0660  -25.0483  -51.5993 H         1 UNK         0.0600 
    223 H223       -9.5288  -24.1186  -51.2718 H         1 UNK         0.0600 
    224 H224       -9.5407  -25.3798  -52.4954 H         1 UNK         0.0600 
    225 H225       -6.0313  -24.0590  -53.1201 H         1 UNK         0.3000 
    226 H226       -5.7692  -25.7432  -55.4281 H         1 UNK         0.0600 
    227 H227       -4.2338  -25.8003  -53.4523 H         1 UNK         0.0600 
    228 H228       -3.3379  -25.4998  -54.9342 H         1 UNK         0.0600 
    229 H229       -3.6731  -24.1728  -53.8290 H         1 UNK         0.0600 
    230 H230       -6.0700  -22.3621  -55.1376 H         1 UNK         0.3000 
    231 H231       -5.9964  -20.6085  -56.4544 H         1 UNK         0.0600 
    232 H232       -5.5997  -22.4548  -58.8649 H         1 UNK         0.0600 
    233 H233       -6.1633  -20.7915  -58.8909 H         1 UNK         0.0600 
    234 H234       -7.1616  -22.0370  -58.1600 H         1 UNK         0.0600 
    235 H235       -3.6055  -21.6257  -55.1809 H         1 UNK         0.3000 
    236 H236       -1.2738  -21.0537  -56.8046 H         1 UNK         0.0600 
    237 H237       -1.6272  -21.2436  -53.7655 H         1 UNK         0.0600 
    238 H238       -1.1922  -22.5776  -54.8317 H         1 UNK         0.0600 
    239 H239       -0.0903  -21.2245  -54.6192 H         1 UNK         0.0600 
    240 H240       -3.5406  -19.1644  -54.9586 H         1 UNK         0.3000 
    241 H241       -2.0201  -16.7085  -54.8592 H         1 UNK         0.0600 
    242 H242       -3.3773  -18.2767  -57.6529 H         1 UNK         0.3800 
    243 H243       -3.5188  -16.8219  -58.6016 H         1 UNK         0.3800 
    244 H244       -4.2356  -15.6604  -54.2699 H         1 UNK         0.0800 
    245 H245       -5.0275  -17.1799  -54.5786 H         1 UNK         0.0800 
    246 H246       -2.0934  -15.5305  -52.4607 H         1 UNK         0.0800 
    247 H247       -3.6659  -14.9136  -52.0068 H         1 UNK         0.0800 
@<TRIPOS>BOND
     1    1    2 1    
     2    1  127 1    
     3    1  128 1    
     4    1  129 1    
     5    2    3 2    
     6    2    4 am   BACKBONE|DICT|INTERRES
     7    4    5 1    
     8    4  130 1    
     9    5    6 1    
    10    5   65 1    
    11    5  131 1    
    12    6    7 1    
    13    6  132 1    
    14    6  133 1    
    15    7    8 1    
    16    8    9 1    
    17    8  134 1    
    18    8  135 1    
    19    9   10 ar   
    20    9   14 ar   
    21   10   11 ar   
    22   10  136 1    
    23   11   12 ar   
    24   11  126 1    
    25   12   13 ar   
    26   12  137 1    
    27   13   14 ar   
    28   13   15 1    
    29   14  138 1    
    30   15   16 1    
    31   15  139 1    
    32   15  140 1    
    33   16   17 1    
    34   17   18 1    
    35   17  141 1    
    36   17  142 1    
    37   18   19 1    
    38   18   67 1    
    39   18  143 1    
    40   19   20 am   BACKBONE|DICT|INTERRES
    41   19  144 1    
    42   20   21 2    
    43   20   22 1    
    44   22   23 1    
    45   22   24 1    
    46   22  145 1    
    47   23  146 1    
    48   23  147 1    
    49   23  148 1    
    50   24   25 am   BACKBONE|DICT|INTERRES
    51   24  149 1    
    52   25   26 2    
    53   25   27 1    
    54   27   28 1    
    55   27   29 1    
    56   27  150 1    
    57   28  151 1    
    58   28  152 1    
    59   28  153 1    
    60   29   30 am   BACKBONE|DICT|INTERRES
    61   29  154 1    
    62   30   31 2    
    63   30   32 1    
    64   32   33 1    
    65   32   34 1    
    66   32  155 1    
    67   33  156 1    
    68   33  157 1    
    69   33  158 1    
    70   34   35 am   BACKBONE|DICT|INTERRES
    71   34  159 1    
    72   35   36 2    
    73   35   37 1    
    74   37   38 1    
    75   37   39 1    
    76   37  160 1    
    77   38  161 1    
    78   38  162 1    
    79   38  163 1    
    80   39   40 am   BACKBONE|DICT|INTERRES
    81   39  164 1    
    82   40   41 2    
    83   40   42 1    
    84   42   43 1    
    85   42   44 1    
    86   42  165 1    
    87   43  166 1    
    88   43  167 1    
    89   43  168 1    
    90   44   45 am   BACKBONE|DICT|INTERRES
    91   44  169 1    
    92   45   46 2    
    93   45   47 1    
    94   47   48 1    
    95   47   49 1    
    96   47  170 1    
    97   48  171 1    
    98   48  172 1    
    99   48  173 1    
   100   49   50 am   BACKBONE|DICT|INTERRES
   101   49  174 1    
   102   50   51 2    
   103   50   52 1    
   104   52   53 1    
   105   52   54 1    
   106   52  175 1    
   107   53  176 1    
   108   53  177 1    
   109   53  178 1    
   110   54   55 am   BACKBONE|DICT|INTERRES
   111   54  179 1    
   112   55   56 2    
   113   55   57 1    
   114   57   58 1    
   115   57   59 1    
   116   57  180 1    
   117   58  181 1    
   118   58  182 1    
   119   58  183 1    
   120   59   60 am   BACKBONE|DICT|INTERRES
   121   59  184 1    
   122   60   61 2    
   123   60   62 1    
   124   62   63 1    
   125   62   64 1    
   126   62  185 1    
   127   63  186 1    
   128   63  187 1    
   129   63  188 1    
   130   64   65 am   BACKBONE|DICT|INTERRES
   131   64  189 1    
   132   65   66 2    
   133   67   68 2    
   134   67   69 am   BACKBONE|DICT|INTERRES
   135   69   70 1    
   136   69  190 1    
   137   70   71 1    
   138   70   72 1    
   139   70  191 1    
   140   71  192 1    
   141   71  193 1    
   142   71  194 1    
   143   72   73 2    
   144   72   74 am   BACKBONE|DICT|INTERRES
   145   74   75 1    
   146   74  195 1    
   147   75   76 1    
   148   75   77 1    
   149   75  196 1    
   150   76  197 1    
   151   76  198 1    
   152   76  199 1    
   153   77   78 2    
   154   77   79 am   BACKBONE|DICT|INTERRES
   155   79   80 1    
   156   79  200 1    
   157   80   81 1    
   158   80   82 1    
   159   80  201 1    
   160   81  202 1    
   161   81  203 1    
   162   81  204 1    
   163   82   83 2    
   164   82   84 am   BACKBONE|DICT|INTERRES
   165   84   85 1    
   166   84  205 1    
   167   85   86 1    
   168   85   87 1    
   169   85  206 1    
   170   86  207 1    
   171   86  208 1    
   172   86  209 1    
   173   87   88 2    
   174   87   89 am   BACKBONE|DICT|INTERRES
   175   89   90 1    
   176   89  210 1    
   177   90   91 1    
   178   90   92 1    
   179   90  211 1    
   180   91  212 1    
   181   91  213 1    
   182   91  214 1    
   183   92   93 2    
   184   92   94 am   BACKBONE|DICT|INTERRES
   185   94   95 1    
   186   94  215 1    
   187   95   96 1    
   188   95   97 1    
   189   95  216 1    
   190   96  217 1    
   191   96  218 1    
   192   96  219 1    
   193   97   98 2    
   194   97   99 am   BACKBONE|DICT|INTERRES
   195   99  100 1    
   196   99  220 1    
   197  100  101 1    
   198  100  102 1    
   199  100  221 1    
   200  101  222 1    
   201  101  223 1    
   202  101  224 1    
   203  102  103 2    
   204  102  104 am   BACKBONE|DICT|INTERRES
   205  104  105 1    
   206  104  225 1    
   207  105  106 1    
   208  105  107 1    
   209  105  226 1    
   210  106  227 1    
   211  106  228 1    
   212  106  229 1    
   213  107  108 2    
   214  107  109 am   BACKBONE|DICT|INTERRES
   215  109  110 1    
   216  109  230 1    
   217  110  111 1    
   218  110  112 1    
   219  110  231 1    
   220  111  232 1    
   221  111  233 1    
   222  111  234 1    
   223  112  113 2    
   224  112  114 am   BACKBONE|DICT|INTERRES
   225  114  115 1    
   226  114  235 1    
   227  115  116 1    
   228  115  117 1    
   229  115  236 1    
   230  116  237 1    
   231  116  238 1    
   232  116  239 1    
   233  117  118 2    
   234  117  119 am   BACKBONE|DICT|INTERRES
   235  119  120 1    
   236  119  240 1    
   237  120  121 1    
   238  120  124 1    
   239  120  241 1    
   240  121  122 am   BACKBONE|DICT|INTERRES
   241  121  123 2    
   242  122  242 1    
   243  122  243 1    
   244  124  125 1    
   245  124  244 1    
   246  124  245 1    
   247  125  126 1    
   248  126  246 1    
   249  126  247 1    
@<TRIPOS>SUBSTRUCTURE
     1 UNK         1 GROUP             0       ****    0 ROOT    
