@<TRIPOS>MOLECULE
3R540
247   249    1
SMALL
USER_CHARGES


@<TRIPOS>ATOM
      1 CA          3.3814  -10.8728  -49.4143 C.3       0 UNK        -0.1800 
      2 C           3.7224  -12.0107  -50.3745 C.2       0 UNK         0.5000 
      3 O           4.0338  -11.7508  -51.5344 O.2       0 UNK        -0.5000 
      4 N           3.6755  -13.2807  -49.9497 N.am      1 UNK        -0.5000 
      5 CA          3.3091  -13.7490  -48.6056 C.3       1 UNK         0.1400 
      6 C6          4.0057  -15.0806  -48.2387 C.3       23 UNK        -0.0398 
      7 S7          5.8308  -14.9562  -48.1955 S.3       23 UNK        -0.2404 
      8 C8          6.3444  -15.4449  -49.8793 C.3       23 UNK        -0.0205 
      9 C9          5.6787  -16.7307  -50.3441 C.ar      23 UNK        -0.0193 
     10 C10         4.7172  -16.6949  -51.3579 C.ar      23 UNK        -0.1150 
     11 C11         4.0359  -17.8559  -51.7293 C.ar      23 UNK        -0.0193 
     12 C12         4.3538  -19.0676  -51.1089 C.ar      23 UNK        -0.1150 
     13 C13         5.3189  -19.1179  -50.0985 C.ar      23 UNK        -0.0193 
     14 C14         5.9830  -17.9462  -49.7255 C.ar      23 UNK        -0.1150 
     15 C15         5.6318  -20.4272  -49.3894 C.3       23 UNK        -0.0205 
     16 S16         4.5702  -20.6633  -47.9268 S.3       23 UNK        -0.2404 
     17 C17         3.0088  -21.2244  -48.6882 C.3       23 UNK        -0.0398 
     18 CA          2.4629  -22.5082  -48.0246 C.3       11 UNK         0.1400 
     19 N           1.9894  -22.2657  -46.6588 N.am      11 UNK        -0.5000 
     20 C           1.7813  -23.2269  -45.7494 C.2       10 UNK         0.5000 
     21 O           1.9979  -24.4218  -45.9532 O.2       10 UNK        -0.5000 
     22 CA          1.1979  -22.7862  -44.3939 C.3       10 UNK         0.1400 
     23 CB          2.2904  -22.2054  -43.4834 C.3       10 UNK        -0.1800 
     24 N           0.1078  -21.8214  -44.5400 N.am      10 UNK        -0.5000 
     25 C          -1.0642  -22.0968  -45.1300 C.2       9 UNK         0.5000 
     26 O          -1.3665  -23.2063  -45.5680 O.2       9 UNK        -0.5000 
     27 CA         -2.0569  -20.9350  -45.2927 C.3       9 UNK         0.1400 
     28 CB         -2.9119  -20.7738  -44.0282 C.3       9 UNK        -0.1800 
     29 N          -1.4169  -19.6636  -45.6290 N.am      9 UNK        -0.5000 
     30 C          -0.7138  -19.4405  -46.7494 C.2       8 UNK         0.5000 
     31 O          -0.5095  -20.2918  -47.6100 O.2       8 UNK        -0.5000 
     32 CA         -0.0657  -18.0562  -46.9051 C.3       8 UNK         0.1400 
     33 CB         -1.1181  -16.9866  -47.2295 C.3       8 UNK        -0.1800 
     34 N           0.6847  -17.6695  -45.7152 N.am      8 UNK        -0.5000 
     35 C           1.7060  -18.3632  -45.1931 C.2       7 UNK         0.5000 
     36 O           2.1663  -19.3918  -45.6884 O.2       7 UNK        -0.5000 
     37 CA          2.2625  -17.8462  -43.8584 C.3       7 UNK         0.1400 
     38 CB          3.2377  -16.6808  -44.0877 C.3       7 UNK        -0.1800 
     39 N           1.1849  -17.4250  -42.9618 N.am      7 UNK        -0.5000 
     40 C           0.3439  -18.2674  -42.3451 C.2       6 UNK         0.5000 
     41 O           0.4170  -19.4935  -42.4344 O.2       6 UNK        -0.5000 
     42 CA         -0.7863  -17.6311  -41.5131 C.3       6 UNK         0.1400 
     43 CB         -0.2695  -17.2068  -40.1302 C.3       6 UNK        -0.1800 
     44 N          -1.4052  -16.4800  -42.1744 N.am      6 UNK        -0.5000 
     45 C          -2.1408  -16.5621  -43.2917 C.2       5 UNK         0.5000 
     46 O          -2.3870  -17.6199  -43.8676 O.2       5 UNK        -0.5000 
     47 CA         -2.6604  -15.2427  -43.8953 C.3       5 UNK         0.1400 
     48 CB         -3.9973  -14.8490  -43.2502 C.3       5 UNK        -0.1800 
     49 N          -1.7361  -14.1055  -43.8233 N.am      5 UNK        -0.5000 
     50 C          -0.4554  -14.1069  -44.2158 C.2       4 UNK         0.5000 
     51 O           0.1544  -15.1159  -44.5689 O.2       4 UNK        -0.5000 
     52 CA          0.2355  -12.7389  -44.2707 C.3       4 UNK         0.1400 
     53 CB          1.7580  -12.8452  -44.0702 C.3       4 UNK        -0.1800 
     54 N          -0.0318  -12.1639  -45.5838 N.am      4 UNK        -0.5000 
     55 C          -0.9941  -11.2728  -45.8553 C.2       3 UNK         0.5000 
     56 O          -1.7364  -10.7944  -44.9966 O.2       3 UNK        -0.5000 
     57 CA         -1.1634  -10.8320  -47.3247 C.3       3 UNK         0.1400 
     58 CB         -0.4685   -9.4817  -47.5596 C.3       3 UNK        -0.1800 
     59 N          -0.6443  -11.7999  -48.2924 N.am      3 UNK        -0.5000 
     60 C          -1.2200  -12.9724  -48.5916 C.2       2 UNK         0.5000 
     61 O          -2.2945  -13.3462  -48.1220 O.2       2 UNK        -0.5000 
     62 CA         -0.4545  -13.8919  -49.5674 C.3       2 UNK         0.1400 
     63 CB         -0.9366  -13.6634  -51.0073 C.3       2 UNK        -0.1800 
     64 N           1.0078  -13.7548  -49.5277 N.am      2 UNK        -0.5000 
     65 C           1.7819  -13.8948  -48.4394 C.2       1 UNK         0.5000 
     66 O           1.3310  -14.1098  -47.3182 O.2       1 UNK        -0.5000 
     67 C           1.3825  -23.1778  -48.9035 C.2       11 UNK         0.5000 
     68 O           1.7109  -24.0841  -49.6710 O.2       11 UNK        -0.5000 
     69 N           0.1196  -22.7483  -48.7640 N.am      12 UNK        -0.5000 
     70 CA         -1.0375  -23.2867  -49.4848 C.3       12 UNK         0.1400 
     71 CB         -2.2307  -22.3390  -49.2969 C.3       12 UNK        -0.1800 
     72 C          -1.4143  -24.7180  -49.0559 C.2       12 UNK         0.5000 
     73 O          -2.0267  -25.4415  -49.8434 O.2       12 UNK        -0.5000 
     74 N          -1.0410  -25.0971  -47.8246 N.am      13 UNK        -0.5000 
     75 CA         -1.1791  -26.4166  -47.2090 C.3       13 UNK         0.1400 
     76 CB         -0.2104  -27.4189  -47.8744 C.3       13 UNK        -0.1800 
     77 C          -2.6473  -26.8808  -47.1840 C.2       13 UNK         0.5000 
     78 O          -3.4352  -26.3312  -46.4148 O.2       13 UNK        -0.5000 
     79 N          -3.0001  -27.8509  -48.0381 N.am      14 UNK        -0.5000 
     80 CA         -4.3490  -28.4010  -48.1853 C.3       14 UNK         0.1400 
     81 CB         -4.2944  -29.6087  -49.1332 C.3       14 UNK        -0.1800 
     82 C          -5.3952  -27.3789  -48.6736 C.2       14 UNK         0.5000 
     83 O          -6.5725  -27.5252  -48.3430 O.2       14 UNK        -0.5000 
     84 N          -4.9592  -26.3606  -49.4312 N.am      15 UNK        -0.5000 
     85 CA         -5.8135  -25.2578  -49.8810 C.3       15 UNK         0.1400 
     86 CB         -5.2219  -24.6473  -51.1590 C.3       15 UNK        -0.1800 
     87 C          -6.0360  -24.1930  -48.7857 C.2       15 UNK         0.5000 
     88 O          -7.0003  -23.4318  -48.8743 O.2       15 UNK        -0.5000 
     89 N          -5.1566  -24.1726  -47.7690 N.am      16 UNK        -0.5000 
     90 CA         -5.2589  -23.4673  -46.4822 C.3       16 UNK         0.1400 
     91 CB         -6.3024  -24.1809  -45.5994 C.3       16 UNK        -0.1800 
     92 C          -5.5182  -21.9459  -46.5566 C.2       16 UNK         0.5000 
     93 O          -6.0230  -21.3691  -45.5933 O.2       16 UNK        -0.5000 
     94 N          -5.1947  -21.3293  -47.7018 N.am      17 UNK        -0.5000 
     95 CA         -5.4830  -19.9422  -48.0863 C.3       17 UNK         0.1400 
     96 CB         -4.7473  -18.9324  -47.1814 C.3       17 UNK        -0.1800 
     97 C          -6.9865  -19.6217  -48.2429 C.2       17 UNK         0.5000 
     98 O          -7.3406  -18.4576  -48.4355 O.2       17 UNK        -0.5000 
     99 N          -7.8446  -20.6522  -48.2210 N.am      18 UNK        -0.5000 
    100 CA        -9.2501  -20.5739  -48.6225 C.3       18 UNK         0.1400 
    101 CB       -10.0174  -21.7512  -48.0023 C.3       18 UNK        -0.1800 
    102 C         -9.3772  -20.5845  -50.1578 C.2       18 UNK         0.5000 
    103 O        -10.3228  -20.0149  -50.7034 O.2       18 UNK        -0.5000 
    104 N         -8.3923  -21.2029  -50.8159 N.am      19 UNK        -0.5000 
    105 CA        -8.1327  -21.1627  -52.2449 C.3       19 UNK         0.1400 
    106 CB        -8.6471  -22.4632  -52.8843 C.3       19 UNK        -0.1800 
    107 C         -6.6158  -21.0072  -52.4409 C.2       19 UNK         0.5000 
    108 O         -5.8500  -21.1971  -51.4915 O.2       19 UNK        -0.5000 
    109 N         -6.2142  -20.6721  -53.6737 N.am      20 UNK        -0.5000 
    110 CA        -4.8356  -20.6080  -54.1836 C.3       20 UNK         0.1400 
    111 CB        -4.1576  -21.9918  -54.0843 C.3       20 UNK        -0.1800 
    112 C         -3.9384  -19.5017  -53.5850 C.2       20 UNK         0.5000 
    113 O         -2.7650  -19.4330  -53.9538 O.2       20 UNK        -0.5000 
    114 N         -4.4793  -18.6507  -52.7001 N.am      21 UNK        -0.5000 
    115 CA        -3.7811  -17.6000  -51.9496 C.3       21 UNK         0.1400 
    116 CB        -3.3274  -16.4587  -52.8877 C.3       21 UNK        -0.1800 
    117 C         -2.6501  -18.1973  -51.0861 C.2       21 UNK         0.5000 
    118 O         -2.9518  -18.8546  -50.0925 O.2       21 UNK        -0.5000 
    119 N         -1.3891  -17.9843  -51.4781 N.am      22 UNK        -0.5000 
    120 CA        -0.2105  -18.6389  -50.8893 C.3       22 UNK         0.1400 
    121 C          0.2158  -19.9539  -51.6073 C.2       22 UNK         0.5000 
    122 N         -0.4646  -20.4126  -52.6497 N.am      22 UNK        -0.7600 
    123 O          1.1882  -20.5833  -51.2085 O.2       22 UNK        -0.5000 
    124 C124        0.9692  -17.6495  -50.7037 C.3       23 UNK        -0.0398 
    125 S125        1.5043  -16.7950  -52.2309 S.3       23 UNK        -0.2404 
    126 C126        2.9326  -17.7946  -52.7762 C.3       23 UNK        -0.0205 
    127 H127        2.4154  -11.0287  -48.9364 H         1 UNK         0.0600 
    128 H128        4.1457  -10.7831  -48.6423 H         1 UNK         0.0600 
    129 H129        3.3349   -9.9237  -49.9487 H         1 UNK         0.0600 
    130 H130        3.9109  -14.0103  -50.6051 H         1 UNK         0.3000 
    131 H131        3.6315  -13.0104  -47.8697 H         1 UNK         0.0600 
    132 H132        3.7025  -15.3947  -47.2376 H         1 UNK         0.0800 
    133 H133        3.6807  -15.8852  -48.8975 H         1 UNK         0.0800 
    134 H134        6.1339  -14.6266  -50.5691 H         1 UNK         0.0800 
    135 H135        7.4270  -15.5780  -49.8920 H         1 UNK         0.0800 
    136 H136        4.4674  -15.7588  -51.8365 H         1 UNK         0.1150 
    137 H137        3.8294  -19.9670  -51.3974 H         1 UNK         0.1150 
    138 H138        6.7156  -17.9727  -48.9309 H         1 UNK         0.1150 
    139 H139        5.5281  -21.2709  -50.0735 H         1 UNK         0.0800 
    140 H140        6.6740  -20.4288  -49.0669 H         1 UNK         0.0800 
    141 H141        3.1893  -21.4096  -49.7467 H         1 UNK         0.0800 
    142 H142        2.2771  -20.4160  -48.6366 H         1 UNK         0.0800 
    143 H143        3.2894  -23.2198  -47.9626 H         1 UNK         0.0600 
    144 H144        1.8280  -21.2973  -46.3993 H         1 UNK         0.3000 
    145 H145        0.7910  -23.6738  -43.9049 H         1 UNK         0.0600 
    146 H146        1.8921  -21.9571  -42.4995 H         1 UNK         0.0600 
    147 H147        3.0973  -22.9242  -43.3360 H         1 UNK         0.0600 
    148 H148        2.7304  -21.3011  -43.9033 H         1 UNK         0.0600 
    149 H149        0.2699  -20.8886  -44.1802 H         1 UNK         0.3000 
    150 H150       -2.7203  -21.1902  -46.1188 H         1 UNK         0.0600 
    151 H151       -3.3971  -21.7132  -43.7603 H         1 UNK         0.0600 
    152 H152       -3.7004  -20.0364  -44.1796 H         1 UNK         0.0600 
    153 H153       -2.3119  -20.4545  -43.1752 H         1 UNK         0.0600 
    154 H154       -1.5655  -18.8989  -44.9749 H         1 UNK         0.3000 
    155 H155        0.6454  -18.1031  -47.7315 H         1 UNK         0.0600 
    156 H156       -1.9289  -16.9825  -46.5023 H         1 UNK         0.0600 
    157 H157       -0.6785  -15.9900  -47.2364 H         1 UNK         0.0600 
    158 H158       -1.5624  -17.1626  -48.2095 H         1 UNK         0.0600 
    159 H159        0.4044  -16.8046  -45.2564 H         1 UNK         0.3000 
    160 H160        2.8110  -18.6613  -43.3816 H         1 UNK         0.0600 
    161 H161        2.7542  -15.8390  -44.5839 H         1 UNK         0.0600 
    162 H162        4.0729  -16.9923  -44.7163 H         1 UNK         0.0600 
    163 H163        3.6537  -16.3221  -43.1463 H         1 UNK         0.0600 
    164 H164        0.9931  -16.4333  -42.9241 H         1 UNK         0.3000 
    165 H165       -1.5567  -18.3915  -41.3679 H         1 UNK         0.0600 
    166 H166        0.4851  -16.4227  -40.2036 H         1 UNK         0.0600 
    167 H167       -1.0804  -16.8353  -39.5035 H         1 UNK         0.0600 
    168 H168        0.1834  -18.0505  -39.6077 H         1 UNK         0.0600 
    169 H169       -1.2397  -15.5703  -41.7701 H         1 UNK         0.3000 
    170 H170       -2.8447  -15.4268  -44.9550 H         1 UNK         0.0600 
    171 H171       -4.7163  -15.6674  -43.3090 H         1 UNK         0.0600 
    172 H172       -3.8756  -14.5932  -42.1969 H         1 UNK         0.0600 
    173 H173       -4.4426  -13.9917  -43.7554 H         1 UNK         0.0600 
    174 H174       -2.1500  -13.2185  -43.5733 H         1 UNK         0.3000 
    175 H175       -0.1657  -12.1076  -43.4751 H         1 UNK         0.0600 
    176 H176        1.9940  -13.3219  -43.1182 H         1 UNK         0.0600 
    177 H177        2.2212  -11.8586  -44.0652 H         1 UNK         0.0600 
    178 H178        2.2344  -13.4302  -44.8574 H         1 UNK         0.0600 
    179 H179        0.4609  -12.6082  -46.3519 H         1 UNK         0.3000 
    180 H180       -2.2323  -10.7024  -47.5075 H         1 UNK         0.0600 
    181 H181        0.6087   -9.5501  -47.4019 H         1 UNK         0.0600 
    182 H182       -0.8520   -8.7210  -46.8782 H         1 UNK         0.0600 
    183 H183       -0.6380   -9.1213  -48.5744 H         1 UNK         0.0600 
    184 H184        0.2305  -11.5712  -48.7381 H         1 UNK         0.3000 
    185 H185       -0.6946  -14.9203  -49.2971 H         1 UNK         0.0600 
    186 H186       -0.6563  -12.6748  -51.3728 H         1 UNK         0.0600 
    187 H187       -0.5170  -14.4053  -51.6869 H         1 UNK         0.0600 
    188 H188       -2.0226  -13.7404  -51.0732 H         1 UNK         0.0600 
    189 H189        1.4636  -13.5773  -50.4112 H         1 UNK         0.3000 
    190 H190       -0.0617  -21.9415  -48.1690 H         1 UNK         0.3000 
    191 H191       -0.7889  -23.3143  -50.5476 H         1 UNK         0.0600 
    192 H192       -1.9949  -21.3374  -49.6555 H         1 UNK         0.0600 
    193 H193       -3.1031  -22.6771  -49.8528 H         1 UNK         0.0600 
    194 H194       -2.5137  -22.2616  -48.2477 H         1 UNK         0.0600 
    195 H195       -0.6526  -24.3839  -47.2186 H         1 UNK         0.3000 
    196 H196       -0.8745  -26.3035  -46.1675 H         1 UNK         0.0600 
    197 H197       -0.2798  -28.4027  -47.4086 H         1 UNK         0.0600 
    198 H198        0.8217  -27.0849  -47.7648 H         1 UNK         0.0600 
    199 H199       -0.4021  -27.5381  -48.9412 H         1 UNK         0.0600 
    200 H200       -2.2937  -28.2178  -48.6592 H         1 UNK         0.3000 
    201 H201       -4.6716  -28.7521  -47.2030 H         1 UNK         0.0600 
    202 H202       -3.6244  -30.3799  -48.7526 H         1 UNK         0.0600 
    203 H203       -3.9495  -29.3235  -50.1279 H         1 UNK         0.0600 
    204 H204       -5.2799  -30.0629  -49.2450 H         1 UNK         0.0600 
    205 H205       -3.9714  -26.2971  -49.6552 H         1 UNK         0.3000 
    206 H206       -6.7971  -25.6569  -50.1379 H         1 UNK         0.0600 
    207 H207       -5.1586  -25.3900  -51.9542 H         1 UNK         0.0600 
    208 H208       -5.8472  -23.8358  -51.5284 H         1 UNK         0.0600 
    209 H209       -4.2217  -24.2497  -50.9993 H         1 UNK         0.0600 
    210 H210       -4.4204  -24.8662  -47.7937 H         1 UNK         0.3000 
    211 H211       -4.2861  -23.5798  -46.0010 H         1 UNK         0.0600 
    212 H212       -7.3104  -24.0688  -46.0005 H         1 UNK         0.0600 
    213 H213       -6.3043  -23.7819  -44.5844 H         1 UNK         0.0600 
    214 H214       -6.0887  -25.2474  -45.5237 H         1 UNK         0.0600 
    215 H215       -4.8223  -21.9043  -48.4437 H         1 UNK         0.3000 
    216 H216       -5.0755  -19.8372  -49.0910 H         1 UNK         0.0600 
    217 H217       -3.6755  -19.1199  -47.1877 H         1 UNK         0.0600 
    218 H218       -5.0942  -18.9707  -46.1491 H         1 UNK         0.0600 
    219 H219       -4.8888  -17.9110  -47.5359 H         1 UNK         0.0600 
    220 H220       -7.4678  -21.5868  -48.1053 H         1 UNK         0.3000 
    221 H221       -9.6821  -19.6432  -48.2487 H         1 UNK         0.0600 
    222 H222       -9.6367  -22.7112  -48.3534 H         1 UNK         0.0600 
    223 H223       -9.9443  -21.7397  -46.9147 H         1 UNK         0.0600 
    224 H224      -11.0764  -21.7041  -48.2588 H         1 UNK         0.0600 
    225 H225       -7.6400  -21.6155  -50.2763 H         1 UNK         0.3000 
    226 H226       -8.6308  -20.3023  -52.6966 H         1 UNK         0.0600 
    227 H227       -9.7202  -22.5776  -52.7303 H         1 UNK         0.0600 
    228 H228       -8.4715  -22.4717  -53.9605 H         1 UNK         0.0600 
    229 H229       -8.1549  -23.3405  -52.4626 H         1 UNK         0.0600 
    230 H230       -6.9271  -20.5027  -54.3702 H         1 UNK         0.3000 
    231 H231       -4.9266  -20.3673  -55.2437 H         1 UNK         0.0600 
    232 H232       -3.2048  -22.0015  -54.6149 H         1 UNK         0.0600 
    233 H233       -4.7798  -22.7705  -54.5253 H         1 UNK         0.0600 
    234 H234       -3.9535  -22.2707  -53.0499 H         1 UNK         0.0600 
    235 H235       -5.4349  -18.8231  -52.4253 H         1 UNK         0.3000 
    236 H236       -4.5080  -17.1814  -51.2518 H         1 UNK         0.0600 
    237 H237       -2.8421  -15.6615  -52.3250 H         1 UNK         0.0600 
    238 H238       -2.6283  -16.7954  -53.6535 H         1 UNK         0.0600 
    239 H239       -4.1821  -16.0151  -53.3981 H         1 UNK         0.0600 
    240 H240       -1.2214  -17.4625  -52.3261 H         1 UNK         0.3000 
    241 H241       -0.4759  -18.9694  -49.8855 H         1 UNK         0.0600 
    242 H242       -1.2742  -19.9229  -53.0242 H         1 UNK         0.3800 
    243 H243       -0.1570  -21.2631  -53.0906 H         1 UNK         0.3800 
    244 H244        0.6671  -16.8739  -49.9999 H         1 UNK         0.0800 
    245 H245        1.8141  -18.1449  -50.2249 H         1 UNK         0.0800 
    246 H246        3.3362  -17.3612  -53.6921 H         1 UNK         0.0800 
    247 H247        2.5898  -18.7963  -53.0391 H         1 UNK         0.0800 
@<TRIPOS>BOND
     1    1    2 1    
     2    1  127 1    
     3    1  128 1    
     4    1  129 1    
     5    2    3 2    
     6    2    4 am   BACKBONE|DICT|INTERRES
     7    4    5 1    
     8    4  130 1    
     9    5    6 1    
    10    5   65 1    
    11    5  131 1    
    12    6    7 1    
    13    6  132 1    
    14    6  133 1    
    15    7    8 1    
    16    8    9 1    
    17    8  134 1    
    18    8  135 1    
    19    9   10 ar   
    20    9   14 ar   
    21   10   11 ar   
    22   10  136 1    
    23   11   12 ar   
    24   11  126 1    
    25   12   13 ar   
    26   12  137 1    
    27   13   14 ar   
    28   13   15 1    
    29   14  138 1    
    30   15   16 1    
    31   15  139 1    
    32   15  140 1    
    33   16   17 1    
    34   17   18 1    
    35   17  141 1    
    36   17  142 1    
    37   18   19 1    
    38   18   67 1    
    39   18  143 1    
    40   19   20 am   BACKBONE|DICT|INTERRES
    41   19  144 1    
    42   20   21 2    
    43   20   22 1    
    44   22   23 1    
    45   22   24 1    
    46   22  145 1    
    47   23  146 1    
    48   23  147 1    
    49   23  148 1    
    50   24   25 am   BACKBONE|DICT|INTERRES
    51   24  149 1    
    52   25   26 2    
    53   25   27 1    
    54   27   28 1    
    55   27   29 1    
    56   27  150 1    
    57   28  151 1    
    58   28  152 1    
    59   28  153 1    
    60   29   30 am   BACKBONE|DICT|INTERRES
    61   29  154 1    
    62   30   31 2    
    63   30   32 1    
    64   32   33 1    
    65   32   34 1    
    66   32  155 1    
    67   33  156 1    
    68   33  157 1    
    69   33  158 1    
    70   34   35 am   BACKBONE|DICT|INTERRES
    71   34  159 1    
    72   35   36 2    
    73   35   37 1    
    74   37   38 1    
    75   37   39 1    
    76   37  160 1    
    77   38  161 1    
    78   38  162 1    
    79   38  163 1    
    80   39   40 am   BACKBONE|DICT|INTERRES
    81   39  164 1    
    82   40   41 2    
    83   40   42 1    
    84   42   43 1    
    85   42   44 1    
    86   42  165 1    
    87   43  166 1    
    88   43  167 1    
    89   43  168 1    
    90   44   45 am   BACKBONE|DICT|INTERRES
    91   44  169 1    
    92   45   46 2    
    93   45   47 1    
    94   47   48 1    
    95   47   49 1    
    96   47  170 1    
    97   48  171 1    
    98   48  172 1    
    99   48  173 1    
   100   49   50 am   BACKBONE|DICT|INTERRES
   101   49  174 1    
   102   50   51 2    
   103   50   52 1    
   104   52   53 1    
   105   52   54 1    
   106   52  175 1    
   107   53  176 1    
   108   53  177 1    
   109   53  178 1    
   110   54   55 am   BACKBONE|DICT|INTERRES
   111   54  179 1    
   112   55   56 2    
   113   55   57 1    
   114   57   58 1    
   115   57   59 1    
   116   57  180 1    
   117   58  181 1    
   118   58  182 1    
   119   58  183 1    
   120   59   60 am   BACKBONE|DICT|INTERRES
   121   59  184 1    
   122   60   61 2    
   123   60   62 1    
   124   62   63 1    
   125   62   64 1    
   126   62  185 1    
   127   63  186 1    
   128   63  187 1    
   129   63  188 1    
   130   64   65 am   BACKBONE|DICT|INTERRES
   131   64  189 1    
   132   65   66 2    
   133   67   68 2    
   134   67   69 am   BACKBONE|DICT|INTERRES
   135   69   70 1    
   136   69  190 1    
   137   70   71 1    
   138   70   72 1    
   139   70  191 1    
   140   71  192 1    
   141   71  193 1    
   142   71  194 1    
   143   72   73 2    
   144   72   74 am   BACKBONE|DICT|INTERRES
   145   74   75 1    
   146   74  195 1    
   147   75   76 1    
   148   75   77 1    
   149   75  196 1    
   150   76  197 1    
   151   76  198 1    
   152   76  199 1    
   153   77   78 2    
   154   77   79 am   BACKBONE|DICT|INTERRES
   155   79   80 1    
   156   79  200 1    
   157   80   81 1    
   158   80   82 1    
   159   80  201 1    
   160   81  202 1    
   161   81  203 1    
   162   81  204 1    
   163   82   83 2    
   164   82   84 am   BACKBONE|DICT|INTERRES
   165   84   85 1    
   166   84  205 1    
   167   85   86 1    
   168   85   87 1    
   169   85  206 1    
   170   86  207 1    
   171   86  208 1    
   172   86  209 1    
   173   87   88 2    
   174   87   89 am   BACKBONE|DICT|INTERRES
   175   89   90 1    
   176   89  210 1    
   177   90   91 1    
   178   90   92 1    
   179   90  211 1    
   180   91  212 1    
   181   91  213 1    
   182   91  214 1    
   183   92   93 2    
   184   92   94 am   BACKBONE|DICT|INTERRES
   185   94   95 1    
   186   94  215 1    
   187   95   96 1    
   188   95   97 1    
   189   95  216 1    
   190   96  217 1    
   191   96  218 1    
   192   96  219 1    
   193   97   98 2    
   194   97   99 am   BACKBONE|DICT|INTERRES
   195   99  100 1    
   196   99  220 1    
   197  100  101 1    
   198  100  102 1    
   199  100  221 1    
   200  101  222 1    
   201  101  223 1    
   202  101  224 1    
   203  102  103 2    
   204  102  104 am   BACKBONE|DICT|INTERRES
   205  104  105 1    
   206  104  225 1    
   207  105  106 1    
   208  105  107 1    
   209  105  226 1    
   210  106  227 1    
   211  106  228 1    
   212  106  229 1    
   213  107  108 2    
   214  107  109 am   BACKBONE|DICT|INTERRES
   215  109  110 1    
   216  109  230 1    
   217  110  111 1    
   218  110  112 1    
   219  110  231 1    
   220  111  232 1    
   221  111  233 1    
   222  111  234 1    
   223  112  113 2    
   224  112  114 am   BACKBONE|DICT|INTERRES
   225  114  115 1    
   226  114  235 1    
   227  115  116 1    
   228  115  117 1    
   229  115  236 1    
   230  116  237 1    
   231  116  238 1    
   232  116  239 1    
   233  117  118 2    
   234  117  119 am   BACKBONE|DICT|INTERRES
   235  119  120 1    
   236  119  240 1    
   237  120  121 1    
   238  120  124 1    
   239  120  241 1    
   240  121  122 am   BACKBONE|DICT|INTERRES
   241  121  123 2    
   242  122  242 1    
   243  122  243 1    
   244  124  125 1    
   245  124  244 1    
   246  124  245 1    
   247  125  126 1    
   248  126  246 1    
   249  126  247 1    
@<TRIPOS>SUBSTRUCTURE
     1 UNK         1 GROUP             0       ****    0 ROOT    
