@<TRIPOS>MOLECULE
3R540
247   249    1
SMALL
USER_CHARGES


@<TRIPOS>ATOM
      1 CA          5.4002  -14.7225  -50.5700 C.3       0 UNK        -0.1800 
      2 C           5.1227  -14.6919  -49.0736 C.2       0 UNK         0.5000 
      3 O           6.0583  -14.7276  -48.2741 O.2       0 UNK        -0.5000 
      4 N           3.8409  -14.6348  -48.6948 N.am      1 UNK        -0.5000 
      5 CA          3.3768  -14.5280  -47.3119 C.3       1 UNK         0.1400 
      6 C6          1.8924  -14.9655  -47.1595 C.3       23 UNK        -0.0398 
      7 S7          0.6111  -13.8406  -47.8383 S.3       23 UNK        -0.2404 
      8 C8          0.6550  -14.1125  -49.6424 C.3       23 UNK        -0.0205 
      9 C9          0.0925  -15.4640  -50.0560 C.ar      23 UNK        -0.0193 
     10 C10        -1.2543  -15.5839  -50.4137 C.ar      23 UNK        -0.1150 
     11 C11        -1.7764  -16.8163  -50.8188 C.ar      23 UNK        -0.0193 
     12 C12        -0.9406  -17.9348  -50.8520 C.ar      23 UNK        -0.1150 
     13 C13         0.4045  -17.8317  -50.4853 C.ar      23 UNK        -0.0193 
     14 C14         0.9195  -16.5897  -50.1080 C.ar      23 UNK        -0.1150 
     15 C15         1.2977  -19.0643  -50.4723 C.3       23 UNK        -0.0205 
     16 S16         1.5727  -19.6731  -48.7751 S.3       23 UNK        -0.2404 
     17 C17        -0.1298  -20.0637  -48.2525 C.3       23 UNK        -0.0398 
     18 CA         -0.2539  -21.4562  -47.5973 C.3       11 UNK         0.1400 
     19 N           0.2656  -21.4965  -46.2290 N.am      11 UNK        -0.5000 
     20 C           0.3924  -22.6162  -45.5012 C.2       10 UNK         0.5000 
     21 O           0.1846  -23.7466  -45.9433 O.2       10 UNK        -0.5000 
     22 CA          0.7500  -22.4412  -44.0137 C.3       10 UNK         0.1400 
     23 CB          2.2598  -22.2290  -43.8296 C.3       10 UNK        -0.1800 
     24 N           0.0161  -21.3391  -43.3896 N.am      10 UNK        -0.5000 
     25 C          -1.3173  -21.2863  -43.2582 C.2       9 UNK         0.5000 
     26 O          -2.0737  -22.1975  -43.5932 O.2       9 UNK        -0.5000 
     27 CA         -1.9094  -19.9738  -42.7138 C.3       9 UNK         0.1400 
     28 CB         -1.8623  -19.9363  -41.1788 C.3       9 UNK        -0.1800 
     29 N          -1.2356  -18.7964  -43.2640 N.am      9 UNK        -0.5000 
     30 C          -1.3133  -18.4135  -44.5468 C.2       8 UNK         0.5000 
     31 O          -1.9995  -18.9895  -45.3898 O.2       8 UNK        -0.5000 
     32 CA         -0.4410  -17.2190  -44.9701 C.3       8 UNK         0.1400 
     33 CB         -1.1581  -15.8930  -44.6834 C.3       8 UNK        -0.1800 
     34 N           0.8655  -17.2309  -44.3103 N.am      8 UNK        -0.5000 
     35 C           1.8224  -18.1336  -44.5772 C.2       7 UNK         0.5000 
     36 O           1.7031  -19.0157  -45.4254 O.2       7 UNK        -0.5000 
     37 CA          3.1038  -18.0791  -43.7210 C.3       7 UNK         0.1400 
     38 CB          4.1025  -17.0761  -44.3168 C.3       7 UNK        -0.1800 
     39 N           2.8446  -17.7261  -42.3249 N.am      7 UNK        -0.5000 
     40 C           2.0443  -18.4099  -41.4954 C.2       6 UNK         0.5000 
     41 O           1.5367  -19.4916  -41.7878 O.2       6 UNK        -0.5000 
     42 CA          1.7038  -17.7637  -40.1366 C.3       6 UNK         0.1400 
     43 CB          2.4721  -18.4640  -39.0061 C.3       6 UNK        -0.1800 
     44 N           1.9451  -16.3174  -40.0519 N.am      6 UNK        -0.5000 
     45 C           1.4068  -15.3735  -40.8378 C.2       5 UNK         0.5000 
     46 O           0.6781  -15.6193  -41.8026 O.2       5 UNK        -0.5000 
     47 CA          1.8352  -13.9259  -40.5240 C.3       5 UNK         0.1400 
     48 CB          3.2654  -13.6937  -41.0307 C.3       5 UNK        -0.1800 
     49 N           0.9588  -12.9084  -41.1098 N.am      5 UNK        -0.5000 
     50 C          -0.3378  -12.7425  -40.8099 C.2       4 UNK         0.5000 
     51 O          -0.9278  -13.4194  -39.9656 O.2       4 UNK        -0.5000 
     52 CA         -1.1123  -11.6187  -41.5320 C.3       4 UNK         0.1400 
     53 CB         -1.6147  -10.5713  -40.5239 C.3       4 UNK        -0.1800 
     54 N          -0.3459  -10.9244  -42.5686 N.am      4 UNK        -0.5000 
     55 C          -0.1288  -11.3772  -43.8097 C.2       3 UNK         0.5000 
     56 O          -0.5237  -12.4694  -44.2148 O.2       3 UNK        -0.5000 
     57 CA          0.6573  -10.4574  -44.7687 C.3       3 UNK         0.1400 
     58 CB          0.7293   -8.9831  -44.3099 C.3       3 UNK        -0.1800 
     59 N           2.0012  -10.9678  -45.0483 N.am      3 UNK        -0.5000 
     60 C           2.9682  -11.2482  -44.1638 C.2       2 UNK         0.5000 
     61 O           2.8383  -11.1264  -42.9447 O.2       2 UNK        -0.5000 
     62 CA          4.2872  -11.7808  -44.7604 C.3       2 UNK         0.1400 
     63 CB          5.3941  -11.9910  -43.7115 C.3       2 UNK        -0.1800 
     64 N           4.0611  -13.0355  -45.4804 N.am      2 UNK        -0.5000 
     65 C           3.6511  -13.1152  -46.7521 C.2       1 UNK         0.5000 
     66 O           3.4630  -12.1239  -47.4631 O.2       1 UNK        -0.5000 
     67 C          -1.7141  -21.9409  -47.6616 C.2       11 UNK         0.5000 
     68 O          -2.0179  -22.7872  -48.4996 O.2       11 UNK        -0.5000 
     69 N          -2.5876  -21.4248  -46.7849 N.am      12 UNK        -0.5000 
     70 CA         -4.0070  -21.7870  -46.7198 C.3       12 UNK         0.1400 
     71 CB         -4.7250  -20.9117  -45.6832 C.3       12 UNK        -0.1800 
     72 C          -4.2422  -23.2815  -46.4330 C.2       12 UNK         0.5000 
     73 O          -5.1135  -23.8847  -47.0589 O.2       12 UNK        -0.5000 
     74 N          -3.4197  -23.8687  -45.5525 N.am      13 UNK        -0.5000 
     75 CA         -3.4033  -25.3020  -45.2450 C.3       13 UNK         0.1400 
     76 CB         -2.4553  -25.5526  -44.0627 C.3       13 UNK        -0.1800 
     77 C          -3.0169  -26.1885  -46.4482 C.2       13 UNK         0.5000 
     78 O          -3.4834  -27.3244  -46.5377 O.2       13 UNK        -0.5000 
     79 N          -2.2022  -25.6459  -47.3622 N.am      14 UNK        -0.5000 
     80 CA         -1.8106  -26.2667  -48.6294 C.3       14 UNK         0.1400 
     81 CB         -0.3536  -25.8732  -48.9288 C.3       14 UNK        -0.1800 
     82 C          -2.7328  -25.8586  -49.7985 C.2       14 UNK         0.5000 
     83 O          -2.4501  -26.2205  -50.9424 O.2       14 UNK        -0.5000 
     84 N          -3.7816  -25.0699  -49.5164 N.am      15 UNK        -0.5000 
     85 CA         -4.7153  -24.4550  -50.4640 C.3       15 UNK         0.1400 
     86 CB         -5.6233  -25.5231  -51.1065 C.3       15 UNK        -0.1800 
     87 C          -4.0102  -23.5642  -51.5078 C.2       15 UNK         0.5000 
     88 O          -4.3987  -23.5677  -52.6756 O.2       15 UNK        -0.5000 
     89 N          -2.9842  -22.8203  -51.0705 N.am      16 UNK        -0.5000 
     90 CA         -2.0720  -21.9957  -51.8734 C.3       16 UNK         0.1400 
     91 CB         -2.8130  -20.8168  -52.5396 C.3       16 UNK        -0.1800 
     92 C          -1.2337  -22.8331  -52.8622 C.2       16 UNK         0.5000 
     93 O          -0.9540  -22.3817  -53.9721 O.2       16 UNK        -0.5000 
     94 N          -0.8595  -24.0463  -52.4268 N.am      17 UNK        -0.5000 
     95 CA         -0.2094  -25.1084  -53.2006 C.3       17 UNK         0.1400 
     96 CB          1.1945  -24.6835  -53.6808 C.3       17 UNK        -0.1800 
     97 C          -1.1303  -25.6101  -54.3309 C.2       17 UNK         0.5000 
     98 O          -0.7245  -25.6579  -55.4936 O.2       17 UNK        -0.5000 
     99 N          -2.3670  -25.9583  -53.9431 N.am      18 UNK        -0.5000 
    100 CA        -3.4747  -26.4063  -54.7933 C.3       18 UNK         0.1400 
    101 CB        -3.1731  -27.7951  -55.3943 C.3       18 UNK        -0.1800 
    102 C         -3.8791  -25.3570  -55.8525 C.2       18 UNK         0.5000 
    103 O         -3.9799  -25.6729  -57.0398 O.2       18 UNK        -0.5000 
    104 N         -4.1125  -24.1238  -55.3905 N.am      19 UNK        -0.5000 
    105 CA        -4.5520  -22.9768  -56.1848 C.3       19 UNK         0.1400 
    106 CB        -3.3671  -22.0240  -56.4202 C.3       19 UNK        -0.1800 
    107 C         -5.7521  -22.2905  -55.5049 C.2       19 UNK         0.5000 
    108 O         -5.8473  -21.0613  -55.5011 O.2       19 UNK        -0.5000 
    109 N         -6.6424  -23.1106  -54.9234 N.am      20 UNK        -0.5000 
    110 CA        -7.9267  -22.7537  -54.3057 C.3       20 UNK         0.1400 
    111 CB        -8.9334  -22.3351  -55.3973 C.3       20 UNK        -0.1800 
    112 C         -7.8236  -21.7102  -53.1719 C.2       20 UNK         0.5000 
    113 O         -8.7427  -20.9091  -52.9914 O.2       20 UNK        -0.5000 
    114 N         -6.6929  -21.7113  -52.4491 N.am      21 UNK        -0.5000 
    115 CA        -6.3380  -20.7735  -51.3736 C.3       21 UNK         0.1400 
    116 CB        -7.2186  -21.0151  -50.1302 C.3       21 UNK        -0.1800 
    117 C         -6.3261  -19.2962  -51.8303 C.2       21 UNK         0.5000 
    118 O         -6.6404  -18.4070  -51.0383 O.2       21 UNK        -0.5000 
    119 N         -5.9831  -19.0744  -53.1076 N.am      22 UNK        -0.5000 
    120 CA        -6.0608  -17.7938  -53.8321 C.3       22 UNK         0.1400 
    121 C         -7.5143  -17.3336  -54.1698 C.2       22 UNK         0.5000 
    122 N         -8.5475  -18.1455  -53.9751 N.am      22 UNK        -0.7600 
    123 O         -7.7142  -16.2217  -54.6520 O.2       22 UNK        -0.5000 
    124 C124       -5.2207  -16.6446  -53.2003 C.3       23 UNK        -0.0398 
    125 S125       -3.4449  -17.0312  -53.0152 S.3       23 UNK        -0.2404 
    126 C126       -3.2423  -16.9414  -51.2080 C.3       23 UNK        -0.0205 
    127 H127        4.4796  -14.7094  -51.1541 H         1 UNK         0.0600 
    128 H128        5.9545  -15.6241  -50.8305 H         1 UNK         0.0600 
    129 H129        5.9981  -13.8579  -50.8582 H         1 UNK         0.0600 
    130 H130        3.1243  -14.5559  -49.3986 H         1 UNK         0.3000 
    131 H131        3.9731  -15.2320  -46.7281 H         1 UNK         0.0600 
    132 H132        1.7493  -15.9675  -47.5625 H         1 UNK         0.0800 
    133 H133        1.6733  -15.0667  -46.0959 H         1 UNK         0.0800 
    134 H134        0.0666  -13.3219  -50.1108 H         1 UNK         0.0800 
    135 H135        1.6625  -13.9812  -50.0317 H         1 UNK         0.0800 
    136 H136       -1.8956  -14.7142  -50.3816 H         1 UNK         0.1150 
    137 H137       -1.3426  -18.8884  -51.1567 H         1 UNK         0.1150 
    138 H138        1.9623  -16.5109  -49.8374 H         1 UNK         0.1150 
    139 H139        0.8687  -19.8618  -51.0811 H         1 UNK         0.0800 
    140 H140        2.2610  -18.8207  -50.9226 H         1 UNK         0.0800 
    141 H141       -0.7735  -20.0133  -49.1300 H         1 UNK         0.0800 
    142 H142       -0.4780  -19.2786  -47.5811 H         1 UNK         0.0800 
    143 H143        0.3334  -22.1624  -48.1888 H         1 UNK         0.0600 
    144 H144        0.5333  -20.6077  -45.8181 H         1 UNK         0.3000 
    145 H145        0.4704  -23.3602  -43.4945 H         1 UNK         0.0600 
    146 H146        2.8233  -23.0683  -44.2388 H         1 UNK         0.0600 
    147 H147        2.6054  -21.3263  -44.3329 H         1 UNK         0.0600 
    148 H148        2.5204  -22.1439  -42.7744 H         1 UNK         0.0600 
    149 H149        0.5700  -20.5700  -43.0226 H         1 UNK         0.3000 
    150 H150       -2.9576  -19.9308  -43.0159 H         1 UNK         0.0600 
    151 H151       -2.3080  -19.0196  -40.7923 H         1 UNK         0.0600 
    152 H152       -0.8434  -20.0008  -40.7984 H         1 UNK         0.0600 
    153 H153       -2.4203  -20.7722  -40.7551 H         1 UNK         0.0600 
    154 H154       -0.6207  -18.2888  -42.6456 H         1 UNK         0.3000 
    155 H155       -0.2800  -17.2866  -46.0483 H         1 UNK         0.0600 
    156 H156       -2.1198  -15.8508  -45.1962 H         1 UNK         0.0600 
    157 H157       -0.5696  -15.0449  -45.0315 H         1 UNK         0.0600 
    158 H158       -1.3468  -15.7540  -43.6184 H         1 UNK         0.0600 
    159 H159        0.9925  -16.5756  -43.5447 H         1 UNK         0.3000 
    160 H160        3.5585  -19.0715  -43.7368 H         1 UNK         0.0600 
    161 H161        4.3273  -17.3208  -45.3559 H         1 UNK         0.0600 
    162 H162        5.0461  -17.0875  -43.7707 H         1 UNK         0.0600 
    163 H163        3.7118  -16.0586  -44.2913 H         1 UNK         0.0600 
    164 H164        3.2230  -16.8500  -41.9991 H         1 UNK         0.3000 
    165 H165        0.6363  -17.9223  -39.9716 H         1 UNK         0.0600 
    166 H166        2.1611  -18.0949  -38.0285 H         1 UNK         0.0600 
    167 H167        2.2907  -19.5398  -39.0166 H         1 UNK         0.0600 
    168 H168        3.5483  -18.3117  -39.0975 H         1 UNK         0.0600 
    169 H169        2.5557  -16.0228  -39.3032 H         1 UNK         0.3000 
    170 H170        1.8195  -13.7922  -39.4405 H         1 UNK         0.0600 
    171 H171        3.6057  -12.6820  -40.8091 H         1 UNK         0.0600 
    172 H172        3.9730  -14.3794  -40.5634 H         1 UNK         0.0600 
    173 H173        3.3247  -13.8437  -42.1089 H         1 UNK         0.0600 
    174 H174        1.3739  -12.3035  -41.8083 H         1 UNK         0.3000 
    175 H175       -1.9837  -12.0828  -41.9987 H         1 UNK         0.0600 
    176 H176       -0.7874  -10.0737  -40.0162 H         1 UNK         0.0600 
    177 H177       -2.2164   -9.8067  -41.0157 H         1 UNK         0.0600 
    178 H178       -2.2416  -11.0299  -39.7581 H         1 UNK         0.0600 
    179 H179        0.0519  -10.0328  -42.3108 H         1 UNK         0.3000 
    180 H180        0.1174  -10.4787  -45.7166 H         1 UNK         0.0600 
    181 H181        1.1934   -8.3625  -45.0765 H         1 UNK         0.0600 
    182 H182        1.3095   -8.8595  -43.3949 H         1 UNK         0.0600 
    183 H183       -0.2673   -8.5770  -44.1316 H         1 UNK         0.0600 
    184 H184        2.2027  -11.1584  -46.0235 H         1 UNK         0.3000 
    185 H185        4.6493  -11.0202  -45.4556 H         1 UNK         0.0600 
    186 H186        5.1504  -12.7852  -43.0083 H         1 UNK         0.0600 
    187 H187        6.3385  -12.2520  -44.1894 H         1 UNK         0.0600 
    188 H188        5.5659  -11.0812  -43.1348 H         1 UNK         0.0600 
    189 H189        4.1885  -13.8812  -44.9455 H         1 UNK         0.3000 
    190 H190       -2.2798  -20.6909  -46.1515 H         1 UNK         0.3000 
    191 H191       -4.4412  -21.5712  -47.6984 H         1 UNK         0.0600 
    192 H192       -4.3303  -21.0702  -44.6800 H         1 UNK         0.0600 
    193 H193       -5.7919  -21.1363  -45.6550 H         1 UNK         0.0600 
    194 H194       -4.6224  -19.8529  -45.9213 H         1 UNK         0.0600 
    195 H195       -2.7657  -23.2854  -45.0367 H         1 UNK         0.3000 
    196 H196       -4.4120  -25.5868  -44.9392 H         1 UNK         0.0600 
    197 H197       -2.4409  -26.6082  -43.7886 H         1 UNK         0.0600 
    198 H198       -2.7673  -24.9917  -43.1815 H         1 UNK         0.0600 
    199 H199       -1.4320  -25.2599  -44.2996 H         1 UNK         0.0600 
    200 H200       -1.8678  -24.7021  -47.2106 H         1 UNK         0.3000 
    201 H201       -1.8586  -27.3537  -48.5410 H         1 UNK         0.0600 
    202 H202        0.3073  -26.1662  -48.1128 H         1 UNK         0.0600 
    203 H203       -0.2464  -24.7974  -49.0717 H         1 UNK         0.0600 
    204 H204        0.0115  -26.3641  -49.8317 H         1 UNK         0.0600 
    205 H205       -3.9279  -24.8114  -48.5478 H         1 UNK         0.3000 
    206 H206       -5.3509  -23.7889  -49.8798 H         1 UNK         0.0600 
    207 H207       -6.3944  -25.0629  -51.7257 H         1 UNK         0.0600 
    208 H208       -5.0594  -26.2082  -51.7396 H         1 UNK         0.0600 
    209 H209       -6.1319  -26.1142  -50.3449 H         1 UNK         0.0600 
    210 H210       -2.7319  -22.8949  -50.0843 H         1 UNK         0.3000 
    211 H211       -1.3532  -21.5696  -51.1724 H         1 UNK         0.0600 
    212 H212       -3.5914  -21.1504  -53.2244 H         1 UNK         0.0600 
    213 H213       -2.1278  -20.1905  -53.1119 H         1 UNK         0.0600 
    214 H214       -3.2748  -20.1740  -51.7924 H         1 UNK         0.0600 
    215 H215       -1.1878  -24.3301  -51.5146 H         1 UNK         0.3000 
    216 H216       -0.0770  -25.9488  -52.5176 H         1 UNK         0.0600 
    217 H217        1.7159  -25.5237  -54.1407 H         1 UNK         0.0600 
    218 H218        1.8071  -24.3373  -52.8485 H         1 UNK         0.0600 
    219 H219        1.1520  -23.8850  -54.4217 H         1 UNK         0.0600 
    220 H220       -2.5726  -25.9036  -52.9503 H         1 UNK         0.3000 
    221 H221       -4.3368  -26.5180  -54.1345 H         1 UNK         0.0600 
    222 H222       -2.3383  -27.7633  -56.0950 H         1 UNK         0.0600 
    223 H223       -2.9288  -28.5164  -54.6145 H         1 UNK         0.0600 
    224 H224       -4.0379  -28.1824  -55.9342 H         1 UNK         0.0600 
    225 H225       -4.0502  -23.9561  -54.3866 H         1 UNK         0.3000 
    226 H226       -4.9115  -23.3133  -57.1591 H         1 UNK         0.0600 
    227 H227       -2.5255  -22.5462  -56.8755 H         1 UNK         0.0600 
    228 H228       -3.6459  -21.2089  -57.0888 H         1 UNK         0.0600 
    229 H229       -3.0185  -21.5794  -55.4890 H         1 UNK         0.0600 
    230 H230       -6.4346  -24.0987  -54.9460 H         1 UNK         0.3000 
    231 H231       -8.3046  -23.6643  -53.8389 H         1 UNK         0.0600 
    232 H232       -8.6448  -21.3963  -55.8716 H         1 UNK         0.0600 
    233 H233       -9.0100  -23.0942  -56.1756 H         1 UNK         0.0600 
    234 H234       -9.9325  -22.1990  -54.9817 H         1 UNK         0.0600 
    235 H235       -5.9757  -22.3834  -52.7048 H         1 UNK         0.3000 
    236 H236       -5.3146  -21.0029  -51.0838 H         1 UNK         0.0600 
    237 H237       -8.2570  -20.7352  -50.3095 H         1 UNK         0.0600 
    238 H238       -7.2013  -22.0627  -49.8301 H         1 UNK         0.0600 
    239 H239       -6.8647  -20.4306  -49.2801 H         1 UNK         0.0600 
    240 H240       -5.7873  -19.8752  -53.6973 H         1 UNK         0.3000 
    241 H241       -5.6184  -18.0061  -54.8060 H         1 UNK         0.0600 
    242 H242       -9.4720  -17.8242  -54.2137 H         1 UNK         0.3800 
    243 H243       -8.4324  -19.0755  -53.5851 H         1 UNK         0.3800 
    244 H244       -5.2723  -15.7554  -53.8305 H         1 UNK         0.0800 
    245 H245       -5.6441  -16.3431  -52.2421 H         1 UNK         0.0800 
    246 H246       -3.6758  -17.8309  -50.7489 H         1 UNK         0.0800 
    247 H247       -3.8015  -16.0899  -50.8176 H         1 UNK         0.0800 
@<TRIPOS>BOND
     1    1    2 1    
     2    1  127 1    
     3    1  128 1    
     4    1  129 1    
     5    2    3 2    
     6    2    4 am   BACKBONE|DICT|INTERRES
     7    4    5 1    
     8    4  130 1    
     9    5    6 1    
    10    5   65 1    
    11    5  131 1    
    12    6    7 1    
    13    6  132 1    
    14    6  133 1    
    15    7    8 1    
    16    8    9 1    
    17    8  134 1    
    18    8  135 1    
    19    9   10 ar   
    20    9   14 ar   
    21   10   11 ar   
    22   10  136 1    
    23   11   12 ar   
    24   11  126 1    
    25   12   13 ar   
    26   12  137 1    
    27   13   14 ar   
    28   13   15 1    
    29   14  138 1    
    30   15   16 1    
    31   15  139 1    
    32   15  140 1    
    33   16   17 1    
    34   17   18 1    
    35   17  141 1    
    36   17  142 1    
    37   18   19 1    
    38   18   67 1    
    39   18  143 1    
    40   19   20 am   BACKBONE|DICT|INTERRES
    41   19  144 1    
    42   20   21 2    
    43   20   22 1    
    44   22   23 1    
    45   22   24 1    
    46   22  145 1    
    47   23  146 1    
    48   23  147 1    
    49   23  148 1    
    50   24   25 am   BACKBONE|DICT|INTERRES
    51   24  149 1    
    52   25   26 2    
    53   25   27 1    
    54   27   28 1    
    55   27   29 1    
    56   27  150 1    
    57   28  151 1    
    58   28  152 1    
    59   28  153 1    
    60   29   30 am   BACKBONE|DICT|INTERRES
    61   29  154 1    
    62   30   31 2    
    63   30   32 1    
    64   32   33 1    
    65   32   34 1    
    66   32  155 1    
    67   33  156 1    
    68   33  157 1    
    69   33  158 1    
    70   34   35 am   BACKBONE|DICT|INTERRES
    71   34  159 1    
    72   35   36 2    
    73   35   37 1    
    74   37   38 1    
    75   37   39 1    
    76   37  160 1    
    77   38  161 1    
    78   38  162 1    
    79   38  163 1    
    80   39   40 am   BACKBONE|DICT|INTERRES
    81   39  164 1    
    82   40   41 2    
    83   40   42 1    
    84   42   43 1    
    85   42   44 1    
    86   42  165 1    
    87   43  166 1    
    88   43  167 1    
    89   43  168 1    
    90   44   45 am   BACKBONE|DICT|INTERRES
    91   44  169 1    
    92   45   46 2    
    93   45   47 1    
    94   47   48 1    
    95   47   49 1    
    96   47  170 1    
    97   48  171 1    
    98   48  172 1    
    99   48  173 1    
   100   49   50 am   BACKBONE|DICT|INTERRES
   101   49  174 1    
   102   50   51 2    
   103   50   52 1    
   104   52   53 1    
   105   52   54 1    
   106   52  175 1    
   107   53  176 1    
   108   53  177 1    
   109   53  178 1    
   110   54   55 am   BACKBONE|DICT|INTERRES
   111   54  179 1    
   112   55   56 2    
   113   55   57 1    
   114   57   58 1    
   115   57   59 1    
   116   57  180 1    
   117   58  181 1    
   118   58  182 1    
   119   58  183 1    
   120   59   60 am   BACKBONE|DICT|INTERRES
   121   59  184 1    
   122   60   61 2    
   123   60   62 1    
   124   62   63 1    
   125   62   64 1    
   126   62  185 1    
   127   63  186 1    
   128   63  187 1    
   129   63  188 1    
   130   64   65 am   BACKBONE|DICT|INTERRES
   131   64  189 1    
   132   65   66 2    
   133   67   68 2    
   134   67   69 am   BACKBONE|DICT|INTERRES
   135   69   70 1    
   136   69  190 1    
   137   70   71 1    
   138   70   72 1    
   139   70  191 1    
   140   71  192 1    
   141   71  193 1    
   142   71  194 1    
   143   72   73 2    
   144   72   74 am   BACKBONE|DICT|INTERRES
   145   74   75 1    
   146   74  195 1    
   147   75   76 1    
   148   75   77 1    
   149   75  196 1    
   150   76  197 1    
   151   76  198 1    
   152   76  199 1    
   153   77   78 2    
   154   77   79 am   BACKBONE|DICT|INTERRES
   155   79   80 1    
   156   79  200 1    
   157   80   81 1    
   158   80   82 1    
   159   80  201 1    
   160   81  202 1    
   161   81  203 1    
   162   81  204 1    
   163   82   83 2    
   164   82   84 am   BACKBONE|DICT|INTERRES
   165   84   85 1    
   166   84  205 1    
   167   85   86 1    
   168   85   87 1    
   169   85  206 1    
   170   86  207 1    
   171   86  208 1    
   172   86  209 1    
   173   87   88 2    
   174   87   89 am   BACKBONE|DICT|INTERRES
   175   89   90 1    
   176   89  210 1    
   177   90   91 1    
   178   90   92 1    
   179   90  211 1    
   180   91  212 1    
   181   91  213 1    
   182   91  214 1    
   183   92   93 2    
   184   92   94 am   BACKBONE|DICT|INTERRES
   185   94   95 1    
   186   94  215 1    
   187   95   96 1    
   188   95   97 1    
   189   95  216 1    
   190   96  217 1    
   191   96  218 1    
   192   96  219 1    
   193   97   98 2    
   194   97   99 am   BACKBONE|DICT|INTERRES
   195   99  100 1    
   196   99  220 1    
   197  100  101 1    
   198  100  102 1    
   199  100  221 1    
   200  101  222 1    
   201  101  223 1    
   202  101  224 1    
   203  102  103 2    
   204  102  104 am   BACKBONE|DICT|INTERRES
   205  104  105 1    
   206  104  225 1    
   207  105  106 1    
   208  105  107 1    
   209  105  226 1    
   210  106  227 1    
   211  106  228 1    
   212  106  229 1    
   213  107  108 2    
   214  107  109 am   BACKBONE|DICT|INTERRES
   215  109  110 1    
   216  109  230 1    
   217  110  111 1    
   218  110  112 1    
   219  110  231 1    
   220  111  232 1    
   221  111  233 1    
   222  111  234 1    
   223  112  113 2    
   224  112  114 am   BACKBONE|DICT|INTERRES
   225  114  115 1    
   226  114  235 1    
   227  115  116 1    
   228  115  117 1    
   229  115  236 1    
   230  116  237 1    
   231  116  238 1    
   232  116  239 1    
   233  117  118 2    
   234  117  119 am   BACKBONE|DICT|INTERRES
   235  119  120 1    
   236  119  240 1    
   237  120  121 1    
   238  120  124 1    
   239  120  241 1    
   240  121  122 am   BACKBONE|DICT|INTERRES
   241  121  123 2    
   242  122  242 1    
   243  122  243 1    
   244  124  125 1    
   245  124  244 1    
   246  124  245 1    
   247  125  126 1    
   248  126  246 1    
   249  126  247 1    
@<TRIPOS>SUBSTRUCTURE
     1 UNK         1 GROUP             0       ****    0 ROOT    
