@<TRIPOS>MOLECULE
3R540
247   249    1
SMALL
USER_CHARGES


@<TRIPOS>ATOM
      1 CA         -0.0534  -16.1849  -48.4591 C.3       0 UNK        -0.1800 
      2 C          -1.2237  -15.3690  -47.9328 C.2       0 UNK         0.5000 
      3 O          -1.4737  -14.2697  -48.4262 O.2       0 UNK        -0.5000 
      4 N          -1.9377  -15.9133  -46.9388 N.am      1 UNK        -0.5000 
      5 CA         -3.1236  -15.3293  -46.2906 C.3       1 UNK         0.1400 
      6 C6         -4.3227  -15.0571  -47.2447 C.3       23 UNK        -0.0398 
      7 S7         -4.6864  -16.4757  -48.3352 S.3       23 UNK        -0.2404 
      8 C8         -6.2420  -17.1638  -47.6749 C.3       23 UNK        -0.0205 
      9 C9         -6.4353  -18.6323  -48.0562 C.ar      23 UNK        -0.0193 
     10 C10        -6.0898  -19.0994  -49.3306 C.ar      23 UNK        -0.1150 
     11 C11        -6.2116  -20.4512  -49.6562 C.ar      23 UNK        -0.0193 
     12 C12        -6.7356  -21.3362  -48.7131 C.ar      23 UNK        -0.1150 
     13 C13        -7.1065  -20.8896  -47.4420 C.ar      23 UNK        -0.0193 
     14 C14        -6.9537  -19.5359  -47.1212 C.ar      23 UNK        -0.1150 
     15 C15        -7.6910  -21.8664  -46.4285 C.3       23 UNK        -0.0205 
     16 S16        -6.4210  -22.6529  -45.3789 S.3       23 UNK        -0.2404 
     17 C17        -5.5992  -23.8036  -46.5421 C.3       23 UNK        -0.0398 
     18 CA         -4.0960  -23.5045  -46.7916 C.3       11 UNK         0.1400 
     19 N          -3.8105  -22.0691  -46.9068 N.am      11 UNK        -0.5000 
     20 C          -2.6183  -21.5163  -47.1624 C.2       10 UNK         0.5000 
     21 O          -1.6200  -22.1697  -47.4603 O.2       10 UNK        -0.5000 
     22 CA         -2.4961  -19.9908  -47.0278 C.3       10 UNK         0.1400 
     23 CB         -2.4934  -19.3435  -48.4167 C.3       10 UNK        -0.1800 
     24 N          -3.5162  -19.3660  -46.1768 N.am      10 UNK        -0.5000 
     25 C          -3.6580  -19.6266  -44.8689 C.2       9 UNK         0.5000 
     26 O          -3.0306  -20.5065  -44.2745 O.2       9 UNK        -0.5000 
     27 CA         -4.6128  -18.7361  -44.0679 C.3       9 UNK         0.1400 
     28 CB         -5.7372  -19.5432  -43.4011 C.3       9 UNK        -0.1800 
     29 N          -3.7824  -18.1309  -43.0414 N.am      9 UNK        -0.5000 
     30 C          -3.7365  -16.8329  -42.7352 C.2       8 UNK         0.5000 
     31 O          -4.5563  -16.0039  -43.1290 O.2       8 UNK        -0.5000 
     32 CA         -2.5351  -16.3744  -41.8851 C.3       8 UNK         0.1400 
     33 CB         -2.9234  -16.2776  -40.4027 C.3       8 UNK        -0.1800 
     34 N          -1.3450  -17.2268  -42.0144 N.am      8 UNK        -0.5000 
     35 C          -0.6573  -17.4366  -43.1471 C.2       7 UNK         0.5000 
     36 O          -0.9864  -16.9650  -44.2367 O.2       7 UNK        -0.5000 
     37 CA          0.5970  -18.3206  -43.0103 C.3       7 UNK         0.1400 
     38 CB          0.2310  -19.8167  -43.0660 C.3       7 UNK        -0.1800 
     39 N           1.6606  -17.9842  -43.9646 N.am      7 UNK        -0.5000 
     40 C           1.6832  -18.1839  -45.2898 C.2       6 UNK         0.5000 
     41 O           0.7764  -18.7066  -45.9382 O.2       6 UNK        -0.5000 
     42 CA          2.9461  -17.6830  -46.0035 C.3       6 UNK         0.1400 
     43 CB          3.0487  -18.2013  -47.4566 C.3       6 UNK        -0.1800 
     44 N           2.9675  -16.2211  -45.9485 N.am      6 UNK        -0.5000 
     45 C           3.9983  -15.4479  -46.3126 C.2       5 UNK         0.5000 
     46 O           5.0888  -15.8842  -46.6833 O.2       5 UNK        -0.5000 
     47 CA          3.7818  -13.9289  -46.2416 C.3       5 UNK         0.1400 
     48 CB          2.5230  -13.4828  -47.0080 C.3       5 UNK        -0.1800 
     49 N           3.6983  -13.4904  -44.8514 N.am      5 UNK        -0.5000 
     50 C           4.7478  -13.0908  -44.1184 C.2       4 UNK         0.5000 
     51 O           5.9019  -13.0524  -44.5473 O.2       4 UNK        -0.5000 
     52 CA          4.4791  -12.6271  -42.6717 C.3       4 UNK         0.1400 
     53 CB          4.5368  -11.0937  -42.5831 C.3       4 UNK        -0.1800 
     54 N           3.1904  -13.0751  -42.1458 N.am      4 UNK        -0.5000 
     55 C           2.9365  -14.3114  -41.6993 C.2       3 UNK         0.5000 
     56 O           3.7776  -15.2084  -41.6404 O.2       3 UNK        -0.5000 
     57 CA          1.4826  -14.6038  -41.2813 C.3       3 UNK         0.1400 
     58 CB          1.2846  -14.3436  -39.7810 C.3       3 UNK        -0.1800 
     59 N           0.4729  -13.8537  -42.0382 N.am      3 UNK        -0.5000 
     60 C           0.3012  -13.9369  -43.3630 C.2       2 UNK         0.5000 
     61 O           1.0482  -14.5743  -44.1118 O.2       2 UNK        -0.5000 
     62 CA         -0.9096  -13.2108  -43.9563 C.3       2 UNK         0.1400 
     63 CB         -0.4806  -11.9409  -44.7112 C.3       2 UNK        -0.1800 
     64 N          -1.5364  -14.1664  -44.8529 N.am      2 UNK        -0.5000 
     65 C          -2.7449  -14.1085  -45.4190 C.2       1 UNK         0.5000 
     66 O          -3.5275  -13.1681  -45.2731 O.2       1 UNK        -0.5000 
     67 C          -3.1999  -24.2272  -45.7596 C.2       11 UNK         0.5000 
     68 O          -2.8450  -25.3845  -45.9864 O.2       11 UNK        -0.5000 
     69 N          -2.7874  -23.5274  -44.6913 N.am      12 UNK        -0.5000 
     70 CA         -1.8355  -24.0278  -43.6947 C.3       12 UNK         0.1400 
     71 CB         -1.8896  -23.1252  -42.4540 C.3       12 UNK        -0.1800 
     72 C          -0.3899  -24.1407  -44.2274 C.2       12 UNK         0.5000 
     73 O           0.4183  -24.8506  -43.6285 O.2       12 UNK        -0.5000 
     74 N          -0.0974  -23.4631  -45.3448 N.am      13 UNK        -0.5000 
     75 CA          1.1731  -23.4854  -46.0667 C.3       13 UNK         0.1400 
     76 CB          1.6773  -22.0371  -46.2080 C.3       13 UNK        -0.1800 
     77 C           1.0192  -24.1760  -47.4388 C.2       13 UNK         0.5000 
     78 O           1.7967  -23.8904  -48.3499 O.2       13 UNK        -0.5000 
     79 N           0.0093  -25.0512  -47.5810 N.am      14 UNK        -0.5000 
     80 CA         -0.3395  -25.8104  -48.7902 C.3       14 UNK         0.1400 
     81 CB          0.7566  -26.8457  -49.1194 C.3       14 UNK        -0.1800 
     82 C          -0.6809  -24.8963  -49.9861 C.2       14 UNK         0.5000 
     83 O          -0.1497  -25.0741  -51.0837 O.2       14 UNK        -0.5000 
     84 N          -1.5318  -23.8950  -49.7226 N.am      15 UNK        -0.5000 
     85 CA         -1.9217  -22.8008  -50.6178 C.3       15 UNK         0.1400 
     86 CB         -2.7237  -23.3201  -51.8290 C.3       15 UNK        -0.1800 
     87 C          -0.7139  -21.9261  -51.0033 C.2       15 UNK         0.5000 
     88 O          -0.5696  -21.5550  -52.1686 O.2       15 UNK        -0.5000 
     89 N           0.1437  -21.6412  -50.0114 N.am      16 UNK        -0.5000 
     90 CA          1.4318  -20.9450  -50.1271 C.3       16 UNK         0.1400 
     91 CB          1.2159  -19.4525  -50.4522 C.3       16 UNK        -0.1800 
     92 C           2.3819  -21.6475  -51.1214 C.2       16 UNK         0.5000 
     93 O           2.9706  -20.9955  -51.9838 O.2       16 UNK        -0.5000 
     94 N           2.4711  -22.9795  -50.9954 N.am      17 UNK        -0.5000 
     95 CA          3.1305  -23.9172  -51.9091 C.3       17 UNK         0.1400 
     96 CB          4.6618  -23.7302  -51.8798 C.3       17 UNK        -0.1800 
     97 C           2.5304  -23.8617  -53.3320 C.2       17 UNK         0.5000 
     98 O           3.2659  -23.7415  -54.3139 O.2       17 UNK        -0.5000 
     99 N           1.1934  -23.9515  -53.3982 N.am      18 UNK        -0.5000 
    100 CA         0.3485  -23.9221  -54.5969 C.3       18 UNK         0.1400 
    101 CB         0.5360  -25.2173  -55.4139 C.3       18 UNK        -0.1800 
    102 C          0.5185  -22.6398  -55.4415 C.2       18 UNK         0.5000 
    103 O          0.6976  -22.7216  -56.6589 O.2       18 UNK        -0.5000 
    104 N          0.4606  -21.4789  -54.7775 N.am      19 UNK        -0.5000 
    105 CA         0.6322  -20.1578  -55.3871 C.3       19 UNK         0.1400 
    106 CB         2.0190  -19.6106  -55.0151 C.3       19 UNK        -0.1800 
    107 C         -0.4629  -19.1530  -54.9847 C.2       19 UNK         0.5000 
    108 O         -0.6474  -18.1663  -55.6986 O.2       19 UNK        -0.5000 
    109 N         -1.1654  -19.3877  -53.8657 N.am      20 UNK        -0.5000 
    110 CA        -2.1723  -18.4686  -53.3234 C.3       20 UNK         0.1400 
    111 CB        -2.4536  -18.8246  -51.8556 C.3       20 UNK        -0.1800 
    112 C         -3.4895  -18.4386  -54.1199 C.2       20 UNK         0.5000 
    113 O         -4.2169  -17.4501  -54.0295 O.2       20 UNK        -0.5000 
    114 N         -3.7948  -19.5262  -54.8446 N.am      21 UNK        -0.5000 
    115 CA        -4.9698  -19.7699  -55.7024 C.3       21 UNK         0.1400 
    116 CB        -5.0283  -18.7498  -56.8558 C.3       21 UNK        -0.1800 
    117 C         -6.3329  -19.8610  -54.9758 C.2       21 UNK         0.5000 
    118 O         -7.2431  -20.5064  -55.4981 O.2       21 UNK        -0.5000 
    119 N         -6.4370  -19.2525  -53.7899 N.am      22 UNK        -0.5000 
    120 CA        -7.6042  -19.1923  -52.8954 C.3       22 UNK         0.1400 
    121 C         -8.7259  -18.2369  -53.4061 C.2       22 UNK         0.5000 
    122 N         -9.8057  -18.0725  -52.6524 N.am      22 UNK        -0.7600 
    123 O         -8.6294  -17.6151  -54.4623 O.2       22 UNK        -0.5000 
    124 C124       -8.1625  -20.5899  -52.4836 C.3       23 UNK        -0.0398 
    125 S125       -6.9565  -21.8655  -51.9606 S.3       23 UNK        -0.2404 
    126 C126       -5.7009  -20.9662  -50.9938 C.3       23 UNK        -0.0205 
    127 H127        0.8882  -15.6857  -48.2353 H         1 UNK         0.0600 
    128 H128       -0.1319  -16.3030  -49.5398 H         1 UNK         0.0600 
    129 H129       -0.0295  -17.1792  -48.0138 H         1 UNK         0.0600 
    130 H130       -1.6170  -16.7806  -46.5263 H         1 UNK         0.3000 
    131 H131       -3.4553  -16.0929  -45.5885 H         1 UNK         0.0600 
    132 H132       -4.1157  -14.1945  -47.8797 H         1 UNK         0.0800 
    133 H133       -5.2161  -14.8024  -46.6724 H         1 UNK         0.0800 
    134 H134       -6.2513  -17.0511  -46.5903 H         1 UNK         0.0800 
    135 H135       -7.0812  -16.5818  -48.0573 H         1 UNK         0.0800 
    136 H136       -5.6825  -18.4149  -50.0608 H         1 UNK         0.1150 
    137 H137       -6.8494  -22.3763  -48.9792 H         1 UNK         0.1150 
    138 H138       -7.2453  -19.1839  -46.1424 H         1 UNK         0.1150 
    139 H139       -8.3955  -21.3407  -45.7824 H         1 UNK         0.0800 
    140 H140       -8.2723  -22.6368  -46.9376 H         1 UNK         0.0800 
    141 H141       -6.1280  -23.7932  -47.4921 H         1 UNK         0.0800 
    142 H142       -5.7434  -24.8205  -46.1717 H         1 UNK         0.0800 
    143 H143       -3.8423  -23.9421  -47.7591 H         1 UNK         0.0600 
    144 H144       -4.5766  -21.4563  -46.6651 H         1 UNK         0.3000 
    145 H145       -1.5276  -19.7946  -46.5648 H         1 UNK         0.0600 
    146 H146       -2.3400  -18.2685  -48.3583 H         1 UNK         0.0600 
    147 H147       -1.6844  -19.7437  -49.0255 H         1 UNK         0.0600 
    148 H148       -3.4242  -19.5254  -48.9505 H         1 UNK         0.0600 
    149 H149       -4.0732  -18.6437  -46.6098 H         1 UNK         0.3000 
    150 H150       -5.0447  -17.9765  -44.7217 H         1 UNK         0.0600 
    151 H151       -6.3931  -19.9910  -44.1451 H         1 UNK         0.0600 
    152 H152       -6.3545  -18.9057  -42.7682 H         1 UNK         0.0600 
    153 H153       -5.3455  -20.3502  -42.7803 H         1 UNK         0.0600 
    154 H154       -3.0403  -18.7293  -42.7037 H         1 UNK         0.3000 
    155 H155       -2.2638  -15.3751  -42.2285 H         1 UNK         0.0600 
    156 H156       -3.7895  -15.6284  -40.2671 H         1 UNK         0.0600 
    157 H157       -2.1107  -15.8601  -39.8080 H         1 UNK         0.0600 
    158 H158       -3.1772  -17.2543  -39.9891 H         1 UNK         0.0600 
    159 H159       -1.0234  -17.6636  -41.1626 H         1 UNK         0.3000 
    160 H160        1.0252  -18.1247  -42.0262 H         1 UNK         0.0600 
    161 H161       -0.2748  -20.0832  -43.9948 H         1 UNK         0.0600 
    162 H162       -0.4397  -20.0789  -42.2478 H         1 UNK         0.0600 
    163 H163        1.1159  -20.4461  -42.9736 H         1 UNK         0.0600 
    164 H164        2.4488  -17.4969  -43.5622 H         1 UNK         0.3000 
    165 H165        3.8043  -18.0642  -45.4464 H         1 UNK         0.0600 
    166 H166        4.0201  -17.9804  -47.8974 H         1 UNK         0.0600 
    167 H167        2.2868  -17.7616  -48.0973 H         1 UNK         0.0600 
    168 H168        2.9248  -19.2842  -47.4945 H         1 UNK         0.0600 
    169 H169        2.1315  -15.7815  -45.5765 H         1 UNK         0.3000 
    170 H170        4.6356  -13.4503  -46.7264 H         1 UNK         0.0600 
    171 H171        2.5754  -13.7928  -48.0522 H         1 UNK         0.0600 
    172 H172        1.6076  -13.8995  -46.5892 H         1 UNK         0.0600 
    173 H173        2.4255  -12.3972  -46.9986 H         1 UNK         0.0600 
    174 H174        2.7924  -13.5843  -44.4075 H         1 UNK         0.3000 
    175 H175        5.2747  -13.0339  -42.0437 H         1 UNK         0.0600 
    176 H176        3.7603  -10.6261  -43.1898 H         1 UNK         0.0600 
    177 H177        4.4120  -10.7527  -41.5552 H         1 UNK         0.0600 
    178 H178        5.4985  -10.7170  -42.9338 H         1 UNK         0.0600 
    179 H179        2.4354  -12.4053  -42.1592 H         1 UNK         0.3000 
    180 H180        1.3059  -15.6648  -41.4638 H         1 UNK         0.0600 
    181 H181        1.4098  -13.2882  -39.5358 H         1 UNK         0.0600 
    182 H182        2.0064  -14.9065  -39.1875 H         1 UNK         0.0600 
    183 H183        0.2903  -14.6495  -39.4551 H         1 UNK         0.0600 
    184 H184       -0.1674  -13.2942  -41.4932 H         1 UNK         0.3000 
    185 H185       -1.6127  -12.9522  -43.1624 H         1 UNK         0.0600 
    186 H186        0.1872  -12.1721  -45.5413 H         1 UNK         0.0600 
    187 H187       -1.3419  -11.4101  -45.1165 H         1 UNK         0.0600 
    188 H188        0.0429  -11.2505  -44.0489 H         1 UNK         0.0600 
    189 H189       -0.9939  -15.0162  -44.9851 H         1 UNK         0.3000 
    190 H190       -3.0810  -22.5610  -44.5863 H         1 UNK         0.3000 
    191 H191       -2.1507  -25.0299  -43.3963 H         1 UNK         0.0600 
    192 H192       -1.5804  -22.1078  -42.6886 H         1 UNK         0.0600 
    193 H193       -2.8972  -23.0816  -42.0402 H         1 UNK         0.0600 
    194 H194       -1.2298  -23.4965  -41.6689 H         1 UNK         0.0600 
    195 H195       -0.8320  -22.9305  -45.7977 H         1 UNK         0.3000 
    196 H196        1.9205  -24.0534  -45.5101 H         1 UNK         0.0600 
    197 H197        1.7928  -21.5646  -45.2327 H         1 UNK         0.0600 
    198 H198        0.9877  -21.4255  -46.7908 H         1 UNK         0.0600 
    199 H199        2.6498  -22.0001  -46.7001 H         1 UNK         0.0600 
    200 H200       -0.5963  -25.2015  -46.7847 H         1 UNK         0.3000 
    201 H201       -1.2521  -26.3605  -48.5562 H         1 UNK         0.0600 
    202 H202        0.4512  -27.4864  -49.9475 H         1 UNK         0.0600 
    203 H203        0.9560  -27.4930  -48.2655 H         1 UNK         0.0600 
    204 H204        1.6950  -26.3697  -49.4056 H         1 UNK         0.0600 
    205 H205       -1.8023  -23.7626  -48.7561 H         1 UNK         0.3000 
    206 H206       -2.5876  -22.1522  -50.0494 H         1 UNK         0.0600 
    207 H207       -3.6132  -23.8602  -51.5048 H         1 UNK         0.0600 
    208 H208       -2.1372  -23.9937  -52.4512 H         1 UNK         0.0600 
    209 H209       -3.0591  -22.4977  -52.4622 H         1 UNK         0.0600 
    210 H210       -0.0776  -22.0016  -49.0916 H         1 UNK         0.3000 
    211 H211        1.9089  -21.0062  -49.1484 H         1 UNK         0.0600 
    212 H212        0.5520  -18.9833  -49.7271 H         1 UNK         0.0600 
    213 H213        2.1603  -18.9083  -50.4249 H         1 UNK         0.0600 
    214 H214        0.7894  -19.3104  -51.4453 H         1 UNK         0.0600 
    215 H215        1.9981  -23.4050  -50.2021 H         1 UNK         0.3000 
    216 H216        2.9148  -24.9155  -51.5254 H         1 UNK         0.0600 
    217 H217        5.1589  -24.5030  -52.4670 H         1 UNK         0.0600 
    218 H218        4.9629  -22.7656  -52.2892 H         1 UNK         0.0600 
    219 H219        5.0466  -23.7978  -50.8623 H         1 UNK         0.0600 
    220 H220        0.6936  -24.0958  -52.5247 H         1 UNK         0.3000 
    221 H221       -0.6820  -23.9095  -54.2434 H         1 UNK         0.0600 
    222 H222        1.5415  -25.2928  -55.8290 H         1 UNK         0.0600 
    223 H223        0.3605  -26.0991  -54.7977 H         1 UNK         0.0600 
    224 H224       -0.1667  -25.2600  -56.2468 H         1 UNK         0.0600 
    225 H225        0.2898  -21.5065  -53.7746 H         1 UNK         0.3000 
    226 H226        0.5830  -20.2392  -56.4747 H         1 UNK         0.0600 
    227 H227        2.8088  -20.3065  -55.2989 H         1 UNK         0.0600 
    228 H228        2.2167  -18.6660  -55.5232 H         1 UNK         0.0600 
    229 H229        2.1014  -19.4292  -53.9432 H         1 UNK         0.0600 
    230 H230       -0.9558  -20.2092  -53.3042 H         1 UNK         0.3000 
    231 H231       -1.7586  -17.4581  -53.3472 H         1 UNK         0.0600 
    232 H232       -3.1967  -18.1543  -51.4209 H         1 UNK         0.0600 
    233 H233       -1.5515  -18.7337  -51.2527 H         1 UNK         0.0600 
    234 H234       -2.8290  -19.8423  -51.7526 H         1 UNK         0.0600 
    235 H235       -3.1309  -20.2866  -54.8101 H         1 UNK         0.3000 
    236 H236       -4.8022  -20.7520  -56.1471 H         1 UNK         0.0600 
    237 H237       -4.0908  -18.7279  -57.4115 H         1 UNK         0.0600 
    238 H238       -5.8192  -19.0061  -57.5616 H         1 UNK         0.0600 
    239 H239       -5.2304  -17.7404  -56.4964 H         1 UNK         0.0600 
    240 H240       -5.6637  -18.6477  -53.5375 H         1 UNK         0.3000 
    241 H241       -7.2296  -18.7092  -51.9939 H         1 UNK         0.0600 
    242 H242      -10.5299  -17.4481  -52.9731 H         1 UNK         0.3800 
    243 H243       -9.9161  -18.5368  -51.7647 H         1 UNK         0.3800 
    244 H244       -8.8684  -20.4774  -51.6600 H         1 UNK         0.0800 
    245 H245       -8.7387  -21.0153  -53.3066 H         1 UNK         0.0800 
    246 H246       -4.8828  -21.6557  -50.7899 H         1 UNK         0.0800 
    247 H247       -5.2665  -20.1645  -51.5885 H         1 UNK         0.0800 
@<TRIPOS>BOND
     1    1    2 1    
     2    1  127 1    
     3    1  128 1    
     4    1  129 1    
     5    2    3 2    
     6    2    4 am   BACKBONE|DICT|INTERRES
     7    4    5 1    
     8    4  130 1    
     9    5    6 1    
    10    5   65 1    
    11    5  131 1    
    12    6    7 1    
    13    6  132 1    
    14    6  133 1    
    15    7    8 1    
    16    8    9 1    
    17    8  134 1    
    18    8  135 1    
    19    9   10 ar   
    20    9   14 ar   
    21   10   11 ar   
    22   10  136 1    
    23   11   12 ar   
    24   11  126 1    
    25   12   13 ar   
    26   12  137 1    
    27   13   14 ar   
    28   13   15 1    
    29   14  138 1    
    30   15   16 1    
    31   15  139 1    
    32   15  140 1    
    33   16   17 1    
    34   17   18 1    
    35   17  141 1    
    36   17  142 1    
    37   18   19 1    
    38   18   67 1    
    39   18  143 1    
    40   19   20 am   BACKBONE|DICT|INTERRES
    41   19  144 1    
    42   20   21 2    
    43   20   22 1    
    44   22   23 1    
    45   22   24 1    
    46   22  145 1    
    47   23  146 1    
    48   23  147 1    
    49   23  148 1    
    50   24   25 am   BACKBONE|DICT|INTERRES
    51   24  149 1    
    52   25   26 2    
    53   25   27 1    
    54   27   28 1    
    55   27   29 1    
    56   27  150 1    
    57   28  151 1    
    58   28  152 1    
    59   28  153 1    
    60   29   30 am   BACKBONE|DICT|INTERRES
    61   29  154 1    
    62   30   31 2    
    63   30   32 1    
    64   32   33 1    
    65   32   34 1    
    66   32  155 1    
    67   33  156 1    
    68   33  157 1    
    69   33  158 1    
    70   34   35 am   BACKBONE|DICT|INTERRES
    71   34  159 1    
    72   35   36 2    
    73   35   37 1    
    74   37   38 1    
    75   37   39 1    
    76   37  160 1    
    77   38  161 1    
    78   38  162 1    
    79   38  163 1    
    80   39   40 am   BACKBONE|DICT|INTERRES
    81   39  164 1    
    82   40   41 2    
    83   40   42 1    
    84   42   43 1    
    85   42   44 1    
    86   42  165 1    
    87   43  166 1    
    88   43  167 1    
    89   43  168 1    
    90   44   45 am   BACKBONE|DICT|INTERRES
    91   44  169 1    
    92   45   46 2    
    93   45   47 1    
    94   47   48 1    
    95   47   49 1    
    96   47  170 1    
    97   48  171 1    
    98   48  172 1    
    99   48  173 1    
   100   49   50 am   BACKBONE|DICT|INTERRES
   101   49  174 1    
   102   50   51 2    
   103   50   52 1    
   104   52   53 1    
   105   52   54 1    
   106   52  175 1    
   107   53  176 1    
   108   53  177 1    
   109   53  178 1    
   110   54   55 am   BACKBONE|DICT|INTERRES
   111   54  179 1    
   112   55   56 2    
   113   55   57 1    
   114   57   58 1    
   115   57   59 1    
   116   57  180 1    
   117   58  181 1    
   118   58  182 1    
   119   58  183 1    
   120   59   60 am   BACKBONE|DICT|INTERRES
   121   59  184 1    
   122   60   61 2    
   123   60   62 1    
   124   62   63 1    
   125   62   64 1    
   126   62  185 1    
   127   63  186 1    
   128   63  187 1    
   129   63  188 1    
   130   64   65 am   BACKBONE|DICT|INTERRES
   131   64  189 1    
   132   65   66 2    
   133   67   68 2    
   134   67   69 am   BACKBONE|DICT|INTERRES
   135   69   70 1    
   136   69  190 1    
   137   70   71 1    
   138   70   72 1    
   139   70  191 1    
   140   71  192 1    
   141   71  193 1    
   142   71  194 1    
   143   72   73 2    
   144   72   74 am   BACKBONE|DICT|INTERRES
   145   74   75 1    
   146   74  195 1    
   147   75   76 1    
   148   75   77 1    
   149   75  196 1    
   150   76  197 1    
   151   76  198 1    
   152   76  199 1    
   153   77   78 2    
   154   77   79 am   BACKBONE|DICT|INTERRES
   155   79   80 1    
   156   79  200 1    
   157   80   81 1    
   158   80   82 1    
   159   80  201 1    
   160   81  202 1    
   161   81  203 1    
   162   81  204 1    
   163   82   83 2    
   164   82   84 am   BACKBONE|DICT|INTERRES
   165   84   85 1    
   166   84  205 1    
   167   85   86 1    
   168   85   87 1    
   169   85  206 1    
   170   86  207 1    
   171   86  208 1    
   172   86  209 1    
   173   87   88 2    
   174   87   89 am   BACKBONE|DICT|INTERRES
   175   89   90 1    
   176   89  210 1    
   177   90   91 1    
   178   90   92 1    
   179   90  211 1    
   180   91  212 1    
   181   91  213 1    
   182   91  214 1    
   183   92   93 2    
   184   92   94 am   BACKBONE|DICT|INTERRES
   185   94   95 1    
   186   94  215 1    
   187   95   96 1    
   188   95   97 1    
   189   95  216 1    
   190   96  217 1    
   191   96  218 1    
   192   96  219 1    
   193   97   98 2    
   194   97   99 am   BACKBONE|DICT|INTERRES
   195   99  100 1    
   196   99  220 1    
   197  100  101 1    
   198  100  102 1    
   199  100  221 1    
   200  101  222 1    
   201  101  223 1    
   202  101  224 1    
   203  102  103 2    
   204  102  104 am   BACKBONE|DICT|INTERRES
   205  104  105 1    
   206  104  225 1    
   207  105  106 1    
   208  105  107 1    
   209  105  226 1    
   210  106  227 1    
   211  106  228 1    
   212  106  229 1    
   213  107  108 2    
   214  107  109 am   BACKBONE|DICT|INTERRES
   215  109  110 1    
   216  109  230 1    
   217  110  111 1    
   218  110  112 1    
   219  110  231 1    
   220  111  232 1    
   221  111  233 1    
   222  111  234 1    
   223  112  113 2    
   224  112  114 am   BACKBONE|DICT|INTERRES
   225  114  115 1    
   226  114  235 1    
   227  115  116 1    
   228  115  117 1    
   229  115  236 1    
   230  116  237 1    
   231  116  238 1    
   232  116  239 1    
   233  117  118 2    
   234  117  119 am   BACKBONE|DICT|INTERRES
   235  119  120 1    
   236  119  240 1    
   237  120  121 1    
   238  120  124 1    
   239  120  241 1    
   240  121  122 am   BACKBONE|DICT|INTERRES
   241  121  123 2    
   242  122  242 1    
   243  122  243 1    
   244  124  125 1    
   245  124  244 1    
   246  124  245 1    
   247  125  126 1    
   248  126  246 1    
   249  126  247 1    
@<TRIPOS>SUBSTRUCTURE
     1 UNK         1 GROUP             0       ****    0 ROOT    
