@<TRIPOS>MOLECULE
3R540
247   249    1
SMALL
USER_CHARGES


@<TRIPOS>ATOM
      1 CA         -4.9641   -9.9099  -43.5068 C.3       0 UNK        -0.1800 
      2 C          -4.1418  -10.2501  -44.7420 C.2       0 UNK         0.5000 
      3 O          -4.6241  -10.0872  -45.8630 O.2       0 UNK        -0.5000 
      4 N          -2.9062  -10.7187  -44.5418 N.am      1 UNK        -0.5000 
      5 CA         -1.9577  -11.0661  -45.5988 C.3       1 UNK         0.1400 
      6 C6         -2.3117  -12.4024  -46.3065 C.3       23 UNK        -0.0398 
      7 S7         -1.1460  -12.8623  -47.6300 S.3       23 UNK        -0.2404 
      8 C8         -2.0238  -14.2579  -48.3937 C.3       23 UNK        -0.0205 
      9 C9         -1.0562  -15.1074  -49.1988 C.ar      23 UNK        -0.0193 
     10 C10        -0.8393  -14.8530  -50.5561 C.ar      23 UNK        -0.1150 
     11 C11         0.0850  -15.6065  -51.2884 C.ar      23 UNK        -0.0193 
     12 C12         0.8148  -16.6050  -50.6268 C.ar      23 UNK        -0.1150 
     13 C13         0.5737  -16.8976  -49.2833 C.ar      23 UNK        -0.0193 
     14 C14        -0.3619  -16.1445  -48.5750 C.ar      23 UNK        -0.1150 
     15 C15         1.3259  -18.0263  -48.5981 C.3       23 UNK        -0.0205 
     16 S16         0.7271  -19.6630  -49.1252 S.3       23 UNK        -0.2404 
     17 C17        -0.9641  -19.6943  -48.4371 C.3       23 UNK        -0.0398 
     18 CA         -1.2679  -21.0230  -47.7068 C.3       11 UNK         0.1400 
     19 N          -0.4200  -21.2397  -46.5318 N.am      11 UNK        -0.5000 
     20 C          -0.2402  -22.4312  -45.9448 C.2       10 UNK         0.5000 
     21 O          -0.7334  -23.4805  -46.3594 O.2       10 UNK        -0.5000 
     22 CA          0.5936  -22.4415  -44.6503 C.3       10 UNK         0.1400 
     23 CB          2.0935  -22.4779  -44.9664 C.3       10 UNK        -0.1800 
     24 N           0.3024  -21.2922  -43.7916 N.am      10 UNK        -0.5000 
     25 C          -0.8707  -21.1197  -43.1652 C.2       9 UNK         0.5000 
     26 O          -1.8083  -21.9115  -43.2470 O.2       9 UNK        -0.5000 
     27 CA         -1.0525  -19.8401  -42.3344 C.3       9 UNK         0.1400 
     28 CB         -0.6513  -20.0951  -40.8755 C.3       9 UNK        -0.1800 
     29 N          -0.3354  -18.6792  -42.8655 N.am      9 UNK        -0.5000 
     30 C          -0.5875  -18.1142  -44.0564 C.2       8 UNK         0.5000 
     31 O          -1.3688  -18.6008  -44.8770 O.2       8 UNK        -0.5000 
     32 CA          0.1535  -16.8141  -44.4317 C.3       8 UNK         0.1400 
     33 CB         -0.8355  -15.6875  -44.8007 C.3       8 UNK        -0.1800 
     34 N           1.1508  -16.3564  -43.4583 N.am      8 UNK        -0.5000 
     35 C           0.9686  -15.8548  -42.2287 C.2       7 UNK         0.5000 
     36 O          -0.1323  -15.6298  -41.7262 O.2       7 UNK        -0.5000 
     37 CA          2.2640  -15.6094  -41.4248 C.3       7 UNK         0.1400 
     38 CB          2.0069  -15.2779  -39.9397 C.3       7 UNK        -0.1800 
     39 N           3.2103  -16.7276  -41.5667 N.am      7 UNK        -0.5000 
     40 C           2.9880  -18.0014  -41.2080 C.2       6 UNK         0.5000 
     41 O           1.9537  -18.3752  -40.6574 O.2       6 UNK        -0.5000 
     42 CA          4.0934  -19.0244  -41.5403 C.3       6 UNK         0.1400 
     43 CB          3.6531  -20.4839  -41.2918 C.3       6 UNK        -0.1800 
     44 N           4.6326  -18.8788  -42.8961 N.am      6 UNK        -0.5000 
     45 C           3.9827  -19.0221  -44.0595 C.2       5 UNK         0.5000 
     46 O           2.7687  -19.2232  -44.1541 O.2       5 UNK        -0.5000 
     47 CA          4.8622  -18.8986  -45.3244 C.3       5 UNK         0.1400 
     48 CB          4.1642  -19.4039  -46.5971 C.3       5 UNK        -0.1800 
     49 N           5.2833  -17.5165  -45.5435 N.am      5 UNK        -0.5000 
     50 C           6.2424  -16.8767  -44.8619 C.2       4 UNK         0.5000 
     51 O           6.9344  -17.4171  -43.9971 O.2       4 UNK        -0.5000 
     52 CA          6.4538  -15.3798  -45.1738 C.3       4 UNK         0.1400 
     53 CB          7.6678  -15.1949  -46.0972 C.3       4 UNK        -0.1800 
     54 N           5.2994  -14.6886  -45.7644 N.am      4 UNK        -0.5000 
     55 C           4.0855  -14.5882  -45.2073 C.2       3 UNK         0.5000 
     56 O           3.7602  -15.1777  -44.1757 O.2       3 UNK        -0.5000 
     57 CA          3.0521  -13.7276  -45.9598 C.3       3 UNK         0.1400 
     58 CB          2.4071  -14.5473  -47.0876 C.3       3 UNK        -0.1800 
     59 N           1.9944  -13.2215  -45.0813 N.am      3 UNK        -0.5000 
     60 C           2.1740  -12.3679  -44.0633 C.2       2 UNK         0.5000 
     61 O           3.2601  -11.8530  -43.7907 O.2       2 UNK        -0.5000 
     62 CA          0.9247  -12.0445  -43.2104 C.3       2 UNK         0.1400 
     63 CB          1.1209  -10.8179  -42.2949 C.3       2 UNK        -0.1800 
     64 N          -0.3133  -11.9128  -43.9917 N.am      2 UNK        -0.5000 
     65 C          -0.5470  -11.0377  -44.9846 C.2       1 UNK         0.5000 
     66 O           0.2711  -10.2084  -45.3842 O.2       1 UNK        -0.5000 
     67 C          -2.7575  -21.1174  -47.3280 C.2       11 UNK         0.5000 
     68 O          -3.5284  -21.7253  -48.0702 O.2       11 UNK        -0.5000 
     69 N          -3.1331  -20.5584  -46.1673 N.am      12 UNK        -0.5000 
     70 CA         -4.4931  -20.6101  -45.6268 C.3       12 UNK         0.1400 
     71 CB         -4.5915  -19.7247  -44.3770 C.3       12 UNK        -0.1800 
     72 C          -4.9621  -22.0447  -45.3207 C.2       12 UNK         0.5000 
     73 O          -6.0892  -22.3956  -45.6686 O.2       12 UNK        -0.5000 
     74 N          -4.0782  -22.8646  -44.7328 N.am      13 UNK        -0.5000 
     75 CA         -4.3109  -24.2850  -44.4514 C.3       13 UNK         0.1400 
     76 CB         -3.1540  -24.8337  -43.6030 C.3       13 UNK        -0.1800 
     77 C          -4.4955  -25.1378  -45.7215 C.2       13 UNK         0.5000 
     78 O          -5.2514  -26.1095  -45.6961 O.2       13 UNK        -0.5000 
     79 N          -3.8288  -24.7423  -46.8138 N.am      14 UNK        -0.5000 
     80 CA         -3.9702  -25.3396  -48.1424 C.3       14 UNK         0.1400 
     81 CB         -2.6900  -25.0533  -48.9457 C.3       14 UNK        -0.1800 
     82 C          -5.2138  -24.8332  -48.9046 C.2       14 UNK         0.5000 
     83 O          -5.5116  -25.3614  -49.9747 O.2       14 UNK        -0.5000 
     84 N          -5.8991  -23.8116  -48.3662 N.am      15 UNK        -0.5000 
     85 CA         -7.0030  -23.0608  -48.9753 C.3       15 UNK         0.1400 
     86 CB         -8.2542  -23.9456  -49.1527 C.3       15 UNK        -0.1800 
     87 C          -6.5788  -22.3070  -50.2558 C.2       15 UNK         0.5000 
     88 O          -7.3876  -22.1196  -51.1677 O.2       15 UNK        -0.5000 
     89 N          -5.3100  -21.8718  -50.2742 N.am      16 UNK        -0.5000 
     90 CA         -4.6240  -21.0873  -51.2974 C.3       16 UNK         0.1400 
     91 CB         -4.9935  -19.5967  -51.1410 C.3       16 UNK        -0.1800 
     92 C          -4.8245  -21.6444  -52.7223 C.2       16 UNK         0.5000 
     93 O          -4.3407  -22.7377  -53.0269 O.2       16 UNK        -0.5000 
     94 N          -5.5462  -20.8929  -53.5647 N.am      17 UNK        -0.5000 
     95 CA         -5.8336  -21.1891  -54.9684 C.3       17 UNK         0.1400 
     96 CB         -6.6580  -20.0366  -55.5601 C.3       17 UNK        -0.1800 
     97 C          -6.5362  -22.5375  -55.2202 C.2       17 UNK         0.5000 
     98 O          -6.3878  -23.0841  -56.3129 O.2       17 UNK        -0.5000 
     99 N          -7.2356  -23.0823  -54.2129 N.am      18 UNK        -0.5000 
    100 CA        -7.8631  -24.4071  -54.2626 C.3       18 UNK         0.1400 
    101 CB        -8.7275  -24.6048  -53.0107 C.3       18 UNK        -0.1800 
    102 C         -6.8495  -25.5628  -54.4013 C.2       18 UNK         0.5000 
    103 O         -7.1857  -26.5917  -54.9886 O.2       18 UNK        -0.5000 
    104 N         -5.6283  -25.3615  -53.8889 N.am      19 UNK        -0.5000 
    105 CA        -4.4913  -26.2753  -54.0206 C.3       19 UNK         0.1400 
    106 CB        -3.8804  -26.4903  -52.6266 C.3       19 UNK        -0.1800 
    107 C         -3.4311  -25.7299  -54.9986 C.2       19 UNK         0.5000 
    108 O         -2.3514  -26.3134  -55.1014 O.2       19 UNK        -0.5000 
    109 N         -3.7372  -24.6073  -55.6694 N.am      20 UNK        -0.5000 
    110 CA        -2.8508  -23.7964  -56.5129 C.3       20 UNK         0.1400 
    111 CB        -2.4213  -24.5735  -57.7744 C.3       20 UNK        -0.1800 
    112 C         -1.6543  -23.1935  -55.7411 C.2       20 UNK         0.5000 
    113 O         -0.6258  -22.8814  -56.3444 O.2       20 UNK        -0.5000 
    114 N         -1.8084  -23.0236  -54.4211 N.am      21 UNK        -0.5000 
    115 CA        -0.8194  -22.4392  -53.5249 C.3       21 UNK         0.1400 
    116 CB        -0.9879  -23.0497  -52.1206 C.3       21 UNK        -0.1800 
    117 C         -0.9896  -20.9135  -53.5266 C.2       21 UNK         0.5000 
    118 O         -1.7189  -20.3725  -52.6949 O.2       21 UNK        -0.5000 
    119 N         -0.3586  -20.2491  -54.5016 N.am      22 UNK        -0.5000 
    120 CA        -0.3184  -18.7858  -54.6886 C.3       22 UNK         0.1400 
    121 C         -1.6521  -18.1354  -55.1653 C.2       22 UNK         0.5000 
    122 N         -2.8115  -18.6645  -54.7987 N.am      22 UNK        -0.7600 
    123 O         -1.6327  -17.1527  -55.9008 O.2       22 UNK        -0.5000 
    124 C124        0.2423  -18.0725  -53.4301 C.3       23 UNK        -0.0398 
    125 S125        1.1725  -16.5389  -53.7700 S.3       23 UNK        -0.2404 
    126 C126        0.2416  -15.3087  -52.7843 C.3       23 UNK        -0.0205 
    127 H127       -4.4147  -10.1073  -42.5860 H         1 UNK         0.0600 
    128 H128       -5.8788  -10.5026  -43.4903 H         1 UNK         0.0600 
    129 H129       -5.2401   -8.8554  -43.5186 H         1 UNK         0.0600 
    130 H130       -2.5463  -10.7857  -43.5992 H         1 UNK         0.3000 
    131 H131       -1.9883  -10.2726  -46.3492 H         1 UNK         0.0600 
    132 H132       -3.3056  -12.3294  -46.7497 H         1 UNK         0.0800 
    133 H133       -2.3649  -13.2189  -45.5855 H         1 UNK         0.0800 
    134 H134       -2.8264  -13.8815  -49.0298 H         1 UNK         0.0800 
    135 H135       -2.4974  -14.8675  -47.6226 H         1 UNK         0.0800 
    136 H136       -1.3909  -14.0610  -51.0433 H         1 UNK         0.1150 
    137 H137        1.5557  -17.1884  -51.1518 H         1 UNK         0.1150 
    138 H138       -0.5381  -16.3563  -47.5324 H         1 UNK         0.1150 
    139 H139        1.2428  -17.9437  -47.5145 H         1 UNK         0.0800 
    140 H140        2.3874  -17.9439  -48.8355 H         1 UNK         0.0800 
    141 H141       -1.6545  -19.5457  -49.2701 H         1 UNK         0.0800 
    142 H142       -1.1108  -18.8500  -47.7619 H         1 UNK         0.0800 
    143 H143       -1.0729  -21.8338  -48.4130 H         1 UNK         0.0600 
    144 H144       -0.0119  -20.4204  -46.1065 H         1 UNK         0.3000 
    145 H145        0.3419  -23.3498  -44.0985 H         1 UNK         0.0600 
    146 H146        2.3933  -21.5995  -45.5340 H         1 UNK         0.0600 
    147 H147        2.3478  -23.3570  -45.5596 H         1 UNK         0.0600 
    148 H148        2.6917  -22.5110  -44.0555 H         1 UNK         0.0600 
    149 H149        1.0190  -20.5800  -43.7083 H         1 UNK         0.3000 
    150 H150       -2.1135  -19.5876  -42.3423 H         1 UNK         0.0600 
    151 H151        0.3795  -20.4413  -40.7967 H         1 UNK         0.0600 
    152 H152       -1.2847  -20.8622  -40.4284 H         1 UNK         0.0600 
    153 H153       -0.7544  -19.1942  -40.2704 H         1 UNK         0.0600 
    154 H154        0.3519  -18.2552  -42.2552 H         1 UNK         0.3000 
    155 H155        0.7192  -17.0614  -45.3296 H         1 UNK         0.0600 
    156 H156       -1.4025  -15.3364  -43.9393 H         1 UNK         0.0600 
    157 H157       -1.5675  -16.0270  -45.5335 H         1 UNK         0.0600 
    158 H158       -0.3183  -14.8350  -45.2362 H         1 UNK         0.0600 
    159 H159        2.1157  -16.4701  -43.7486 H         1 UNK         0.3000 
    160 H160        2.7411  -14.7338  -41.8652 H         1 UNK         0.0600 
    161 H161        1.4666  -16.0754  -39.4291 H         1 UNK         0.0600 
    162 H162        1.4120  -14.3690  -39.8425 H         1 UNK         0.0600 
    163 H163        2.9423  -15.1112  -39.4059 H         1 UNK         0.0600 
    164 H164        4.0598  -16.5126  -42.0713 H         1 UNK         0.3000 
    165 H165        4.9172  -18.8101  -40.8581 H         1 UNK         0.0600 
    166 H166        3.3674  -20.6344  -40.2502 H         1 UNK         0.0600 
    167 H167        2.7967  -20.7611  -41.9073 H         1 UNK         0.0600 
    168 H168        4.4612  -21.1823  -41.5092 H         1 UNK         0.0600 
    169 H169        5.6147  -18.6300  -42.9533 H         1 UNK         0.3000 
    170 H170        5.7524  -19.5133  -45.1745 H         1 UNK         0.0600 
    171 H171        4.7540  -19.1886  -47.4882 H         1 UNK         0.0600 
    172 H172        4.0297  -20.4838  -46.5618 H         1 UNK         0.0600 
    173 H173        3.1838  -18.9504  -46.7258 H         1 UNK         0.0600 
    174 H174        4.7476  -16.9835  -46.2113 H         1 UNK         0.3000 
    175 H175        6.6718  -14.8878  -44.2238 H         1 UNK         0.0600 
    176 H176        8.5561  -15.6692  -45.6774 H         1 UNK         0.0600 
    177 H177        7.4948  -15.6343  -47.0804 H         1 UNK         0.0600 
    178 H178        7.9021  -14.1393  -46.2362 H         1 UNK         0.0600 
    179 H179        5.4763  -14.1976  -46.6290 H         1 UNK         0.3000 
    180 H180        3.5672  -12.8694  -46.3958 H         1 UNK         0.0600 
    181 H181        1.8662  -15.4093  -46.6981 H         1 UNK         0.0600 
    182 H182        3.1565  -14.9207  -47.7865 H         1 UNK         0.0600 
    183 H183        1.7063  -13.9442  -47.6646 H         1 UNK         0.0600 
    184 H184        1.0683  -13.5845  -45.2417 H         1 UNK         0.3000 
    185 H185        0.7783  -12.9066  -42.5597 H         1 UNK         0.0600 
    186 H186        1.9583  -10.9682  -41.6126 H         1 UNK         0.0600 
    187 H187        1.3244   -9.9128  -42.8678 H         1 UNK         0.0600 
    188 H188        0.2367  -10.6365  -41.6839 H         1 UNK         0.0600 
    189 H189       -1.0500  -12.5556  -43.7375 H         1 UNK         0.3000 
    190 H190       -2.4487  -20.0361  -45.6275 H         1 UNK         0.3000 
    191 H191       -5.1612  -20.1973  -46.3857 H         1 UNK         0.0600 
    192 H192       -4.2585  -18.7071  -44.5829 H         1 UNK         0.0600 
    193 H193       -5.6215  -19.6662  -44.0232 H         1 UNK         0.0600 
    194 H194       -3.9891  -20.1182  -43.5596 H         1 UNK         0.0600 
    195 H195       -3.1876  -22.4856  -44.4203 H         1 UNK         0.3000 
    196 H196       -5.2297  -24.3631  -43.8668 H         1 UNK         0.0600 
    197 H197       -2.1967  -24.7303  -44.1158 H         1 UNK         0.0600 
    198 H198       -3.2969  -25.8919  -43.3806 H         1 UNK         0.0600 
    199 H199       -3.0817  -24.3095  -42.6500 H         1 UNK         0.0600 
    200 H200       -3.2138  -23.9425  -46.7427 H         1 UNK         0.3000 
    201 H201       -4.0686  -26.4218  -48.0358 H         1 UNK         0.0600 
    202 H202       -2.5644  -23.9886  -49.1433 H         1 UNK         0.0600 
    203 H203       -1.8037  -25.4011  -48.4146 H         1 UNK         0.0600 
    204 H204       -2.7102  -25.5638  -49.9086 H         1 UNK         0.0600 
    205 H205       -5.5843  -23.4527  -47.4731 H         1 UNK         0.3000 
    206 H206       -7.2632  -22.2814  -48.2580 H         1 UNK         0.0600 
    207 H207       -8.5774  -24.3563  -48.1963 H         1 UNK         0.0600 
    208 H208       -9.0898  -23.3727  -49.5562 H         1 UNK         0.0600 
    209 H209       -8.0741  -24.7821  -49.8261 H         1 UNK         0.0600 
    210 H210       -4.7398  -22.0705  -49.4555 H         1 UNK         0.3000 
    211 H211       -3.5615  -21.1843  -51.0765 H         1 UNK         0.0600 
    212 H212       -4.7226  -19.2360  -50.1484 H         1 UNK         0.0600 
    213 H213       -4.4544  -18.9783  -51.8602 H         1 UNK         0.0600 
    214 H214       -6.0618  -19.4210  -51.2729 H         1 UNK         0.0600 
    215 H215       -5.9379  -20.0348  -53.2049 H         1 UNK         0.3000 
    216 H216       -4.8754  -21.2246  -55.4905 H         1 UNK         0.0600 
    217 H217       -7.6167  -19.9272  -55.0515 H         1 UNK         0.0600 
    218 H218       -6.8649  -20.2054  -56.6179 H         1 UNK         0.0600 
    219 H219       -6.1260  -19.0884  -55.4832 H         1 UNK         0.0600 
    220 H220       -7.2869  -22.5886  -53.3284 H         1 UNK         0.3000 
    221 H221       -8.5170  -24.4333  -55.1367 H         1 UNK         0.0600 
    222 H222       -8.1140  -24.6220  -52.1109 H         1 UNK         0.0600 
    223 H223       -9.4627  -23.8072  -52.9028 H         1 UNK         0.0600 
    224 H224       -9.2717  -25.5490  -53.0552 H         1 UNK         0.0600 
    225 H225       -5.4311  -24.4801  -53.4255 H         1 UNK         0.3000 
    226 H226       -4.8150  -27.2442  -54.4055 H         1 UNK         0.0600 
    227 H227       -4.6071  -26.9352  -51.9472 H         1 UNK         0.0600 
    228 H228       -3.0232  -27.1635  -52.6639 H         1 UNK         0.0600 
    229 H229       -3.5439  -25.5485  -52.1909 H         1 UNK         0.0600 
    230 H230       -4.6719  -24.2385  -55.5510 H         1 UNK         0.3000 
    231 H231       -3.4489  -22.9464  -56.8435 H         1 UNK         0.0600 
    232 H232       -1.7474  -25.3965  -57.5357 H         1 UNK         0.0600 
    233 H233       -1.9015  -23.9213  -58.4772 H         1 UNK         0.0600 
    234 H234       -3.2849  -24.9862  -58.2959 H         1 UNK         0.0600 
    235 H235       -2.7138  -23.2202  -54.0054 H         1 UNK         0.3000 
    236 H236        0.1881  -22.6782  -53.8719 H         1 UNK         0.0600 
    237 H237       -1.9900  -22.8968  -51.7213 H         1 UNK         0.0600 
    238 H238       -0.8009  -24.1235  -52.1360 H         1 UNK         0.0600 
    239 H239       -0.2841  -22.6056  -51.4154 H         1 UNK         0.0600 
    240 H240        0.1381  -20.7895  -55.1976 H         1 UNK         0.3000 
    241 H241        0.3942  -18.6387  -55.5013 H         1 UNK         0.0600 
    242 H242       -3.6736  -18.2481  -55.1100 H         1 UNK         0.3800 
    243 H243       -2.8079  -19.4182  -54.1237 H         1 UNK         0.3800 
    244 H244        0.9430  -18.7315  -52.9154 H         1 UNK         0.0800 
    245 H245       -0.5580  -17.8894  -52.7110 H         1 UNK         0.0800 
    246 H246       -0.7485  -15.2038  -53.2311 H         1 UNK         0.0800 
    247 H247        0.7329  -14.3411  -52.8934 H         1 UNK         0.0800 
@<TRIPOS>BOND
     1    1    2 1    
     2    1  127 1    
     3    1  128 1    
     4    1  129 1    
     5    2    3 2    
     6    2    4 am   BACKBONE|DICT|INTERRES
     7    4    5 1    
     8    4  130 1    
     9    5    6 1    
    10    5   65 1    
    11    5  131 1    
    12    6    7 1    
    13    6  132 1    
    14    6  133 1    
    15    7    8 1    
    16    8    9 1    
    17    8  134 1    
    18    8  135 1    
    19    9   10 ar   
    20    9   14 ar   
    21   10   11 ar   
    22   10  136 1    
    23   11   12 ar   
    24   11  126 1    
    25   12   13 ar   
    26   12  137 1    
    27   13   14 ar   
    28   13   15 1    
    29   14  138 1    
    30   15   16 1    
    31   15  139 1    
    32   15  140 1    
    33   16   17 1    
    34   17   18 1    
    35   17  141 1    
    36   17  142 1    
    37   18   19 1    
    38   18   67 1    
    39   18  143 1    
    40   19   20 am   BACKBONE|DICT|INTERRES
    41   19  144 1    
    42   20   21 2    
    43   20   22 1    
    44   22   23 1    
    45   22   24 1    
    46   22  145 1    
    47   23  146 1    
    48   23  147 1    
    49   23  148 1    
    50   24   25 am   BACKBONE|DICT|INTERRES
    51   24  149 1    
    52   25   26 2    
    53   25   27 1    
    54   27   28 1    
    55   27   29 1    
    56   27  150 1    
    57   28  151 1    
    58   28  152 1    
    59   28  153 1    
    60   29   30 am   BACKBONE|DICT|INTERRES
    61   29  154 1    
    62   30   31 2    
    63   30   32 1    
    64   32   33 1    
    65   32   34 1    
    66   32  155 1    
    67   33  156 1    
    68   33  157 1    
    69   33  158 1    
    70   34   35 am   BACKBONE|DICT|INTERRES
    71   34  159 1    
    72   35   36 2    
    73   35   37 1    
    74   37   38 1    
    75   37   39 1    
    76   37  160 1    
    77   38  161 1    
    78   38  162 1    
    79   38  163 1    
    80   39   40 am   BACKBONE|DICT|INTERRES
    81   39  164 1    
    82   40   41 2    
    83   40   42 1    
    84   42   43 1    
    85   42   44 1    
    86   42  165 1    
    87   43  166 1    
    88   43  167 1    
    89   43  168 1    
    90   44   45 am   BACKBONE|DICT|INTERRES
    91   44  169 1    
    92   45   46 2    
    93   45   47 1    
    94   47   48 1    
    95   47   49 1    
    96   47  170 1    
    97   48  171 1    
    98   48  172 1    
    99   48  173 1    
   100   49   50 am   BACKBONE|DICT|INTERRES
   101   49  174 1    
   102   50   51 2    
   103   50   52 1    
   104   52   53 1    
   105   52   54 1    
   106   52  175 1    
   107   53  176 1    
   108   53  177 1    
   109   53  178 1    
   110   54   55 am   BACKBONE|DICT|INTERRES
   111   54  179 1    
   112   55   56 2    
   113   55   57 1    
   114   57   58 1    
   115   57   59 1    
   116   57  180 1    
   117   58  181 1    
   118   58  182 1    
   119   58  183 1    
   120   59   60 am   BACKBONE|DICT|INTERRES
   121   59  184 1    
   122   60   61 2    
   123   60   62 1    
   124   62   63 1    
   125   62   64 1    
   126   62  185 1    
   127   63  186 1    
   128   63  187 1    
   129   63  188 1    
   130   64   65 am   BACKBONE|DICT|INTERRES
   131   64  189 1    
   132   65   66 2    
   133   67   68 2    
   134   67   69 am   BACKBONE|DICT|INTERRES
   135   69   70 1    
   136   69  190 1    
   137   70   71 1    
   138   70   72 1    
   139   70  191 1    
   140   71  192 1    
   141   71  193 1    
   142   71  194 1    
   143   72   73 2    
   144   72   74 am   BACKBONE|DICT|INTERRES
   145   74   75 1    
   146   74  195 1    
   147   75   76 1    
   148   75   77 1    
   149   75  196 1    
   150   76  197 1    
   151   76  198 1    
   152   76  199 1    
   153   77   78 2    
   154   77   79 am   BACKBONE|DICT|INTERRES
   155   79   80 1    
   156   79  200 1    
   157   80   81 1    
   158   80   82 1    
   159   80  201 1    
   160   81  202 1    
   161   81  203 1    
   162   81  204 1    
   163   82   83 2    
   164   82   84 am   BACKBONE|DICT|INTERRES
   165   84   85 1    
   166   84  205 1    
   167   85   86 1    
   168   85   87 1    
   169   85  206 1    
   170   86  207 1    
   171   86  208 1    
   172   86  209 1    
   173   87   88 2    
   174   87   89 am   BACKBONE|DICT|INTERRES
   175   89   90 1    
   176   89  210 1    
   177   90   91 1    
   178   90   92 1    
   179   90  211 1    
   180   91  212 1    
   181   91  213 1    
   182   91  214 1    
   183   92   93 2    
   184   92   94 am   BACKBONE|DICT|INTERRES
   185   94   95 1    
   186   94  215 1    
   187   95   96 1    
   188   95   97 1    
   189   95  216 1    
   190   96  217 1    
   191   96  218 1    
   192   96  219 1    
   193   97   98 2    
   194   97   99 am   BACKBONE|DICT|INTERRES
   195   99  100 1    
   196   99  220 1    
   197  100  101 1    
   198  100  102 1    
   199  100  221 1    
   200  101  222 1    
   201  101  223 1    
   202  101  224 1    
   203  102  103 2    
   204  102  104 am   BACKBONE|DICT|INTERRES
   205  104  105 1    
   206  104  225 1    
   207  105  106 1    
   208  105  107 1    
   209  105  226 1    
   210  106  227 1    
   211  106  228 1    
   212  106  229 1    
   213  107  108 2    
   214  107  109 am   BACKBONE|DICT|INTERRES
   215  109  110 1    
   216  109  230 1    
   217  110  111 1    
   218  110  112 1    
   219  110  231 1    
   220  111  232 1    
   221  111  233 1    
   222  111  234 1    
   223  112  113 2    
   224  112  114 am   BACKBONE|DICT|INTERRES
   225  114  115 1    
   226  114  235 1    
   227  115  116 1    
   228  115  117 1    
   229  115  236 1    
   230  116  237 1    
   231  116  238 1    
   232  116  239 1    
   233  117  118 2    
   234  117  119 am   BACKBONE|DICT|INTERRES
   235  119  120 1    
   236  119  240 1    
   237  120  121 1    
   238  120  124 1    
   239  120  241 1    
   240  121  122 am   BACKBONE|DICT|INTERRES
   241  121  123 2    
   242  122  242 1    
   243  122  243 1    
   244  124  125 1    
   245  124  244 1    
   246  124  245 1    
   247  125  126 1    
   248  126  246 1    
   249  126  247 1    
@<TRIPOS>SUBSTRUCTURE
     1 UNK         1 GROUP             0       ****    0 ROOT    
