@<TRIPOS>MOLECULE
3R540
247   249    1
SMALL
USER_CHARGES


@<TRIPOS>ATOM
      1 CA          1.1624  -10.0673  -49.1327 C.3       0 UNK        -0.1800 
      2 C           1.8788  -11.3866  -48.8849 C.2       0 UNK         0.5000 
      3 O           2.5454  -11.5394  -47.8612 O.2       0 UNK        -0.5000 
      4 N           1.7283  -12.3502  -49.8051 N.am      1 UNK        -0.5000 
      5 CA          2.3687  -13.6760  -49.7633 C.3       1 UNK         0.1400 
      6 C6          2.2264  -14.4209  -51.1183 C.3       23 UNK        -0.0398 
      7 S7          3.7781  -15.2336  -51.6206 S.3       23 UNK        -0.2404 
      8 C8          3.2169  -16.2036  -53.0526 C.3       23 UNK        -0.0205 
      9 C9          2.6878  -17.5673  -52.6373 C.ar      23 UNK        -0.0193 
     10 C10         1.3147  -17.7967  -52.5179 C.ar      23 UNK        -0.1150 
     11 C11         0.8382  -19.0655  -52.1777 C.ar      23 UNK        -0.0193 
     12 C12         1.7457  -20.1053  -51.9483 C.ar      23 UNK        -0.1150 
     13 C13         3.1259  -19.8881  -52.0530 C.ar      23 UNK        -0.0193 
     14 C14         3.5827  -18.6140  -52.4008 C.ar      23 UNK        -0.1150 
     15 C15         4.1600  -20.9979  -51.8532 C.3       23 UNK        -0.0205 
     16 S16         3.6139  -22.4388  -50.8747 S.3       23 UNK        -0.2404 
     17 C17         3.5079  -21.7333  -49.1952 C.3       23 UNK        -0.0398 
     18 CA          2.4102  -22.4250  -48.3493 C.3       11 UNK         0.1400 
     19 N           2.7031  -22.3720  -46.9122 N.am      11 UNK        -0.5000 
     20 C           2.0940  -23.1420  -45.9989 C.2       10 UNK         0.5000 
     21 O           1.2167  -23.9609  -46.2707 O.2       10 UNK        -0.5000 
     22 CA          2.5103  -22.9448  -44.5311 C.3       10 UNK         0.1400 
     23 CB          3.8046  -23.7145  -44.2285 C.3       10 UNK        -0.1800 
     24 N           2.6717  -21.5441  -44.1316 N.am      10 UNK        -0.5000 
     25 C           1.7021  -20.6212  -44.1724 C.2       9 UNK         0.5000 
     26 O           0.5993  -20.8080  -44.6864 O.2       9 UNK        -0.5000 
     27 CA          2.0072  -19.2656  -43.5135 C.3       9 UNK         0.1400 
     28 CB          1.9480  -18.1200  -44.5339 C.3       9 UNK        -0.1800 
     29 N           1.0633  -19.0005  -42.4293 N.am      9 UNK        -0.5000 
     30 C           1.0402  -19.6678  -41.2668 C.2       8 UNK         0.5000 
     31 O           1.8696  -20.5224  -40.9518 O.2       8 UNK        -0.5000 
     32 CA         -0.1010  -19.3329  -40.2949 C.3       8 UNK         0.1400 
     33 CB          0.1984  -18.0327  -39.5305 C.3       8 UNK        -0.1800 
     34 N          -1.3799  -19.2105  -40.9949 N.am      8 UNK        -0.5000 
     35 C          -2.2456  -20.2188  -41.1780 C.2       7 UNK         0.5000 
     36 O          -2.0490  -21.3641  -40.7704 O.2       7 UNK        -0.5000 
     37 CA         -3.5682  -19.9066  -41.9093 C.3       7 UNK         0.1400 
     38 CB         -4.7232  -19.7987  -40.9014 C.3       7 UNK        -0.1800 
     39 N          -3.5063  -18.6659  -42.6805 N.am      7 UNK        -0.5000 
     40 C          -3.0665  -18.5831  -43.9420 C.2       6 UNK         0.5000 
     41 O          -2.7925  -19.5617  -44.6304 O.2       6 UNK        -0.5000 
     42 CA         -2.8947  -17.1727  -44.5403 C.3       6 UNK         0.1400 
     43 CB         -4.0335  -16.8576  -45.5204 C.3       6 UNK        -0.1800 
     44 N          -2.8081  -16.0999  -43.5442 N.am      6 UNK        -0.5000 
     45 C          -1.8027  -15.9610  -42.6721 C.2       5 UNK         0.5000 
     46 O          -0.8875  -16.7790  -42.5486 O.2       5 UNK        -0.5000 
     47 CA         -1.8629  -14.7493  -41.7388 C.3       5 UNK         0.1400 
     48 CB         -2.4977  -15.1596  -40.3944 C.3       5 UNK        -0.1800 
     49 N          -0.5039  -14.2506  -41.5586 N.am      5 UNK        -0.5000 
     50 C          -0.1505  -13.1334  -40.9127 C.2       4 UNK         0.5000 
     51 O          -0.9498  -12.3687  -40.3708 O.2       4 UNK        -0.5000 
     52 CA          1.3534  -12.8027  -40.8719 C.3       4 UNK         0.1400 
     53 CB          2.0426  -13.5761  -39.7367 C.3       4 UNK        -0.1800 
     54 N           2.0443  -13.0820  -42.1315 N.am      4 UNK        -0.5000 
     55 C           1.8432  -12.4241  -43.2820 C.2       3 UNK         0.5000 
     56 O           1.0504  -11.4883  -43.4038 O.2       3 UNK        -0.5000 
     57 CA          2.6682  -12.8687  -44.5095 C.3       3 UNK         0.1400 
     58 CB          3.7887  -13.8855  -44.1911 C.3       3 UNK        -0.1800 
     59 N           1.8147  -13.3743  -45.5869 N.am      3 UNK        -0.5000 
     60 C           0.9534  -14.4016  -45.5126 C.2       2 UNK         0.5000 
     61 O           0.7552  -15.0442  -44.4841 O.2       2 UNK        -0.5000 
     62 CA          0.1739  -14.7889  -46.7874 C.3       2 UNK         0.1400 
     63 CB         -1.2958  -14.3582  -46.6686 C.3       2 UNK        -0.1800 
     64 N           0.7249  -14.2175  -48.0157 N.am      2 UNK        -0.5000 
     65 C           1.8953  -14.5520  -48.5780 C.2       1 UNK         0.5000 
     66 O           2.6019  -15.4771  -48.1776 O.2       1 UNK        -0.5000 
     67 C           1.0026  -21.8809  -48.6724 C.2       11 UNK         0.5000 
     68 O           0.3251  -22.4233  -49.5451 O.2       11 UNK        -0.5000 
     69 N           0.5696  -20.8501  -47.9320 N.am      12 UNK        -0.5000 
     70 CA         -0.7845  -20.3097  -48.0066 C.3       12 UNK         0.1400 
     71 CB         -0.8525  -18.9537  -47.2917 C.3       12 UNK        -0.1800 
     72 C          -1.8129  -21.2978  -47.4362 C.2       12 UNK         0.5000 
     73 O          -2.8266  -21.5481  -48.0867 O.2       12 UNK        -0.5000 
     74 N          -1.5174  -21.8752  -46.2643 N.am      13 UNK        -0.5000 
     75 CA         -2.3638  -22.8451  -45.5695 C.3       13 UNK         0.1400 
     76 CB         -1.7604  -23.1613  -44.1936 C.3       13 UNK        -0.1800 
     77 C          -2.5879  -24.1300  -46.3861 C.2       13 UNK         0.5000 
     78 O          -3.7235  -24.5971  -46.4823 O.2       13 UNK        -0.5000 
     79 N          -1.5164  -24.6354  -47.0149 N.am      14 UNK        -0.5000 
     80 CA         -1.5401  -25.7692  -47.9435 C.3       14 UNK         0.1400 
     81 CB         -0.0977  -26.1538  -48.3051 C.3       14 UNK        -0.1800 
     82 C          -2.3570  -25.4990  -49.2231 C.2       14 UNK         0.5000 
     83 O          -2.8929  -26.4389  -49.8102 O.2       14 UNK        -0.5000 
     84 N          -2.4667  -24.2225  -49.6097 N.am      15 UNK        -0.5000 
     85 CA         -3.2568  -23.7311  -50.7358 C.3       15 UNK         0.1400 
     86 CB         -2.4747  -22.6020  -51.4236 C.3       15 UNK        -0.1800 
     87 C          -4.6599  -23.2649  -50.2967 C.2       15 UNK         0.5000 
     88 O          -5.2231  -22.3747  -50.9328 O.2       15 UNK        -0.5000 
     89 N          -5.1968  -23.8571  -49.2188 N.am      16 UNK        -0.5000 
     90 CA         -6.5289  -23.6226  -48.6498 C.3       16 UNK         0.1400 
     91 CB         -7.6257  -24.1117  -49.6194 C.3       16 UNK        -0.1800 
     92 C          -6.7383  -22.1674  -48.1804 C.2       16 UNK         0.5000 
     93 O          -7.7809  -21.5704  -48.4533 O.2       16 UNK        -0.5000 
     94 N          -5.7259  -21.6351  -47.4818 N.am      17 UNK        -0.5000 
     95 CA         -5.6088  -20.2589  -46.9907 C.3       17 UNK         0.1400 
     96 CB         -6.7059  -19.9238  -45.9587 C.3       17 UNK        -0.1800 
     97 C          -5.5116  -19.2490  -48.1516 C.2       17 UNK         0.5000 
     98 O          -6.2720  -18.2812  -48.2070 O.2       17 UNK        -0.5000 
     99 N          -4.5484  -19.5109  -49.0463 N.am      18 UNK        -0.5000 
    100 CA        -4.1822  -18.7284  -50.2294 C.3       18 UNK         0.1400 
    101 CB        -3.5420  -17.3838  -49.8225 C.3       18 UNK        -0.1800 
    102 C         -5.3399  -18.5702  -51.2350 C.2       18 UNK         0.5000 
    103 O         -5.6263  -17.4603  -51.6906 O.2       18 UNK        -0.5000 
    104 N         -5.9781  -19.6965  -51.5738 N.am      19 UNK        -0.5000 
    105 CA        -6.9330  -19.8077  -52.6733 C.3       19 UNK         0.1400 
    106 CB        -7.8441  -21.0213  -52.4107 C.3       19 UNK        -0.1800 
    107 C         -6.1961  -19.9270  -54.0256 C.2       19 UNK         0.5000 
    108 O         -4.9689  -19.8183  -54.0879 O.2       19 UNK        -0.5000 
    109 N         -6.9561  -20.1891  -55.0974 N.am      20 UNK        -0.5000 
    110 CA        -6.4590  -20.3617  -56.4689 C.3       20 UNK         0.1400 
    111 CB        -7.6626  -20.4968  -57.4147 C.3       20 UNK        -0.1800 
    112 C         -5.4838  -21.5447  -56.6657 C.2       20 UNK         0.5000 
    113 O         -4.8057  -21.6002  -57.6922 O.2       20 UNK        -0.5000 
    114 N         -5.4133  -22.4535  -55.6827 N.am      21 UNK        -0.5000 
    115 CA        -4.5471  -23.6325  -55.6390 C.3       21 UNK         0.1400 
    116 CB        -4.8146  -24.3870  -54.3276 C.3       21 UNK        -0.1800 
    117 C         -3.0398  -23.3415  -55.7986 C.2       21 UNK         0.5000 
    118 O         -2.3322  -24.1860  -56.3495 O.2       21 UNK        -0.5000 
    119 N         -2.5785  -22.1664  -55.3456 N.am      22 UNK        -0.5000 
    120 CA        -1.2043  -21.6788  -55.5667 C.3       22 UNK         0.1400 
    121 C         -1.0282  -20.8104  -56.8494 C.2       22 UNK         0.5000 
    122 N         -2.0436  -20.6243  -57.6850 N.am      22 UNK        -0.7600 
    123 O          0.0643  -20.3154  -57.1137 O.2       22 UNK        -0.5000 
    124 C124       -0.5897  -21.0259  -54.3005 C.3       23 UNK        -0.0398 
    125 S125       -1.4604  -19.5451  -53.6812 S.3       23 UNK        -0.2404 
    126 C126       -0.6579  -19.3167  -52.0601 C.3       23 UNK        -0.0205 
    127 H127        0.6018  -10.0790  -50.0678 H         1 UNK         0.0600 
    128 H128        1.8846   -9.2523  -49.1792 H         1 UNK         0.0600 
    129 H129        0.4656   -9.8607  -48.3203 H         1 UNK         0.0600 
    130 H130        1.1577  -12.1632  -50.6177 H         1 UNK         0.3000 
    131 H131        3.4280  -13.4780  -49.5841 H         1 UNK         0.0600 
    132 H132        1.4143  -15.1502  -51.1009 H         1 UNK         0.0800 
    133 H133        1.9745  -13.7220  -51.9173 H         1 UNK         0.0800 
    134 H134        2.4625  -15.6476  -53.6116 H         1 UNK         0.0800 
    135 H135        4.0580  -16.3367  -53.7347 H         1 UNK         0.0800 
    136 H136        0.6145  -16.9950  -52.7061 H         1 UNK         0.1150 
    137 H137        1.3660  -21.0863  -51.7025 H         1 UNK         0.1150 
    138 H138        4.6444  -18.4349  -52.5003 H         1 UNK         0.1150 
    139 H139        4.4638  -21.3543  -52.8382 H         1 UNK         0.0800 
    140 H140        5.0570  -20.5880  -51.3860 H         1 UNK         0.0800 
    141 H141        3.3560  -20.6530  -49.2406 H         1 UNK         0.0800 
    142 H142        4.4859  -21.8797  -48.7347 H         1 UNK         0.0800 
    143 H143        2.4039  -23.4849  -48.6155 H         1 UNK         0.0600 
    144 H144        3.4074  -21.7175  -46.6049 H         1 UNK         0.3000 
    145 H145        1.7168  -23.3670  -43.9112 H         1 UNK         0.0600 
    146 H146        4.0458  -23.6781  -43.1659 H         1 UNK         0.0600 
    147 H147        3.7068  -24.7663  -44.5014 H         1 UNK         0.0600 
    148 H148        4.6540  -23.3098  -44.7801 H         1 UNK         0.0600 
    149 H149        3.5456  -21.3080  -43.6842 H         1 UNK         0.3000 
    150 H150        3.0162  -19.2925  -43.0968 H         1 UNK         0.0600 
    151 H151        2.5507  -18.3388  -45.4161 H         1 UNK         0.0600 
    152 H152        2.3325  -17.1975  -44.0995 H         1 UNK         0.0600 
    153 H153        0.9282  -17.9258  -44.8661 H         1 UNK         0.0600 
    154 H154        0.3510  -18.2986  -42.6062 H         1 UNK         0.3000 
    155 H155       -0.1621  -20.1386  -39.5601 H         1 UNK         0.0600 
    156 H156        0.3004  -17.1776  -40.1990 H         1 UNK         0.0600 
    157 H157       -0.5914  -17.8071  -38.8141 H         1 UNK         0.0600 
    158 H158        1.1297  -18.1187  -38.9693 H         1 UNK         0.0600 
    159 H159       -1.5585  -18.3188  -41.4399 H         1 UNK         0.3000 
    160 H160       -3.7806  -20.7437  -42.5782 H         1 UNK         0.0600 
    161 H161       -4.5680  -18.9811  -40.1963 H         1 UNK         0.0600 
    162 H162       -4.8239  -20.7175  -40.3221 H         1 UNK         0.0600 
    163 H163       -5.6735  -19.6302  -41.4083 H         1 UNK         0.0600 
    164 H164       -3.7433  -17.8134  -42.1960 H         1 UNK         0.3000 
    165 H165       -1.9562  -17.1759  -45.0986 H         1 UNK         0.0600 
    166 H166       -3.9108  -15.8756  -45.9765 H         1 UNK         0.0600 
    167 H167       -4.0534  -17.5841  -46.3312 H         1 UNK         0.0600 
    168 H168       -5.0072  -16.8810  -45.0297 H         1 UNK         0.0600 
    169 H169       -3.5433  -15.4077  -43.5644 H         1 UNK         0.3000 
    170 H170       -2.4620  -13.9656  -42.2065 H         1 UNK         0.0600 
    171 H171       -1.8817  -15.8860  -39.8643 H         1 UNK         0.0600 
    172 H172       -2.6414  -14.3030  -39.7367 H         1 UNK         0.0600 
    173 H173       -3.4796  -15.6100  -40.5451 H         1 UNK         0.0600 
    174 H174        0.2044  -14.8016  -42.0307 H         1 UNK         0.3000 
    175 H175        1.4526  -11.7352  -40.6643 H         1 UNK         0.0600 
    176 H176        3.0901  -13.2891  -39.6423 H         1 UNK         0.0600 
    177 H177        2.0022  -14.6540  -39.8999 H         1 UNK         0.0600 
    178 H178        1.5632  -13.3718  -38.7784 H         1 UNK         0.0600 
    179 H179        2.7009  -13.8485  -42.1283 H         1 UNK         0.3000 
    180 H180        3.1453  -11.9671  -44.8964 H         1 UNK         0.0600 
    181 H181        3.3973  -14.8315  -43.8157 H         1 UNK         0.0600 
    182 H182        4.4811  -13.4896  -43.4471 H         1 UNK         0.0600 
    183 H183        4.3735  -14.1067  -45.0842 H         1 UNK         0.0600 
    184 H184        1.8994  -12.8751  -46.4660 H         1 UNK         0.3000 
    185 H185        0.2092  -15.8772  -46.8666 H         1 UNK         0.0600 
    186 H186       -1.7347  -14.7151  -45.7380 H         1 UNK         0.0600 
    187 H187       -1.3985  -13.2725  -46.6772 H         1 UNK         0.0600 
    188 H188       -1.8932  -14.7617  -47.4864 H         1 UNK         0.0600 
    189 H189        0.2179  -13.4416  -48.4156 H         1 UNK         0.3000 
    190 H190        1.1560  -20.5041  -47.1873 H         1 UNK         0.3000 
    191 H191       -1.0325  -20.1443  -49.0563 H         1 UNK         0.0600 
    192 H192       -0.2046  -18.2198  -47.7707 H         1 UNK         0.0600 
    193 H193       -1.8679  -18.5584  -47.3040 H         1 UNK         0.0600 
    194 H194       -0.5577  -19.0362  -46.2471 H         1 UNK         0.0600 
    195 H195       -0.6906  -21.5585  -45.7620 H         1 UNK         0.3000 
    196 H196       -3.3366  -22.3753  -45.4110 H         1 UNK         0.0600 
    197 H197       -2.3968  -23.8482  -43.6347 H         1 UNK         0.0600 
    198 H198       -1.6539  -22.2556  -43.5960 H         1 UNK         0.0600 
    199 H199       -0.7752  -23.6196  -44.2814 H         1 UNK         0.0600 
    200 H200       -0.6073  -24.2126  -46.8446 H         1 UNK         0.3000 
    201 H201       -2.0030  -26.6136  -47.4291 H         1 UNK         0.0600 
    202 H202        0.4701  -26.4336  -47.4175 H         1 UNK         0.0600 
    203 H203        0.4258  -25.3296  -48.7917 H         1 UNK         0.0600 
    204 H204       -0.0769  -27.0057  -48.9859 H         1 UNK         0.0600 
    205 H205       -2.0129  -23.5104  -49.0520 H         1 UNK         0.3000 
    206 H206       -3.3965  -24.5329  -51.4628 H         1 UNK         0.0600 
    207 H207       -1.4731  -22.9323  -51.6968 H         1 UNK         0.0600 
    208 H208       -2.9702  -22.2670  -52.3354 H         1 UNK         0.0600 
    209 H209       -2.3761  -21.7389  -50.7667 H         1 UNK         0.0600 
    210 H210       -4.6276  -24.5306  -48.7238 H         1 UNK         0.3000 
    211 H211       -6.5875  -24.2397  -47.7521 H         1 UNK         0.0600 
    212 H212       -7.6593  -23.5131  -50.5298 H         1 UNK         0.0600 
    213 H213       -8.6109  -24.0553  -49.1554 H         1 UNK         0.0600 
    214 H214       -7.4626  -25.1502  -49.9073 H         1 UNK         0.0600 
    215 H215       -4.8840  -22.1904  -47.3965 H         1 UNK         0.3000 
    216 H216       -4.6550  -20.2078  -46.4650 H         1 UNK         0.0600 
    217 H217       -6.5292  -18.9451  -45.5116 H         1 UNK         0.0600 
    218 H218       -6.7187  -20.6521  -45.1480 H         1 UNK         0.0600 
    219 H219       -7.6991  -19.9007  -46.4074 H         1 UNK         0.0600 
    220 H220       -3.9964  -20.3506  -48.8872 H         1 UNK         0.3000 
    221 H221       -3.4187  -19.3087  -50.7490 H         1 UNK         0.0600 
    222 H222       -4.2392  -16.7514  -49.2723 H         1 UNK         0.0600 
    223 H223       -2.6621  -17.5347  -49.2003 H         1 UNK         0.0600 
    224 H224       -3.2163  -16.8249  -50.7006 H         1 UNK         0.0600 
    225 H225       -5.6582  -20.5817  -51.1861 H         1 UNK         0.3000 
    226 H226       -7.5529  -18.9095  -52.7019 H         1 UNK         0.0600 
    227 H227       -8.2505  -20.9976  -51.3989 H         1 UNK         0.0600 
    228 H228       -8.6927  -21.0384  -53.0948 H         1 UNK         0.0600 
    229 H229       -7.3073  -21.9630  -52.5298 H         1 UNK         0.0600 
    230 H230       -7.9547  -20.2755  -54.9745 H         1 UNK         0.3000 
    231 H231       -5.9140  -19.4546  -56.7378 H         1 UNK         0.0600 
    232 H232       -8.2620  -21.3768  -57.1783 H         1 UNK         0.0600 
    233 H233       -7.3383  -20.5898  -58.4522 H         1 UNK         0.0600 
    234 H234       -8.3107  -19.6221  -57.3576 H         1 UNK         0.0600 
    235 H235       -6.0014  -22.3059  -54.8767 H         1 UNK         0.3000 
    236 H236       -4.8384  -24.2783  -56.4696 H         1 UNK         0.0600 
    237 H237       -5.8442  -24.7418  -54.2795 H         1 UNK         0.0600 
    238 H238       -4.1662  -25.2592  -54.2329 H         1 UNK         0.0600 
    239 H239       -4.6412  -23.7496  -53.4609 H         1 UNK         0.0600 
    240 H240       -3.2212  -21.5087  -54.9228 H         1 UNK         0.3000 
    241 H241       -0.5711  -22.5457  -55.7627 H         1 UNK         0.0600 
    242 H242       -2.9505  -21.0518  -57.5285 H         1 UNK         0.3800 
    243 H243       -1.8988  -20.0677  -58.5122 H         1 UNK         0.3800 
    244 H244       -0.5559  -21.7645  -53.5007 H         1 UNK         0.0800 
    245 H245        0.4511  -20.7573  -54.4886 H         1 UNK         0.0800 
    246 H246       -1.1273  -18.4766  -51.5469 H         1 UNK         0.0800 
    247 H247       -0.8398  -20.1941  -51.4415 H         1 UNK         0.0800 
@<TRIPOS>BOND
     1    1    2 1    
     2    1  127 1    
     3    1  128 1    
     4    1  129 1    
     5    2    3 2    
     6    2    4 am   BACKBONE|DICT|INTERRES
     7    4    5 1    
     8    4  130 1    
     9    5    6 1    
    10    5   65 1    
    11    5  131 1    
    12    6    7 1    
    13    6  132 1    
    14    6  133 1    
    15    7    8 1    
    16    8    9 1    
    17    8  134 1    
    18    8  135 1    
    19    9   10 ar   
    20    9   14 ar   
    21   10   11 ar   
    22   10  136 1    
    23   11   12 ar   
    24   11  126 1    
    25   12   13 ar   
    26   12  137 1    
    27   13   14 ar   
    28   13   15 1    
    29   14  138 1    
    30   15   16 1    
    31   15  139 1    
    32   15  140 1    
    33   16   17 1    
    34   17   18 1    
    35   17  141 1    
    36   17  142 1    
    37   18   19 1    
    38   18   67 1    
    39   18  143 1    
    40   19   20 am   BACKBONE|DICT|INTERRES
    41   19  144 1    
    42   20   21 2    
    43   20   22 1    
    44   22   23 1    
    45   22   24 1    
    46   22  145 1    
    47   23  146 1    
    48   23  147 1    
    49   23  148 1    
    50   24   25 am   BACKBONE|DICT|INTERRES
    51   24  149 1    
    52   25   26 2    
    53   25   27 1    
    54   27   28 1    
    55   27   29 1    
    56   27  150 1    
    57   28  151 1    
    58   28  152 1    
    59   28  153 1    
    60   29   30 am   BACKBONE|DICT|INTERRES
    61   29  154 1    
    62   30   31 2    
    63   30   32 1    
    64   32   33 1    
    65   32   34 1    
    66   32  155 1    
    67   33  156 1    
    68   33  157 1    
    69   33  158 1    
    70   34   35 am   BACKBONE|DICT|INTERRES
    71   34  159 1    
    72   35   36 2    
    73   35   37 1    
    74   37   38 1    
    75   37   39 1    
    76   37  160 1    
    77   38  161 1    
    78   38  162 1    
    79   38  163 1    
    80   39   40 am   BACKBONE|DICT|INTERRES
    81   39  164 1    
    82   40   41 2    
    83   40   42 1    
    84   42   43 1    
    85   42   44 1    
    86   42  165 1    
    87   43  166 1    
    88   43  167 1    
    89   43  168 1    
    90   44   45 am   BACKBONE|DICT|INTERRES
    91   44  169 1    
    92   45   46 2    
    93   45   47 1    
    94   47   48 1    
    95   47   49 1    
    96   47  170 1    
    97   48  171 1    
    98   48  172 1    
    99   48  173 1    
   100   49   50 am   BACKBONE|DICT|INTERRES
   101   49  174 1    
   102   50   51 2    
   103   50   52 1    
   104   52   53 1    
   105   52   54 1    
   106   52  175 1    
   107   53  176 1    
   108   53  177 1    
   109   53  178 1    
   110   54   55 am   BACKBONE|DICT|INTERRES
   111   54  179 1    
   112   55   56 2    
   113   55   57 1    
   114   57   58 1    
   115   57   59 1    
   116   57  180 1    
   117   58  181 1    
   118   58  182 1    
   119   58  183 1    
   120   59   60 am   BACKBONE|DICT|INTERRES
   121   59  184 1    
   122   60   61 2    
   123   60   62 1    
   124   62   63 1    
   125   62   64 1    
   126   62  185 1    
   127   63  186 1    
   128   63  187 1    
   129   63  188 1    
   130   64   65 am   BACKBONE|DICT|INTERRES
   131   64  189 1    
   132   65   66 2    
   133   67   68 2    
   134   67   69 am   BACKBONE|DICT|INTERRES
   135   69   70 1    
   136   69  190 1    
   137   70   71 1    
   138   70   72 1    
   139   70  191 1    
   140   71  192 1    
   141   71  193 1    
   142   71  194 1    
   143   72   73 2    
   144   72   74 am   BACKBONE|DICT|INTERRES
   145   74   75 1    
   146   74  195 1    
   147   75   76 1    
   148   75   77 1    
   149   75  196 1    
   150   76  197 1    
   151   76  198 1    
   152   76  199 1    
   153   77   78 2    
   154   77   79 am   BACKBONE|DICT|INTERRES
   155   79   80 1    
   156   79  200 1    
   157   80   81 1    
   158   80   82 1    
   159   80  201 1    
   160   81  202 1    
   161   81  203 1    
   162   81  204 1    
   163   82   83 2    
   164   82   84 am   BACKBONE|DICT|INTERRES
   165   84   85 1    
   166   84  205 1    
   167   85   86 1    
   168   85   87 1    
   169   85  206 1    
   170   86  207 1    
   171   86  208 1    
   172   86  209 1    
   173   87   88 2    
   174   87   89 am   BACKBONE|DICT|INTERRES
   175   89   90 1    
   176   89  210 1    
   177   90   91 1    
   178   90   92 1    
   179   90  211 1    
   180   91  212 1    
   181   91  213 1    
   182   91  214 1    
   183   92   93 2    
   184   92   94 am   BACKBONE|DICT|INTERRES
   185   94   95 1    
   186   94  215 1    
   187   95   96 1    
   188   95   97 1    
   189   95  216 1    
   190   96  217 1    
   191   96  218 1    
   192   96  219 1    
   193   97   98 2    
   194   97   99 am   BACKBONE|DICT|INTERRES
   195   99  100 1    
   196   99  220 1    
   197  100  101 1    
   198  100  102 1    
   199  100  221 1    
   200  101  222 1    
   201  101  223 1    
   202  101  224 1    
   203  102  103 2    
   204  102  104 am   BACKBONE|DICT|INTERRES
   205  104  105 1    
   206  104  225 1    
   207  105  106 1    
   208  105  107 1    
   209  105  226 1    
   210  106  227 1    
   211  106  228 1    
   212  106  229 1    
   213  107  108 2    
   214  107  109 am   BACKBONE|DICT|INTERRES
   215  109  110 1    
   216  109  230 1    
   217  110  111 1    
   218  110  112 1    
   219  110  231 1    
   220  111  232 1    
   221  111  233 1    
   222  111  234 1    
   223  112  113 2    
   224  112  114 am   BACKBONE|DICT|INTERRES
   225  114  115 1    
   226  114  235 1    
   227  115  116 1    
   228  115  117 1    
   229  115  236 1    
   230  116  237 1    
   231  116  238 1    
   232  116  239 1    
   233  117  118 2    
   234  117  119 am   BACKBONE|DICT|INTERRES
   235  119  120 1    
   236  119  240 1    
   237  120  121 1    
   238  120  124 1    
   239  120  241 1    
   240  121  122 am   BACKBONE|DICT|INTERRES
   241  121  123 2    
   242  122  242 1    
   243  122  243 1    
   244  124  125 1    
   245  124  244 1    
   246  124  245 1    
   247  125  126 1    
   248  126  246 1    
   249  126  247 1    
@<TRIPOS>SUBSTRUCTURE
     1 UNK         1 GROUP             0       ****    0 ROOT    
