@<TRIPOS>MOLECULE
3R540
247   249    1
SMALL
USER_CHARGES


@<TRIPOS>ATOM
      1 CA         -5.3524   -7.6627  -47.0529 C.3       0 UNK        -0.1800 
      2 C          -5.3855   -9.1664  -46.8174 C.2       0 UNK         0.5000 
      3 O          -6.4410   -9.7150  -46.5002 O.2       0 UNK        -0.5000 
      4 N          -4.2382   -9.8329  -46.9707 N.am      1 UNK        -0.5000 
      5 CA         -4.0622  -11.2752  -46.8214 C.3       1 UNK         0.1400 
      6 C6         -3.9724  -11.7047  -45.3282 C.3       23 UNK        -0.0398 
      7 S7         -4.6693  -13.3645  -45.0416 S.3       23 UNK        -0.2404 
      8 C8         -3.1808  -14.3659  -44.7211 C.3       23 UNK        -0.0205 
      9 C9         -3.4584  -15.8379  -44.9872 C.ar      23 UNK        -0.0193 
     10 C10        -3.7417  -16.2558  -46.2882 C.ar      23 UNK        -0.1150 
     11 C11        -4.0570  -17.5864  -46.5593 C.ar      23 UNK        -0.0193 
     12 C12        -4.0725  -18.5156  -45.5146 C.ar      23 UNK        -0.1150 
     13 C13        -3.7666  -18.1193  -44.2072 C.ar      23 UNK        -0.0193 
     14 C14        -3.4615  -16.7769  -43.9506 C.ar      23 UNK        -0.1150 
     15 C15        -3.8203  -19.1217  -43.0601 C.3       23 UNK        -0.0205 
     16 S16        -2.3033  -20.1253  -42.9221 S.3       23 UNK        -0.2404 
     17 C17        -2.6014  -21.4366  -44.1586 C.3       23 UNK        -0.0398 
     18 CA         -1.6528  -21.2910  -45.3743 C.3       11 UNK         0.1400 
     19 N          -0.2504  -21.5929  -45.0564 N.am      11 UNK        -0.5000 
     20 C           0.2669  -22.8055  -44.7968 C.2       10 UNK         0.5000 
     21 O          -0.3941  -23.8345  -44.6672 O.2       10 UNK        -0.5000 
     22 CA          1.7909  -22.8772  -44.6602 C.3       10 UNK         0.1400 
     23 CB          2.4792  -22.5949  -46.0070 C.3       10 UNK        -0.1800 
     24 N           2.2601  -21.9190  -43.6705 N.am      10 UNK        -0.5000 
     25 C           2.4337  -22.1819  -42.3696 C.2       9 UNK         0.5000 
     26 O           2.1814  -23.2712  -41.8512 O.2       9 UNK        -0.5000 
     27 CA          3.0081  -21.0292  -41.5192 C.3       9 UNK         0.1400 
     28 CB          3.6805  -21.5093  -40.2165 C.3       9 UNK        -0.1800 
     29 N           3.9098  -20.1637  -42.2880 N.am      9 UNK        -0.5000 
     30 C           5.0560  -20.5064  -42.9000 C.2       8 UNK         0.5000 
     31 O           5.5761  -21.6192  -42.8113 O.2       8 UNK        -0.5000 
     32 CA          5.7204  -19.4433  -43.8000 C.3       8 UNK         0.1400 
     33 CB          5.5610  -19.8337  -45.2784 C.3       8 UNK        -0.1800 
     34 N           5.1768  -18.0972  -43.6107 N.am      8 UNK        -0.5000 
     35 C           5.3995  -17.3286  -42.5359 C.2       7 UNK         0.5000 
     36 O           6.1722  -17.6307  -41.6260 O.2       7 UNK        -0.5000 
     37 CA          4.5845  -16.0269  -42.4407 C.3       7 UNK         0.1400 
     38 CB          5.3080  -14.8862  -43.1719 C.3       7 UNK        -0.1800 
     39 N           3.2232  -16.1606  -42.9683 N.am      7 UNK        -0.5000 
     40 C           2.2677  -16.9532  -42.4602 C.2       6 UNK         0.5000 
     41 O           2.4314  -17.6732  -41.4766 O.2       6 UNK        -0.5000 
     42 CA          0.9182  -16.9798  -43.1981 C.3       6 UNK         0.1400 
     43 CB          0.0888  -15.7294  -42.8712 C.3       6 UNK        -0.1800 
     44 N           1.0991  -17.0828  -44.6436 N.am      6 UNK        -0.5000 
     45 C           1.4781  -18.1948  -45.2873 C.2       5 UNK         0.5000 
     46 O           1.6482  -19.2873  -44.7425 O.2       5 UNK        -0.5000 
     47 CA          1.7258  -18.0607  -46.7987 C.3       5 UNK         0.1400 
     48 CB          0.4397  -18.3609  -47.5818 C.3       5 UNK        -0.1800 
     49 N           2.2261  -16.7340  -47.1622 N.am      5 UNK        -0.5000 
     50 C           3.4702  -16.3056  -46.9009 C.2       4 UNK         0.5000 
     51 O           4.3192  -16.9884  -46.3283 O.2       4 UNK        -0.5000 
     52 CA          3.8110  -14.8574  -47.3034 C.3       4 UNK         0.1400 
     53 CB          4.2242  -14.7902  -48.7810 C.3       4 UNK        -0.1800 
     54 N           2.7114  -13.9214  -47.0651 N.am      4 UNK        -0.5000 
     55 C           2.1899  -13.6564  -45.8600 C.2       3 UNK         0.5000 
     56 O           2.6188  -14.1380  -44.8141 O.2       3 UNK        -0.5000 
     57 CA          0.9556  -12.7411  -45.8033 C.3       3 UNK         0.1400 
     58 CB          1.3719  -11.2939  -45.5044 C.3       3 UNK        -0.1800 
     59 N           0.1124  -12.7573  -46.9999 N.am      3 UNK        -0.5000 
     60 C          -0.4661  -13.8307  -47.5538 C.2       2 UNK         0.5000 
     61 O          -0.2469  -14.9883  -47.1941 O.2       2 UNK        -0.5000 
     62 CA         -1.5151  -13.5294  -48.6432 C.3       2 UNK         0.1400 
     63 CB         -1.9103  -14.7806  -49.4478 C.3       2 UNK        -0.1800 
     64 N          -2.7113  -12.9333  -48.0379 N.am      2 UNK        -0.5000 
     65 C          -2.8007  -11.6665  -47.6106 C.2       1 UNK         0.5000 
     66 O          -1.9122  -10.8262  -47.7893 O.2       1 UNK        -0.5000 
     67 C          -2.1118  -22.1166  -46.5965 C.2       11 UNK         0.5000 
     68 O          -2.8556  -23.0923  -46.4622 O.2       11 UNK        -0.5000 
     69 N          -1.6114  -21.7212  -47.7752 N.am      12 UNK        -0.5000 
     70 CA         -1.7599  -22.4102  -49.0595 C.3       12 UNK         0.1400 
     71 CB         -0.9743  -21.6507  -50.1367 C.3       12 UNK        -0.1800 
     72 C          -3.2047  -22.6979  -49.5104 C.2       12 UNK         0.5000 
     73 O          -3.3982  -23.6114  -50.3100 O.2       12 UNK        -0.5000 
     74 N          -4.2004  -21.9860  -48.9629 N.am      13 UNK        -0.5000 
     75 CA         -5.6251  -22.3063  -49.1103 C.3       13 UNK         0.1400 
     76 CB         -6.4816  -21.2462  -48.4060 C.3       13 UNK        -0.1800 
     77 C          -5.9933  -23.7206  -48.6227 C.2       13 UNK         0.5000 
     78 O          -6.8412  -24.3682  -49.2371 O.2       13 UNK        -0.5000 
     79 N          -5.3216  -24.1815  -47.5608 N.am      14 UNK        -0.5000 
     80 CA         -5.4272  -25.5431  -47.0498 C.3       14 UNK         0.1400 
     81 CB         -5.3449  -25.5156  -45.5149 C.3       14 UNK        -0.1800 
     82 C          -4.3202  -26.4325  -47.6375 C.2       14 UNK         0.5000 
     83 O          -4.6099  -27.5393  -48.0922 O.2       14 UNK        -0.5000 
     84 N          -3.0718  -25.9439  -47.6045 N.am      15 UNK        -0.5000 
     85 CA         -1.8806  -26.7444  -47.9008 C.3       15 UNK         0.1400 
     86 CB         -0.6494  -26.0704  -47.2763 C.3       15 UNK        -0.1800 
     87 C          -1.6404  -27.0454  -49.3933 C.2       15 UNK         0.5000 
     88 O          -0.9947  -28.0508  -49.6929 O.2       15 UNK        -0.5000 
     89 N          -2.1292  -26.1863  -50.2972 N.am      16 UNK        -0.5000 
     90 CA         -1.8760  -26.2693  -51.7407 C.3       16 UNK         0.1400 
     91 CB         -0.7982  -25.2354  -52.1138 C.3       16 UNK        -0.1800 
     92 C          -3.1515  -26.0801  -52.5845 C.2       16 UNK         0.5000 
     93 O          -3.0476  -25.9608  -53.8060 O.2       16 UNK        -0.5000 
     94 N          -4.3241  -26.0550  -51.9321 N.am      17 UNK        -0.5000 
     95 CA         -5.6516  -25.8124  -52.5108 C.3       17 UNK         0.1400 
     96 CB         -6.0684  -26.9710  -53.4416 C.3       17 UNK        -0.1800 
     97 C          -5.7835  -24.4207  -53.1720 C.2       17 UNK         0.5000 
     98 O          -6.4209  -24.2878  -54.2183 O.2       17 UNK        -0.5000 
     99 N          -5.1900  -23.4096  -52.5238 N.am      18 UNK        -0.5000 
    100 CA        -5.1710  -21.9926  -52.8863 C.3       18 UNK         0.1400 
    101 CB        -6.5944  -21.3858  -52.9196 C.3       18 UNK        -0.1800 
    102 C         -4.3367  -21.7319  -54.1514 C.2       18 UNK         0.5000 
    103 O         -3.1119  -21.8464  -54.0878 O.2       18 UNK        -0.5000 
    104 N         -4.9996  -21.3325  -55.2465 N.am      19 UNK        -0.5000 
    105 CA        -4.4174  -20.8132  -56.4877 C.3       19 UNK         0.1400 
    106 CB        -3.6044  -21.9055  -57.2186 C.3       19 UNK        -0.1800 
    107 C         -3.6284  -19.5095  -56.2316 C.2       19 UNK         0.5000 
    108 O         -3.9533  -18.7734  -55.2956 O.2       19 UNK        -0.5000 
    109 N         -2.5986  -19.2375  -57.0430 N.am      20 UNK        -0.5000 
    110 CA        -1.7519  -18.0407  -56.9595 C.3       20 UNK         0.1400 
    111 CB        -0.7842  -18.0377  -58.1532 C.3       20 UNK        -0.1800 
    112 C         -0.9731  -17.8920  -55.6338 C.2       20 UNK         0.5000 
    113 O         -0.5220  -16.7902  -55.3191 O.2       20 UNK        -0.5000 
    114 N         -0.8319  -18.9919  -54.8825 N.am      21 UNK        -0.5000 
    115 CA        -0.1613  -19.0404  -53.5864 C.3       21 UNK         0.1400 
    116 CB         0.2451  -20.4935  -53.2983 C.3       21 UNK        -0.1800 
    117 C         -0.9954  -18.4616  -52.4246 C.2       21 UNK         0.5000 
    118 O         -0.4048  -18.1358  -51.3950 O.2       21 UNK        -0.5000 
    119 N         -2.3227  -18.3394  -52.5855 N.am      22 UNK        -0.5000 
    120 CA        -3.2227  -17.8110  -51.5420 C.3       22 UNK         0.1400 
    121 C         -4.4235  -16.9749  -52.0661 C.2       22 UNK         0.5000 
    122 N         -4.7532  -16.9754  -53.3507 N.am      22 UNK        -0.7600 
    123 O         -5.0700  -16.2859  -51.2827 O.2       22 UNK        -0.5000 
    124 C124       -3.6737  -18.9108  -50.5332 C.3       23 UNK        -0.0398 
    125 S125       -2.9833  -18.6658  -48.8603 S.3       23 UNK        -0.2404 
    126 C126       -4.4198  -17.9978  -47.9753 C.3       23 UNK        -0.0205 
    127 H127       -4.3545   -7.3169  -47.3239 H         1 UNK         0.0600 
    128 H128       -5.6616   -7.1347  -46.1508 H         1 UNK         0.0600 
    129 H129       -6.0359   -7.3936  -47.8582 H         1 UNK         0.0600 
    130 H130       -3.3954   -9.3541  -47.2669 H         1 UNK         0.3000 
    131 H131       -4.9162  -11.7603  -47.2999 H         1 UNK         0.0600 
    132 H132       -4.5578  -11.0264  -44.7063 H         1 UNK         0.0800 
    133 H133       -2.9536  -11.6391  -44.9407 H         1 UNK         0.0800 
    134 H134       -2.3598  -14.0402  -45.3585 H         1 UNK         0.0800 
    135 H135       -2.8576  -14.2066  -43.6914 H         1 UNK         0.0800 
    136 H136       -3.7525  -15.5317  -47.0874 H         1 UNK         0.1150 
    137 H137       -4.3367  -19.5420  -45.7208 H         1 UNK         0.1150 
    138 H138       -3.2461  -16.4600  -42.9400 H         1 UNK         0.1150 
    139 H139       -3.9619  -18.5918  -42.1170 H         1 UNK         0.0800 
    140 H140       -4.6927  -19.7679  -43.1662 H         1 UNK         0.0800 
    141 H141       -3.6456  -21.4035  -44.4712 H         1 UNK         0.0800 
    142 H142       -2.4721  -22.4074  -43.6783 H         1 UNK         0.0800 
    143 H143       -1.6794  -20.2457  -45.6876 H         1 UNK         0.0600 
    144 H144        0.3836  -20.8013  -45.0582 H         1 UNK         0.3000 
    145 H145        2.0600  -23.8903  -44.3530 H         1 UNK         0.0600 
    146 H146        3.5602  -22.7098  -45.9244 H         1 UNK         0.0600 
    147 H147        2.1353  -23.2903  -46.7738 H         1 UNK         0.0600 
    148 H148        2.2804  -21.5844  -46.3661 H         1 UNK         0.0600 
    149 H149        2.4045  -20.9681  -43.9935 H         1 UNK         0.3000 
    150 H150        2.1551  -20.4095  -41.2400 H         1 UNK         0.0600 
    151 H151        2.9659  -22.0280  -39.5765 H         1 UNK         0.0600 
    152 H152        4.0752  -20.6689  -39.6455 H         1 UNK         0.0600 
    153 H153        4.5024  -22.1982  -40.4127 H         1 UNK         0.0600 
    154 H154        3.5838  -19.2114  -42.3969 H         1 UNK         0.3000 
    155 H155        6.7855  -19.4264  -43.5603 H         1 UNK         0.0600 
    156 H156        4.5123  -19.8486  -45.5785 H         1 UNK         0.0600 
    157 H157        5.9718  -20.8255  -45.4712 H         1 UNK         0.0600 
    158 H158        6.0859  -19.1345  -45.9294 H         1 UNK         0.0600 
    159 H159        4.5828  -17.7410  -44.3512 H         1 UNK         0.3000 
    160 H160        4.5073  -15.7613  -41.3845 H         1 UNK         0.0600 
    161 H161        5.3780  -15.0776  -44.2433 H         1 UNK         0.0600 
    162 H162        6.3225  -14.7579  -42.7924 H         1 UNK         0.0600 
    163 H163        4.7878  -13.9381  -43.0347 H         1 UNK         0.0600 
    164 H164        2.9890  -15.5535  -43.7515 H         1 UNK         0.3000 
    165 H165        0.3597  -17.8555  -42.8591 H         1 UNK         0.0600 
    166 H166       -0.8539  -15.7334  -43.4150 H         1 UNK         0.0600 
    167 H167       -0.1471  -15.6875  -41.8073 H         1 UNK         0.0600 
    168 H168        0.6160  -14.8103  -43.1260 H         1 UNK         0.0600 
    169 H169        0.9780  -16.2376  -45.1836 H         1 UNK         0.3000 
    170 H170        2.4766  -18.8018  -47.0812 H         1 UNK         0.0600 
    171 H171        0.0948  -19.3751  -47.3852 H         1 UNK         0.0600 
    172 H172       -0.3695  -17.6815  -47.3101 H         1 UNK         0.0600 
    173 H173        0.5987  -18.2758  -48.6571 H         1 UNK         0.0600 
    174 H174        1.5499  -16.0885  -47.5539 H         1 UNK         0.3000 
    175 H175        4.6602  -14.5368  -46.6963 H         1 UNK         0.0600 
    176 H176        3.4036  -15.0711  -49.4425 H         1 UNK         0.0600 
    177 H177        4.5483  -13.7860  -49.0548 H         1 UNK         0.0600 
    178 H178        5.0561  -15.4658  -48.9843 H         1 UNK         0.0600 
    179 H179        2.2916  -13.4888  -47.8743 H         1 UNK         0.3000 
    180 H180        0.3371  -13.0926  -44.9752 H         1 UNK         0.0600 
    181 H181        1.9599  -10.8693  -46.3191 H         1 UNK         0.0600 
    182 H182        1.9768  -11.2391  -44.5982 H         1 UNK         0.0600 
    183 H183        0.5008  -10.6564  -45.3510 H         1 UNK         0.0600 
    184 H184       -0.1906  -11.8509  -47.3401 H         1 UNK         0.3000 
    185 H185       -1.0761  -12.8147  -49.3426 H         1 UNK         0.0600 
    186 H186       -2.3134  -15.5697  -48.8147 H         1 UNK         0.0600 
    187 H187       -2.6574  -14.5447  -50.2058 H         1 UNK         0.0600 
    188 H188       -1.0447  -15.1980  -49.9640 H         1 UNK         0.0600 
    189 H189       -3.4752  -13.5640  -47.8456 H         1 UNK         0.3000 
    190 H190       -1.0231  -20.9020  -47.7930 H         1 UNK         0.3000 
    191 H191       -1.2891  -23.3871  -48.9520 H         1 UNK         0.0600 
    192 H192        0.0993  -21.7324  -49.9669 H         1 UNK         0.0600 
    193 H193       -1.1755  -22.0499  -51.1303 H         1 UNK         0.0600 
    194 H194       -1.2218  -20.5913  -50.1555 H         1 UNK         0.0600 
    195 H195       -3.9591  -21.2474  -48.3194 H         1 UNK         0.3000 
    196 H196       -5.8697  -22.2701  -50.1686 H         1 UNK         0.0600 
    197 H197       -7.5298  -21.5467  -48.3697 H         1 UNK         0.0600 
    198 H198       -6.4472  -20.3023  -48.9475 H         1 UNK         0.0600 
    199 H199       -6.1541  -21.0733  -47.3802 H         1 UNK         0.0600 
    200 H200       -4.6003  -23.6007  -47.1440 H         1 UNK         0.3000 
    201 H201       -6.3916  -25.9764  -47.3240 H         1 UNK         0.0600 
    202 H202       -6.1609  -24.9312  -45.0895 H         1 UNK         0.0600 
    203 H203       -4.4072  -25.0819  -45.1645 H         1 UNK         0.0600 
    204 H204       -5.4163  -26.5226  -45.1020 H         1 UNK         0.0600 
    205 H205       -2.9180  -25.0275  -47.1978 H         1 UNK         0.3000 
    206 H206       -2.0011  -27.7112  -47.4068 H         1 UNK         0.0600 
    207 H207       -0.4971  -25.0602  -47.6526 H         1 UNK         0.0600 
    208 H208       -0.7489  -26.0111  -46.1928 H         1 UNK         0.0600 
    209 H209        0.2587  -26.6379  -47.4839 H         1 UNK         0.0600 
    210 H210       -2.6451  -25.3675  -49.9915 H         1 UNK         0.3000 
    211 H211       -1.4982  -27.2599  -52.0010 H         1 UNK         0.0600 
    212 H212       -1.1586  -24.2177  -51.9685 H         1 UNK         0.0600 
    213 H213       -0.5051  -25.3314  -53.1599 H         1 UNK         0.0600 
    214 H214        0.1019  -25.3643  -51.5126 H         1 UNK         0.0600 
    215 H215       -4.3002  -26.1736  -50.9297 H         1 UNK         0.3000 
    216 H216       -6.3474  -25.8074  -51.6706 H         1 UNK         0.0600 
    217 H217       -7.1080  -26.8654  -53.7539 H         1 UNK         0.0600 
    218 H218       -5.9789  -27.9333  -52.9376 H         1 UNK         0.0600 
    219 H219       -5.4593  -27.0067  -54.3451 H         1 UNK         0.0600 
    220 H220       -4.6096  -23.6477  -51.7230 H         1 UNK         0.3000 
    221 H221       -4.6342  -21.4909  -52.0818 H         1 UNK         0.0600 
    222 H222       -7.2212  -21.8279  -53.6940 H         1 UNK         0.0600 
    223 H223       -7.1086  -21.5267  -51.9697 H         1 UNK         0.0600 
    224 H224       -6.5538  -20.3108  -53.1016 H         1 UNK         0.0600 
    225 H225       -6.0049  -21.2624  -55.1796 H         1 UNK         0.3000 
    226 H226       -5.2579  -20.5397  -57.1267 H         1 UNK         0.0600 
    227 H227       -4.1778  -22.8293  -57.2990 H         1 UNK         0.0600 
    228 H228       -3.3524  -21.6003  -58.2346 H         1 UNK         0.0600 
    229 H229       -2.6732  -22.1397  -56.7016 H         1 UNK         0.0600 
    230 H230       -2.3790  -19.8913  -57.7806 H         1 UNK         0.3000 
    231 H231       -2.4037  -17.1690  -57.0462 H         1 UNK         0.0600 
    232 H232       -0.1214  -18.9037  -58.1347 H         1 UNK         0.0600 
    233 H233       -0.1576  -17.1447  -58.1480 H         1 UNK         0.0600 
    234 H234       -1.3243  -18.0467  -59.1002 H         1 UNK         0.0600 
    235 H235       -1.2486  -19.8525  -55.2077 H         1 UNK         0.3000 
    236 H236        0.7528  -18.4461  -53.6506 H         1 UNK         0.0600 
    237 H237        0.9219  -20.8724  -54.0641 H         1 UNK         0.0600 
    238 H238        0.7626  -20.5742  -52.3416 H         1 UNK         0.0600 
    239 H239       -0.6219  -21.1530  -53.2634 H         1 UNK         0.0600 
    240 H240       -2.7430  -18.6002  -53.4680 H         1 UNK         0.3000 
    241 H241       -2.6485  -17.0608  -50.9963 H         1 UNK         0.0600 
    242 H242       -4.3180  -17.5857  -54.0392 H         1 UNK         0.3800 
    243 H243       -5.5302  -16.4038  -53.6409 H         1 UNK         0.3800 
    244 H244       -3.3540  -19.8930  -50.8784 H         1 UNK         0.0800 
    245 H245       -4.7602  -18.9879  -50.4600 H         1 UNK         0.0800 
    246 H246       -5.2152  -18.7382  -47.9421 H         1 UNK         0.0800 
    247 H247       -4.8167  -17.1439  -48.5271 H         1 UNK         0.0800 
@<TRIPOS>BOND
     1    1    2 1    
     2    1  127 1    
     3    1  128 1    
     4    1  129 1    
     5    2    3 2    
     6    2    4 am   BACKBONE|DICT|INTERRES
     7    4    5 1    
     8    4  130 1    
     9    5    6 1    
    10    5   65 1    
    11    5  131 1    
    12    6    7 1    
    13    6  132 1    
    14    6  133 1    
    15    7    8 1    
    16    8    9 1    
    17    8  134 1    
    18    8  135 1    
    19    9   10 ar   
    20    9   14 ar   
    21   10   11 ar   
    22   10  136 1    
    23   11   12 ar   
    24   11  126 1    
    25   12   13 ar   
    26   12  137 1    
    27   13   14 ar   
    28   13   15 1    
    29   14  138 1    
    30   15   16 1    
    31   15  139 1    
    32   15  140 1    
    33   16   17 1    
    34   17   18 1    
    35   17  141 1    
    36   17  142 1    
    37   18   19 1    
    38   18   67 1    
    39   18  143 1    
    40   19   20 am   BACKBONE|DICT|INTERRES
    41   19  144 1    
    42   20   21 2    
    43   20   22 1    
    44   22   23 1    
    45   22   24 1    
    46   22  145 1    
    47   23  146 1    
    48   23  147 1    
    49   23  148 1    
    50   24   25 am   BACKBONE|DICT|INTERRES
    51   24  149 1    
    52   25   26 2    
    53   25   27 1    
    54   27   28 1    
    55   27   29 1    
    56   27  150 1    
    57   28  151 1    
    58   28  152 1    
    59   28  153 1    
    60   29   30 am   BACKBONE|DICT|INTERRES
    61   29  154 1    
    62   30   31 2    
    63   30   32 1    
    64   32   33 1    
    65   32   34 1    
    66   32  155 1    
    67   33  156 1    
    68   33  157 1    
    69   33  158 1    
    70   34   35 am   BACKBONE|DICT|INTERRES
    71   34  159 1    
    72   35   36 2    
    73   35   37 1    
    74   37   38 1    
    75   37   39 1    
    76   37  160 1    
    77   38  161 1    
    78   38  162 1    
    79   38  163 1    
    80   39   40 am   BACKBONE|DICT|INTERRES
    81   39  164 1    
    82   40   41 2    
    83   40   42 1    
    84   42   43 1    
    85   42   44 1    
    86   42  165 1    
    87   43  166 1    
    88   43  167 1    
    89   43  168 1    
    90   44   45 am   BACKBONE|DICT|INTERRES
    91   44  169 1    
    92   45   46 2    
    93   45   47 1    
    94   47   48 1    
    95   47   49 1    
    96   47  170 1    
    97   48  171 1    
    98   48  172 1    
    99   48  173 1    
   100   49   50 am   BACKBONE|DICT|INTERRES
   101   49  174 1    
   102   50   51 2    
   103   50   52 1    
   104   52   53 1    
   105   52   54 1    
   106   52  175 1    
   107   53  176 1    
   108   53  177 1    
   109   53  178 1    
   110   54   55 am   BACKBONE|DICT|INTERRES
   111   54  179 1    
   112   55   56 2    
   113   55   57 1    
   114   57   58 1    
   115   57   59 1    
   116   57  180 1    
   117   58  181 1    
   118   58  182 1    
   119   58  183 1    
   120   59   60 am   BACKBONE|DICT|INTERRES
   121   59  184 1    
   122   60   61 2    
   123   60   62 1    
   124   62   63 1    
   125   62   64 1    
   126   62  185 1    
   127   63  186 1    
   128   63  187 1    
   129   63  188 1    
   130   64   65 am   BACKBONE|DICT|INTERRES
   131   64  189 1    
   132   65   66 2    
   133   67   68 2    
   134   67   69 am   BACKBONE|DICT|INTERRES
   135   69   70 1    
   136   69  190 1    
   137   70   71 1    
   138   70   72 1    
   139   70  191 1    
   140   71  192 1    
   141   71  193 1    
   142   71  194 1    
   143   72   73 2    
   144   72   74 am   BACKBONE|DICT|INTERRES
   145   74   75 1    
   146   74  195 1    
   147   75   76 1    
   148   75   77 1    
   149   75  196 1    
   150   76  197 1    
   151   76  198 1    
   152   76  199 1    
   153   77   78 2    
   154   77   79 am   BACKBONE|DICT|INTERRES
   155   79   80 1    
   156   79  200 1    
   157   80   81 1    
   158   80   82 1    
   159   80  201 1    
   160   81  202 1    
   161   81  203 1    
   162   81  204 1    
   163   82   83 2    
   164   82   84 am   BACKBONE|DICT|INTERRES
   165   84   85 1    
   166   84  205 1    
   167   85   86 1    
   168   85   87 1    
   169   85  206 1    
   170   86  207 1    
   171   86  208 1    
   172   86  209 1    
   173   87   88 2    
   174   87   89 am   BACKBONE|DICT|INTERRES
   175   89   90 1    
   176   89  210 1    
   177   90   91 1    
   178   90   92 1    
   179   90  211 1    
   180   91  212 1    
   181   91  213 1    
   182   91  214 1    
   183   92   93 2    
   184   92   94 am   BACKBONE|DICT|INTERRES
   185   94   95 1    
   186   94  215 1    
   187   95   96 1    
   188   95   97 1    
   189   95  216 1    
   190   96  217 1    
   191   96  218 1    
   192   96  219 1    
   193   97   98 2    
   194   97   99 am   BACKBONE|DICT|INTERRES
   195   99  100 1    
   196   99  220 1    
   197  100  101 1    
   198  100  102 1    
   199  100  221 1    
   200  101  222 1    
   201  101  223 1    
   202  101  224 1    
   203  102  103 2    
   204  102  104 am   BACKBONE|DICT|INTERRES
   205  104  105 1    
   206  104  225 1    
   207  105  106 1    
   208  105  107 1    
   209  105  226 1    
   210  106  227 1    
   211  106  228 1    
   212  106  229 1    
   213  107  108 2    
   214  107  109 am   BACKBONE|DICT|INTERRES
   215  109  110 1    
   216  109  230 1    
   217  110  111 1    
   218  110  112 1    
   219  110  231 1    
   220  111  232 1    
   221  111  233 1    
   222  111  234 1    
   223  112  113 2    
   224  112  114 am   BACKBONE|DICT|INTERRES
   225  114  115 1    
   226  114  235 1    
   227  115  116 1    
   228  115  117 1    
   229  115  236 1    
   230  116  237 1    
   231  116  238 1    
   232  116  239 1    
   233  117  118 2    
   234  117  119 am   BACKBONE|DICT|INTERRES
   235  119  120 1    
   236  119  240 1    
   237  120  121 1    
   238  120  124 1    
   239  120  241 1    
   240  121  122 am   BACKBONE|DICT|INTERRES
   241  121  123 2    
   242  122  242 1    
   243  122  243 1    
   244  124  125 1    
   245  124  244 1    
   246  124  245 1    
   247  125  126 1    
   248  126  246 1    
   249  126  247 1    
@<TRIPOS>SUBSTRUCTURE
     1 UNK         1 GROUP             0       ****    0 ROOT    
