@<TRIPOS>MOLECULE
3R540
247   249    1
SMALL
USER_CHARGES


@<TRIPOS>ATOM
      1 CA         -1.6796  -15.2926  -50.5172 C.3       0 UNK        -0.1800 
      2 C          -0.6420  -14.7101  -49.5690 C.2       0 UNK         0.5000 
      3 O          -0.7129  -13.5291  -49.2298 O.2       0 UNK        -0.5000 
      4 N           0.3104  -15.5382  -49.1204 N.am      1 UNK        -0.5000 
      5 CA          1.3981  -15.1541  -48.2063 C.3       1 UNK         0.1400 
      6 C6          2.6078  -16.1177  -48.3070 C.3       23 UNK        -0.0398 
      7 S7          3.4121  -16.0035  -49.9400 S.3       23 UNK        -0.2404 
      8 C8          4.4743  -17.4892  -49.9404 C.3       23 UNK        -0.0205 
      9 C9          3.7172  -18.8105  -50.0569 C.ar      23 UNK        -0.0193 
     10 C10         2.5537  -18.9195  -50.8273 C.ar      23 UNK        -0.1150 
     11 C11         1.8665  -20.1335  -50.9238 C.ar      23 UNK        -0.0193 
     12 C12         2.3793  -21.2542  -50.2686 C.ar      23 UNK        -0.1150 
     13 C13         3.5468  -21.1731  -49.5064 C.ar      23 UNK        -0.0193 
     14 C14         4.2144  -19.9472  -49.4111 C.ar      23 UNK        -0.1150 
     15 C15         4.0753  -22.4324  -48.8242 C.3       23 UNK        -0.0205 
     16 S16         4.6636  -22.1975  -47.1118 S.3       23 UNK        -0.2404 
     17 C17         3.2826  -21.3295  -46.2972 C.3       23 UNK        -0.0398 
     18 CA          2.0141  -22.2009  -46.0760 C.3       11 UNK         0.1400 
     19 N           1.4478  -21.9968  -44.7427 N.am      11 UNK        -0.5000 
     20 C           0.6034  -22.8310  -44.1221 C.2       10 UNK         0.5000 
     21 O           0.3031  -23.9447  -44.5505 O.2       10 UNK        -0.5000 
     22 CA         -0.0357  -22.3221  -42.8130 C.3       10 UNK         0.1400 
     23 CB          0.7717  -22.7976  -41.5962 C.3       10 UNK        -0.1800 
     24 N          -0.1607  -20.8632  -42.7638 N.am      10 UNK        -0.5000 
     25 C          -0.9232  -20.1338  -43.5903 C.2       9 UNK         0.5000 
     26 O          -1.6725  -20.6204  -44.4359 O.2       9 UNK        -0.5000 
     27 CA         -0.7649  -18.6057  -43.5093 C.3       9 UNK         0.1400 
     28 CB         -1.6717  -18.0138  -42.4224 C.3       9 UNK        -0.1800 
     29 N           0.6249  -18.1931  -43.2899 N.am      9 UNK        -0.5000 
     30 C           1.6196  -18.3954  -44.1667 C.2       8 UNK         0.5000 
     31 O           1.4493  -18.8978  -45.2755 O.2       8 UNK        -0.5000 
     32 CA          3.0466  -18.0323  -43.7290 C.3       8 UNK         0.1400 
     33 CB          3.3932  -16.5994  -44.1306 C.3       8 UNK        -0.1800 
     34 N           3.2284  -18.1913  -42.2902 N.am      8 UNK        -0.5000 
     35 C           3.4905  -19.3636  -41.6984 C.2       7 UNK         0.5000 
     36 O           3.6522  -20.4184  -42.3128 O.2       7 UNK        -0.5000 
     37 CA          3.5433  -19.3607  -40.1594 C.3       7 UNK         0.1400 
     38 CB          4.9382  -18.9492  -39.6655 C.3       7 UNK        -0.1800 
     39 N           2.5388  -18.4799  -39.5604 N.am      7 UNK        -0.5000 
     40 C           1.2155  -18.6621  -39.6644 C.2       6 UNK         0.5000 
     41 O           0.7017  -19.6102  -40.2581 O.2       6 UNK        -0.5000 
     42 CA          0.3123  -17.5877  -39.0325 C.3       6 UNK         0.1400 
     43 CB          0.0057  -17.9430  -37.5701 C.3       6 UNK        -0.1800 
     44 N           0.8443  -16.2229  -39.0935 N.am      6 UNK        -0.5000 
     45 C           1.1858  -15.5520  -40.2036 C.2       5 UNK         0.5000 
     46 O           1.1834  -16.0543  -41.3303 O.2       5 UNK        -0.5000 
     47 CA          1.5506  -14.0668  -39.9902 C.3       5 UNK         0.1400 
     48 CB          2.6110  -13.8758  -38.8826 C.3       5 UNK        -0.1800 
     49 N           1.9401  -13.3580  -41.2141 N.am      5 UNK        -0.5000 
     50 C           3.0487  -13.5159  -41.9508 C.2       4 UNK         0.5000 
     51 O           3.9297  -14.3389  -41.6954 O.2       4 UNK        -0.5000 
     52 CA          3.2026  -12.5654  -43.1608 C.3       4 UNK         0.1400 
     53 CB          4.3079  -13.0004  -44.1400 C.3       4 UNK        -0.1800 
     54 N           1.9503  -12.3990  -43.9028 N.am      4 UNK        -0.5000 
     55 C           1.0157  -11.4696  -43.6531 C.2       3 UNK         0.5000 
     56 O           1.1140  -10.6398  -42.7489 O.2       3 UNK        -0.5000 
     57 CA         -0.2567  -11.4794  -44.5282 C.3       3 UNK         0.1400 
     58 CB         -0.1242  -10.4702  -45.6785 C.3       3 UNK        -0.1800 
     59 N          -0.5683  -12.7949  -45.0872 N.am      3 UNK        -0.5000 
     60 C          -0.8876  -13.8789  -44.3678 C.2       2 UNK         0.5000 
     61 O          -1.0941  -13.8489  -43.1543 O.2       2 UNK        -0.5000 
     62 CA         -0.9665  -15.2282  -45.1126 C.3       2 UNK         0.1400 
     63 CB         -2.4302  -15.6772  -45.2480 C.3       2 UNK        -0.1800 
     64 N          -0.3383  -15.2754  -46.4397 N.am      2 UNK        -0.5000 
     65 C           0.9370  -14.9836  -46.7398 C.2       1 UNK         0.5000 
     66 O           1.7388  -14.5569  -45.9103 O.2       1 UNK        -0.5000 
     67 C           0.9345  -21.9236  -47.1435 C.2       11 UNK         0.5000 
     68 O           0.6411  -22.7930  -47.9654 O.2       11 UNK        -0.5000 
     69 N           0.3386  -20.7216  -47.0801 N.am      12 UNK        -0.5000 
     70 CA         -0.6587  -20.1935  -48.0162 C.3       12 UNK         0.1400 
     71 CB         -0.9853  -18.7400  -47.6468 C.3       12 UNK        -0.1800 
     72 C          -1.9448  -21.0318  -48.1274 C.2       12 UNK         0.5000 
     73 O          -2.6093  -20.9846  -49.1627 O.2       12 UNK        -0.5000 
     74 N          -2.2353  -21.8388  -47.0971 N.am      13 UNK        -0.5000 
     75 CA         -3.2792  -22.8663  -47.0577 C.3       13 UNK         0.1400 
     76 CB         -3.2113  -23.5906  -45.7054 C.3       13 UNK        -0.1800 
     77 C          -3.2230  -23.8856  -48.2176 C.2       13 UNK         0.5000 
     78 O          -4.2500  -24.4868  -48.5328 O.2       13 UNK        -0.5000 
     79 N          -2.0612  -24.0173  -48.8784 N.am      14 UNK        -0.5000 
     80 CA         -1.8659  -24.7521  -50.1320 C.3       14 UNK         0.1400 
     81 CB         -0.3843  -24.6710  -50.5285 C.3       14 UNK        -0.1800 
     82 C          -2.7539  -24.2668  -51.3005 C.2       14 UNK         0.5000 
     83 O          -3.0215  -25.0496  -52.2121 O.2       14 UNK        -0.5000 
     84 N          -3.2233  -23.0093  -51.2484 N.am      15 UNK        -0.5000 
     85 CA         -4.1985  -22.4472  -52.1862 C.3       15 UNK         0.1400 
     86 CB         -4.1290  -20.9142  -52.1276 C.3       15 UNK        -0.1800 
     87 C          -5.6445  -22.9319  -51.9485 C.2       15 UNK         0.5000 
     88 O          -6.5181  -22.6102  -52.7589 O.2       15 UNK        -0.5000 
     89 N          -5.8807  -23.6642  -50.8470 N.am      16 UNK        -0.5000 
     90 CA         -7.1209  -24.3505  -50.4578 C.3       16 UNK         0.1400 
     91 CB         -7.4437  -25.4652  -51.4749 C.3       16 UNK        -0.1800 
     92 C          -8.3314  -23.4226  -50.2200 C.2       16 UNK         0.5000 
     93 O          -9.4645  -23.9042  -50.1818 O.2       16 UNK        -0.5000 
     94 N          -8.0760  -22.1095  -50.1026 N.am      17 UNK        -0.5000 
     95 CA         -9.0483  -21.0070  -50.1059 C.3       17 UNK         0.1400 
     96 CB         -9.9455  -21.0544  -48.8516 C.3       17 UNK        -0.1800 
     97 C          -9.8617  -20.9152  -51.4202 C.2       17 UNK         0.5000 
     98 O         -10.9319  -20.3050  -51.4382 O.2       17 UNK        -0.5000 
     99 N          -9.3349  -21.5187  -52.4943 N.am      18 UNK        -0.5000 
    100 CA        -9.9617  -21.6382  -53.8107 C.3       18 UNK         0.1400 
    101 CB       -10.1549  -23.1356  -54.1085 C.3       18 UNK        -0.1800 
    102 C         -9.1142  -20.9707  -54.9098 C.2       18 UNK         0.5000 
    103 O         -9.4668  -21.0747  -56.0853 O.2       18 UNK        -0.5000 
    104 N         -8.0060  -20.3227  -54.5151 N.am      19 UNK        -0.5000 
    105 CA        -6.9714  -19.7307  -55.3695 C.3       19 UNK         0.1400 
    106 CB        -7.5275  -18.5439  -56.1839 C.3       19 UNK        -0.1800 
    107 C         -6.2532  -20.7865  -56.2375 C.2       19 UNK         0.5000 
    108 O         -5.9128  -20.5183  -57.3903 O.2       19 UNK        -0.5000 
    109 N         -6.0235  -21.9743  -55.6565 N.am      20 UNK        -0.5000 
    110 CA        -5.3605  -23.1102  -56.3064 C.3       20 UNK         0.1400 
    111 CB        -5.7236  -24.3959  -55.5449 C.3       20 UNK        -0.1800 
    112 C         -3.8278  -22.9541  -56.4167 C.2       20 UNK         0.5000 
    113 O         -3.1831  -23.7748  -57.0710 O.2       20 UNK        -0.5000 
    114 N         -3.2734  -21.9196  -55.7749 N.am      21 UNK        -0.5000 
    115 CA        -1.8581  -21.5754  -55.7686 C.3       21 UNK         0.1400 
    116 CB        -1.1409  -22.3254  -54.6231 C.3       21 UNK        -0.1800 
    117 C         -1.7439  -20.0426  -55.7055 C.2       21 UNK         0.5000 
    118 O         -2.0961  -19.3712  -56.6754 O.2       21 UNK        -0.5000 
    119 N         -1.2681  -19.5173  -54.5722 N.am      22 UNK        -0.5000 
    120 CA        -1.0558  -18.0861  -54.2964 C.3       22 UNK         0.1400 
    121 C         -2.3464  -17.2346  -54.1076 C.2       22 UNK         0.5000 
    122 N         -3.5104  -17.8315  -53.8859 N.am      22 UNK        -0.7600 
    123 O         -2.2885  -16.0102  -54.1762 O.2       22 UNK        -0.5000 
    124 C124       -0.0652  -17.8905  -53.1175 C.3       23 UNK        -0.0398 
    125 S125       -0.5332  -18.8336  -51.6195 S.3       23 UNK        -0.2404 
    126 C126        0.5837  -20.2737  -51.7382 C.3       23 UNK        -0.0205 
    127 H127       -1.7159  -16.3797  -50.4549 H         1 UNK         0.0600 
    128 H128       -2.6714  -14.9116  -50.2739 H         1 UNK         0.0600 
    129 H129       -1.4493  -15.0134  -51.5453 H         1 UNK         0.0600 
    130 H130        0.3333  -16.4919  -49.4523 H         1 UNK         0.3000 
    131 H131        1.7491  -14.1652  -48.5096 H         1 UNK         0.0600 
    132 H132        3.3668  -15.8750  -47.5614 H         1 UNK         0.0800 
    133 H133        2.3006  -17.1473  -48.1139 H         1 UNK         0.0800 
    134 H134        5.0854  -17.4787  -49.0364 H         1 UNK         0.0800 
    135 H135        5.1654  -17.4188  -50.7810 H         1 UNK         0.0800 
    136 H136        2.1793  -18.0525  -51.3495 H         1 UNK         0.1150 
    137 H137        1.8625  -22.2000  -50.3490 H         1 UNK         0.1150 
    138 H138        5.1250  -19.8793  -48.8326 H         1 UNK         0.1150 
    139 H139        3.3100  -23.2102  -48.8142 H         1 UNK         0.0800 
    140 H140        4.8984  -22.8265  -49.4212 H         1 UNK         0.0800 
    141 H141        3.0713  -20.4005  -46.8293 H         1 UNK         0.0800 
    142 H142        3.6804  -21.0075  -45.3336 H         1 UNK         0.0800 
    143 H143        2.2938  -23.2539  -46.1529 H         1 UNK         0.0600 
    144 H144        1.6199  -21.0979  -44.3165 H         1 UNK         0.3000 
    145 H145       -1.0392  -22.7478  -42.7487 H         1 UNK         0.0600 
    146 H146        0.2890  -22.5036  -40.6639 H         1 UNK         0.0600 
    147 H147        0.8634  -23.8844  -41.5871 H         1 UNK         0.0600 
    148 H148        1.7798  -22.3814  -41.5957 H         1 UNK         0.0600 
    149 H149        0.3687  -20.3842  -42.0410 H         1 UNK         0.3000 
    150 H150       -1.0789  -18.1971  -44.4690 H         1 UNK         0.0600 
    151 H151       -2.7219  -18.1470  -42.6842 H         1 UNK         0.0600 
    152 H152       -1.4999  -16.9446  -42.2939 H         1 UNK         0.0600 
    153 H153       -1.5155  -18.5016  -41.4616 H         1 UNK         0.0600 
    154 H154        0.8334  -17.7040  -42.4255 H         1 UNK         0.3000 
    155 H155        3.7382  -18.6971  -44.2508 H         1 UNK         0.0600 
    156 H156        2.6700  -15.8874  -43.7320 H         1 UNK         0.0600 
    157 H157        3.3996  -16.4970  -45.2149 H         1 UNK         0.0600 
    158 H158        4.3822  -16.3141  -43.7720 H         1 UNK         0.0600 
    159 H159        3.0543  -17.3740  -41.7194 H         1 UNK         0.3000 
    160 H160        3.3452  -20.3794  -39.8190 H         1 UNK         0.0600 
    161 H161        5.0091  -19.0199  -38.5799 H         1 UNK         0.0600 
    162 H162        5.1819  -17.9254  -39.9526 H         1 UNK         0.0600 
    163 H163        5.7076  -19.5997  -40.0835 H         1 UNK         0.0600 
    164 H164        2.8758  -17.6686  -39.0634 H         1 UNK         0.3000 
    165 H165       -0.6305  -17.5867  -39.5796 H         1 UNK         0.0600 
    166 H166       -0.7206  -17.2535  -37.1394 H         1 UNK         0.0600 
    167 H167       -0.4162  -18.9461  -37.4917 H         1 UNK         0.0600 
    168 H168        0.9040  -17.9155  -36.9520 H         1 UNK         0.0600 
    169 H169        0.8804  -15.7308  -38.2127 H         1 UNK         0.3000 
    170 H170        0.6342  -13.5779  -39.6568 H         1 UNK         0.0600 
    171 H171        2.2322  -14.1846  -37.9081 H         1 UNK         0.0600 
    172 H172        3.5138  -14.4552  -39.0787 H         1 UNK         0.0600 
    173 H173        2.9004  -12.8288  -38.7911 H         1 UNK         0.0600 
    174 H174        1.2730  -12.6729  -41.5418 H         1 UNK         0.3000 
    175 H175        3.5062  -11.6000  -42.7511 H         1 UNK         0.0600 
    176 H176        4.0745  -13.9504  -44.6179 H         1 UNK         0.0600 
    177 H177        4.4446  -12.2599  -44.9281 H         1 UNK         0.0600 
    178 H178        5.2669  -13.1111  -43.6326 H         1 UNK         0.0600 
    179 H179        1.7781  -13.0854  -44.6328 H         1 UNK         0.3000 
    180 H180       -1.0939  -11.1742  -43.8971 H         1 UNK         0.0600 
    181 H181        0.6868  -10.7384  -46.3570 H         1 UNK         0.0600 
    182 H182        0.0828   -9.4689  -45.2984 H         1 UNK         0.0600 
    183 H183       -1.0441  -10.4118  -46.2608 H         1 UNK         0.0600 
    184 H184       -0.4222  -12.9122  -46.0793 H         1 UNK         0.3000 
    185 H185       -0.4343  -15.9435  -44.4874 H         1 UNK         0.0600 
    186 H186       -2.9190  -15.7215  -44.2738 H         1 UNK         0.0600 
    187 H187       -3.0023  -14.9882  -45.8706 H         1 UNK         0.0600 
    188 H188       -2.5067  -16.6690  -45.6921 H         1 UNK         0.0600 
    189 H189       -0.9300  -15.5778  -47.1988 H         1 UNK         0.3000 
    190 H190        0.6603  -20.0678  -46.3685 H         1 UNK         0.3000 
    191 H191       -0.1935  -20.1951  -49.0000 H         1 UNK         0.0600 
    192 H192       -1.4995  -18.6827  -46.6886 H         1 UNK         0.0600 
    193 H193       -1.6336  -18.2842  -48.3963 H         1 UNK         0.0600 
    194 H194       -0.0813  -18.1349  -47.5832 H         1 UNK         0.0600 
    195 H195       -1.6767  -21.7368  -46.2579 H         1 UNK         0.3000 
    196 H196       -4.2398  -22.3527  -47.1260 H         1 UNK         0.0600 
    197 H197       -4.0041  -24.3346  -45.6186 H         1 UNK         0.0600 
    198 H198       -3.3288  -22.8930  -44.8759 H         1 UNK         0.0600 
    199 H199       -2.2597  -24.1075  -45.5769 H         1 UNK         0.0600 
    200 H200       -1.2556  -23.5034  -48.5363 H         1 UNK         0.3000 
    201 H201       -2.1171  -25.7974  -49.9429 H         1 UNK         0.0600 
    202 H202       -0.0766  -23.6409  -50.7102 H         1 UNK         0.0600 
    203 H203        0.2575  -25.0788  -49.7471 H         1 UNK         0.0600 
    204 H204       -0.1889  -25.2386  -51.4392 H         1 UNK         0.0600 
    205 H205       -2.9530  -22.4112  -50.4718 H         1 UNK         0.3000 
    206 H206       -3.9227  -22.7616  -53.1932 H         1 UNK         0.0600 
    207 H207       -4.4344  -20.5365  -51.1511 H         1 UNK         0.0600 
    208 H208       -3.1172  -20.5569  -52.3173 H         1 UNK         0.0600 
    209 H209       -4.7852  -20.4624  -52.8714 H         1 UNK         0.0600 
    210 H210       -5.1017  -23.8408  -50.2205 H         1 UNK         0.3000 
    211 H211       -6.9146  -24.8266  -49.4983 H         1 UNK         0.0600 
    212 H212       -7.7272  -25.0573  -52.4458 H         1 UNK         0.0600 
    213 H213       -8.2689  -26.0886  -51.1290 H         1 UNK         0.0600 
    214 H214       -6.5860  -26.1210  -51.6252 H         1 UNK         0.0600 
    215 H215       -7.1056  -21.8323  -50.1387 H         1 UNK         0.3000 
    216 H216       -8.4619  -20.0887  -50.0540 H         1 UNK         0.0600 
    217 H217      -10.6307  -21.9021  -48.8729 H         1 UNK         0.0600 
    218 H218      -10.5500  -20.1505  -48.7691 H         1 UNK         0.0600 
    219 H219       -9.3487  -21.1274  -47.9425 H         1 UNK         0.0600 
    220 H220       -8.4438  -21.9937  -52.3915 H         1 UNK         0.3000 
    221 H221      -10.9391  -21.1524  -53.8200 H         1 UNK         0.0600 
    222 H222       -9.1994  -23.6594  -54.1620 H         1 UNK         0.0600 
    223 H223      -10.7555  -23.6158  -53.3356 H         1 UNK         0.0600 
    224 H224      -10.6683  -23.2872  -55.0587 H         1 UNK         0.0600 
    225 H225       -7.8196  -20.3011  -53.5231 H         1 UNK         0.3000 
    226 H226       -6.2135  -19.3312  -54.6949 H         1 UNK         0.0600 
    227 H227       -8.0274  -17.8223  -55.5379 H         1 UNK         0.0600 
    228 H228       -6.7245  -18.0150  -56.6987 H         1 UNK         0.0600 
    229 H229       -8.2415  -18.8673  -56.9417 H         1 UNK         0.0600 
    230 H230       -6.3472  -22.1273  -54.7066 H         1 UNK         0.3000 
    231 H231       -5.7512  -23.1992  -57.3222 H         1 UNK         0.0600 
    232 H232       -6.8036  -24.5074  -55.4455 H         1 UNK         0.0600 
    233 H233       -5.2912  -24.4112  -54.5446 H         1 UNK         0.0600 
    234 H234       -5.3538  -25.2770  -56.0705 H         1 UNK         0.0600 
    235 H235       -3.8923  -21.2578  -55.3332 H         1 UNK         0.3000 
    236 H236       -1.4052  -21.8795  -56.7146 H         1 UNK         0.0600 
    237 H237       -0.0756  -22.0921  -54.6070 H         1 UNK         0.0600 
    238 H238       -1.5538  -22.0825  -53.6442 H         1 UNK         0.0600 
    239 H239       -1.2272  -23.4046  -54.7517 H         1 UNK         0.0600 
    240 H240       -1.0310  -20.1379  -53.8138 H         1 UNK         0.3000 
    241 H241       -0.5735  -17.6686  -55.1825 H         1 UNK         0.0600 
    242 H242       -3.5559  -18.8293  -53.7943 H         1 UNK         0.3800 
    243 H243       -4.3351  -17.2664  -53.7629 H         1 UNK         0.3800 
    244 H244        0.0265  -16.8360  -52.8516 H         1 UNK         0.0800 
    245 H245        0.9342  -18.1910  -53.4341 H         1 UNK         0.0800 
    246 H246        0.0226  -21.1439  -51.3933 H         1 UNK         0.0800 
    247 H247        0.8475  -20.4743  -52.7766 H         1 UNK         0.0800 
@<TRIPOS>BOND
     1    1    2 1    
     2    1  127 1    
     3    1  128 1    
     4    1  129 1    
     5    2    3 2    
     6    2    4 am   BACKBONE|DICT|INTERRES
     7    4    5 1    
     8    4  130 1    
     9    5    6 1    
    10    5   65 1    
    11    5  131 1    
    12    6    7 1    
    13    6  132 1    
    14    6  133 1    
    15    7    8 1    
    16    8    9 1    
    17    8  134 1    
    18    8  135 1    
    19    9   10 ar   
    20    9   14 ar   
    21   10   11 ar   
    22   10  136 1    
    23   11   12 ar   
    24   11  126 1    
    25   12   13 ar   
    26   12  137 1    
    27   13   14 ar   
    28   13   15 1    
    29   14  138 1    
    30   15   16 1    
    31   15  139 1    
    32   15  140 1    
    33   16   17 1    
    34   17   18 1    
    35   17  141 1    
    36   17  142 1    
    37   18   19 1    
    38   18   67 1    
    39   18  143 1    
    40   19   20 am   BACKBONE|DICT|INTERRES
    41   19  144 1    
    42   20   21 2    
    43   20   22 1    
    44   22   23 1    
    45   22   24 1    
    46   22  145 1    
    47   23  146 1    
    48   23  147 1    
    49   23  148 1    
    50   24   25 am   BACKBONE|DICT|INTERRES
    51   24  149 1    
    52   25   26 2    
    53   25   27 1    
    54   27   28 1    
    55   27   29 1    
    56   27  150 1    
    57   28  151 1    
    58   28  152 1    
    59   28  153 1    
    60   29   30 am   BACKBONE|DICT|INTERRES
    61   29  154 1    
    62   30   31 2    
    63   30   32 1    
    64   32   33 1    
    65   32   34 1    
    66   32  155 1    
    67   33  156 1    
    68   33  157 1    
    69   33  158 1    
    70   34   35 am   BACKBONE|DICT|INTERRES
    71   34  159 1    
    72   35   36 2    
    73   35   37 1    
    74   37   38 1    
    75   37   39 1    
    76   37  160 1    
    77   38  161 1    
    78   38  162 1    
    79   38  163 1    
    80   39   40 am   BACKBONE|DICT|INTERRES
    81   39  164 1    
    82   40   41 2    
    83   40   42 1    
    84   42   43 1    
    85   42   44 1    
    86   42  165 1    
    87   43  166 1    
    88   43  167 1    
    89   43  168 1    
    90   44   45 am   BACKBONE|DICT|INTERRES
    91   44  169 1    
    92   45   46 2    
    93   45   47 1    
    94   47   48 1    
    95   47   49 1    
    96   47  170 1    
    97   48  171 1    
    98   48  172 1    
    99   48  173 1    
   100   49   50 am   BACKBONE|DICT|INTERRES
   101   49  174 1    
   102   50   51 2    
   103   50   52 1    
   104   52   53 1    
   105   52   54 1    
   106   52  175 1    
   107   53  176 1    
   108   53  177 1    
   109   53  178 1    
   110   54   55 am   BACKBONE|DICT|INTERRES
   111   54  179 1    
   112   55   56 2    
   113   55   57 1    
   114   57   58 1    
   115   57   59 1    
   116   57  180 1    
   117   58  181 1    
   118   58  182 1    
   119   58  183 1    
   120   59   60 am   BACKBONE|DICT|INTERRES
   121   59  184 1    
   122   60   61 2    
   123   60   62 1    
   124   62   63 1    
   125   62   64 1    
   126   62  185 1    
   127   63  186 1    
   128   63  187 1    
   129   63  188 1    
   130   64   65 am   BACKBONE|DICT|INTERRES
   131   64  189 1    
   132   65   66 2    
   133   67   68 2    
   134   67   69 am   BACKBONE|DICT|INTERRES
   135   69   70 1    
   136   69  190 1    
   137   70   71 1    
   138   70   72 1    
   139   70  191 1    
   140   71  192 1    
   141   71  193 1    
   142   71  194 1    
   143   72   73 2    
   144   72   74 am   BACKBONE|DICT|INTERRES
   145   74   75 1    
   146   74  195 1    
   147   75   76 1    
   148   75   77 1    
   149   75  196 1    
   150   76  197 1    
   151   76  198 1    
   152   76  199 1    
   153   77   78 2    
   154   77   79 am   BACKBONE|DICT|INTERRES
   155   79   80 1    
   156   79  200 1    
   157   80   81 1    
   158   80   82 1    
   159   80  201 1    
   160   81  202 1    
   161   81  203 1    
   162   81  204 1    
   163   82   83 2    
   164   82   84 am   BACKBONE|DICT|INTERRES
   165   84   85 1    
   166   84  205 1    
   167   85   86 1    
   168   85   87 1    
   169   85  206 1    
   170   86  207 1    
   171   86  208 1    
   172   86  209 1    
   173   87   88 2    
   174   87   89 am   BACKBONE|DICT|INTERRES
   175   89   90 1    
   176   89  210 1    
   177   90   91 1    
   178   90   92 1    
   179   90  211 1    
   180   91  212 1    
   181   91  213 1    
   182   91  214 1    
   183   92   93 2    
   184   92   94 am   BACKBONE|DICT|INTERRES
   185   94   95 1    
   186   94  215 1    
   187   95   96 1    
   188   95   97 1    
   189   95  216 1    
   190   96  217 1    
   191   96  218 1    
   192   96  219 1    
   193   97   98 2    
   194   97   99 am   BACKBONE|DICT|INTERRES
   195   99  100 1    
   196   99  220 1    
   197  100  101 1    
   198  100  102 1    
   199  100  221 1    
   200  101  222 1    
   201  101  223 1    
   202  101  224 1    
   203  102  103 2    
   204  102  104 am   BACKBONE|DICT|INTERRES
   205  104  105 1    
   206  104  225 1    
   207  105  106 1    
   208  105  107 1    
   209  105  226 1    
   210  106  227 1    
   211  106  228 1    
   212  106  229 1    
   213  107  108 2    
   214  107  109 am   BACKBONE|DICT|INTERRES
   215  109  110 1    
   216  109  230 1    
   217  110  111 1    
   218  110  112 1    
   219  110  231 1    
   220  111  232 1    
   221  111  233 1    
   222  111  234 1    
   223  112  113 2    
   224  112  114 am   BACKBONE|DICT|INTERRES
   225  114  115 1    
   226  114  235 1    
   227  115  116 1    
   228  115  117 1    
   229  115  236 1    
   230  116  237 1    
   231  116  238 1    
   232  116  239 1    
   233  117  118 2    
   234  117  119 am   BACKBONE|DICT|INTERRES
   235  119  120 1    
   236  119  240 1    
   237  120  121 1    
   238  120  124 1    
   239  120  241 1    
   240  121  122 am   BACKBONE|DICT|INTERRES
   241  121  123 2    
   242  122  242 1    
   243  122  243 1    
   244  124  125 1    
   245  124  244 1    
   246  124  245 1    
   247  125  126 1    
   248  126  246 1    
   249  126  247 1    
@<TRIPOS>SUBSTRUCTURE
     1 UNK         1 GROUP             0       ****    0 ROOT    
