@<TRIPOS>MOLECULE
3R540
247   249    1
SMALL
USER_CHARGES


@<TRIPOS>ATOM
      1 CA         -5.6994  -11.7220  -45.9186 C.3       0 UNK        -0.1800 
      2 C          -4.3501  -12.4157  -46.0395 C.2       0 UNK         0.5000 
      3 O          -3.5906  -12.1235  -46.9638 O.2       0 UNK        -0.5000 
      4 N          -4.0451  -13.3261  -45.1070 N.am      1 UNK        -0.5000 
      5 CA         -2.8014  -14.1034  -45.0468 C.3       1 UNK         0.1400 
      6 C6         -2.9933  -15.4500  -44.2969 C.3       23 UNK        -0.0398 
      7 S7         -4.3497  -16.4784  -44.9626 S.3       23 UNK        -0.2404 
      8 C8         -3.5104  -18.0451  -45.3758 C.3       23 UNK        -0.0205 
      9 C9         -2.6184  -17.9299  -46.6038 C.ar      23 UNK        -0.0193 
     10 C10        -3.1611  -17.5419  -47.8329 C.ar      23 UNK        -0.1150 
     11 C11        -2.3511  -17.4315  -48.9656 C.ar      23 UNK        -0.0193 
     12 C12        -0.9896  -17.7311  -48.8672 C.ar      23 UNK        -0.1150 
     13 C13        -0.4302  -18.1010  -47.6410 C.ar      23 UNK        -0.0193 
     14 C14        -1.2516  -18.2110  -46.5148 C.ar      23 UNK        -0.1150 
     15 C15         1.0743  -18.2903  -47.5227 C.3       23 UNK        -0.0205 
     16 S16         1.6081  -19.9751  -47.9348 S.3       23 UNK        -0.2404 
     17 C17         1.4047  -20.8371  -46.3400 C.3       23 UNK        -0.0398 
     18 CA          0.6889  -22.1958  -46.5161 C.3       11 UNK         0.1400 
     19 N           1.1363  -23.1906  -45.5401 N.am      11 UNK        -0.5000 
     20 C           0.9991  -24.5135  -45.7018 C.2       10 UNK         0.5000 
     21 O           0.4851  -25.0290  -46.6936 O.2       10 UNK        -0.5000 
     22 CA          1.4940  -25.4076  -44.5508 C.3       10 UNK         0.1400 
     23 CB          2.9914  -25.7106  -44.7084 C.3       10 UNK        -0.1800 
     24 N           1.2559  -24.8138  -43.2347 N.am      10 UNK        -0.5000 
     25 C           0.0410  -24.6400  -42.6972 C.2       9 UNK         0.5000 
     26 O          -1.0066  -24.9795  -43.2481 O.2       9 UNK        -0.5000 
     27 CA         -0.0085  -23.9112  -41.3412 C.3       9 UNK         0.1400 
     28 CB          0.2995  -24.8822  -40.1914 C.3       9 UNK        -0.1800 
     29 N           0.8902  -22.7522  -41.2590 N.am      9 UNK        -0.5000 
     30 C           0.8233  -21.6890  -42.0696 C.2       8 UNK         0.5000 
     31 O           0.0560  -21.6139  -43.0336 O.2       8 UNK        -0.5000 
     32 CA          1.7636  -20.5124  -41.7811 C.3       8 UNK         0.1400 
     33 CB          3.1178  -20.6992  -42.4868 C.3       8 UNK        -0.1800 
     34 N           1.0815  -19.3291  -42.2846 N.am      8 UNK        -0.5000 
     35 C           1.3352  -18.0515  -41.9994 C.2       7 UNK         0.5000 
     36 O           2.2652  -17.6641  -41.2882 O.2       7 UNK        -0.5000 
     37 CA          0.3094  -17.0490  -42.5611 C.3       7 UNK         0.1400 
     38 CB         -0.6954  -16.6662  -41.4629 C.3       7 UNK        -0.1800 
     39 N           0.8831  -15.8270  -43.1221 N.am      7 UNK        -0.5000 
     40 C           1.8272  -15.7531  -44.0699 C.2       6 UNK         0.5000 
     41 O           2.4360  -16.7189  -44.5346 O.2       6 UNK        -0.5000 
     42 CA          2.1179  -14.3390  -44.6116 C.3       6 UNK         0.1400 
     43 CB          3.5223  -13.8796  -44.1927 C.3       6 UNK        -0.1800 
     44 N           1.9676  -14.2135  -46.0680 N.am      6 UNK        -0.5000 
     45 C           0.9061  -14.6201  -46.7863 C.2       5 UNK         0.5000 
     46 O          -0.0681  -15.1771  -46.2876 O.2       5 UNK        -0.5000 
     47 CA          0.9012  -14.3369  -48.3023 C.3       5 UNK         0.1400 
     48 CB         -0.5188  -14.0558  -48.8297 C.3       5 UNK        -0.1800 
     49 N           1.7410  -13.1906  -48.6324 N.am      5 UNK        -0.5000 
     50 C           2.9105  -13.2341  -49.2816 C.2       4 UNK         0.5000 
     51 O           3.4266  -14.2735  -49.6924 O.2       4 UNK        -0.5000 
     52 CA          3.6358  -11.8898  -49.5058 C.3       4 UNK         0.1400 
     53 CB          3.4480  -11.4154  -50.9551 C.3       4 UNK        -0.1800 
     54 N           3.1960  -10.8246  -48.5993 N.am      4 UNK        -0.5000 
     55 C           3.3991  -10.8151  -47.2754 C.2       3 UNK         0.5000 
     56 O           4.0275  -11.6931  -46.6839 O.2       3 UNK        -0.5000 
     57 CA          2.7738   -9.6627  -46.4620 C.3       3 UNK         0.1400 
     58 CB          2.2277   -8.5014  -47.3239 C.3       3 UNK        -0.1800 
     59 N           1.7386  -10.1487  -45.5417 N.am      3 UNK        -0.5000 
     60 C           0.6204  -10.8163  -45.8622 C.2       2 UNK         0.5000 
     61 O           0.3102  -11.1287  -47.0150 O.2       2 UNK        -0.5000 
     62 CA         -0.3081  -11.1733  -44.6901 C.3       2 UNK         0.1400 
     63 CB         -1.0486   -9.9264  -44.1784 C.3       2 UNK        -0.1800 
     64 N          -1.2994  -12.1601  -45.1097 N.am      2 UNK        -0.5000 
     65 C          -1.6715  -13.2459  -44.4231 C.2       1 UNK         0.5000 
     66 O          -1.1844  -13.5547  -43.3322 O.2       1 UNK        -0.5000 
     67 C          -0.8452  -22.0584  -46.5163 C.2       11 UNK         0.5000 
     68 O          -1.4394  -21.9584  -47.5853 O.2       11 UNK        -0.5000 
     69 N          -1.4691  -22.1276  -45.3323 N.am      12 UNK        -0.5000 
     70 CA         -2.9213  -22.1751  -45.1635 C.3       12 UNK         0.1400 
     71 CB         -3.2674  -22.0439  -43.6735 C.3       12 UNK        -0.1800 
     72 C          -3.5415  -23.4495  -45.7695 C.2       12 UNK         0.5000 
     73 O          -4.5900  -23.3693  -46.4103 O.2       12 UNK        -0.5000 
     74 N          -2.8613  -24.5936  -45.6015 N.am      13 UNK        -0.5000 
     75 CA         -3.2220  -25.8652  -46.2314 C.3       13 UNK         0.1400 
     76 CB         -2.3720  -26.9987  -45.6386 C.3       13 UNK        -0.1800 
     77 C          -3.0945  -25.8227  -47.7665 C.2       13 UNK         0.5000 
     78 O          -3.9600  -26.3586  -48.4589 O.2       13 UNK        -0.5000 
     79 N          -2.0451  -25.1575  -48.2718 N.am      14 UNK        -0.5000 
     80 CA         -1.8492  -24.8833  -49.6954 C.3       14 UNK         0.1400 
     81 CB         -0.4384  -24.3226  -49.9359 C.3       14 UNK        -0.1800 
     82 C          -2.9311  -23.9416  -50.2535 C.2       14 UNK         0.5000 
     83 O          -3.5246  -24.2535  -51.2842 O.2       14 UNK        -0.5000 
     84 N          -3.2126  -22.8444  -49.5384 N.am      15 UNK        -0.5000 
     85 CA         -4.2346  -21.8486  -49.8679 C.3       15 UNK         0.1400 
     86 CB         -4.2207  -20.7368  -48.8104 C.3       15 UNK        -0.1800 
     87 C          -5.6466  -22.4447  -49.9938 C.2       15 UNK         0.5000 
     88 O          -6.3797  -22.0830  -50.9142 O.2       15 UNK        -0.5000 
     89 N          -5.9802  -23.3965  -49.1105 N.am      16 UNK        -0.5000 
     90 CA         -7.2250  -24.1690  -49.1397 C.3       16 UNK         0.1400 
     91 CB         -7.3212  -25.0127  -47.8598 C.3       16 UNK        -0.1800 
     92 C          -7.3807  -25.0590  -50.3926 C.2       16 UNK         0.5000 
     93 O          -8.5098  -25.3785  -50.7662 O.2       16 UNK        -0.5000 
     94 N          -6.2591  -25.4207  -51.0291 N.am      17 UNK        -0.5000 
     95 CA         -6.1933  -26.1656  -52.2873 C.3       17 UNK         0.1400 
     96 CB         -5.0784  -27.2195  -52.1672 C.3       17 UNK        -0.1800 
     97 C          -5.9540  -25.2429  -53.5032 C.2       17 UNK         0.5000 
     98 O          -5.7796  -25.7510  -54.6117 O.2       17 UNK        -0.5000 
     99 N          -5.9350  -23.9180  -53.2831 N.am      18 UNK        -0.5000 
    100 CA        -5.6347  -22.8496  -54.2448 C.3       18 UNK         0.1400 
    101 CB        -6.6947  -22.7925  -55.3644 C.3       18 UNK        -0.1800 
    102 C         -4.1868  -22.8852  -54.7841 C.2       18 UNK         0.5000 
    103 O         -3.9270  -22.3987  -55.8876 O.2       18 UNK        -0.5000 
    104 N         -3.2624  -23.4335  -53.9886 N.am      19 UNK        -0.5000 
    105 CA        -1.8214  -23.4083  -54.2183 C.3       19 UNK         0.1400 
    106 CB        -1.2461  -24.7856  -53.8426 C.3       19 UNK        -0.1800 
    107 C         -1.1731  -22.2651  -53.4108 C.2       19 UNK         0.5000 
    108 O         -1.8613  -21.5519  -52.6771 O.2       19 UNK        -0.5000 
    109 N          0.1466  -22.1028  -53.5798 N.am      20 UNK        -0.5000 
    110 CA         0.9694  -21.0029  -53.0612 C.3       20 UNK         0.1400 
    111 CB         0.9674  -20.9666  -51.5143 C.3       20 UNK        -0.1800 
    112 C          0.6009  -19.6591  -53.7296 C.2       20 UNK         0.5000 
    113 O          0.2074  -19.6547  -54.8994 O.2       20 UNK        -0.5000 
    114 N          0.7428  -18.5430  -52.9991 N.am      21 UNK        -0.5000 
    115 CA         0.5347  -17.1692  -53.4816 C.3       21 UNK         0.1400 
    116 CB         0.9515  -16.1853  -52.3747 C.3       21 UNK        -0.1800 
    117 C         -0.8971  -16.8553  -53.9698 C.2       21 UNK         0.5000 
    118 O         -1.0897  -15.8745  -54.6894 O.2       21 UNK        -0.5000 
    119 N         -1.8611  -17.6902  -53.5755 N.am      22 UNK        -0.5000 
    120 CA        -3.2805  -17.6419  -53.9509 C.3       22 UNK         0.1400 
    121 C         -3.7486  -18.9237  -54.7014 C.2       22 UNK         0.5000 
    122 N         -2.8509  -19.7389  -55.2420 N.am      22 UNK        -0.7600 
    123 O         -4.9442  -19.1751  -54.8254 O.2       22 UNK        -0.5000 
    124 C124       -4.1779  -17.2624  -52.7400 C.3       23 UNK        -0.0398 
    125 S125       -3.8089  -18.1964  -51.2110 S.3       23 UNK        -0.2404 
    126 C126       -2.9305  -16.9110  -50.2712 C.3       23 UNK        -0.0205 
    127 H127       -6.2648  -12.0814  -45.0584 H         1 UNK         0.0600 
    128 H128       -6.2939  -11.9001  -46.8147 H         1 UNK         0.0600 
    129 H129       -5.5594  -10.6466  -45.8088 H         1 UNK         0.0600 
    130 H130       -4.7071  -13.5155  -44.3683 H         1 UNK         0.3000 
    131 H131       -2.5033  -14.3448  -46.0692 H         1 UNK         0.0600 
    132 H132       -3.2137  -15.2711  -43.2436 H         1 UNK         0.0800 
    133 H133       -2.0642  -16.0214  -44.3272 H         1 UNK         0.0800 
    134 H134       -2.9464  -18.3930  -44.5090 H         1 UNK         0.0800 
    135 H135       -4.2682  -18.8048  -45.5715 H         1 UNK         0.0800 
    136 H136       -4.2141  -17.3092  -47.9041 H         1 UNK         0.1150 
    137 H137       -0.3539  -17.6349  -49.7343 H         1 UNK         0.1150 
    138 H138       -0.8202  -18.4877  -45.5646 H         1 UNK         0.1150 
    139 H139        1.5804  -17.5983  -48.1964 H         1 UNK         0.0800 
    140 H140        1.4132  -18.0274  -46.5210 H         1 UNK         0.0800 
    141 H141        0.9001  -20.2065  -45.6063 H         1 UNK         0.0800 
    142 H142        2.4120  -20.9924  -45.9522 H         1 UNK         0.0800 
    143 H143        0.9683  -22.5900  -47.4960 H         1 UNK         0.0600 
    144 H144        1.5093  -22.8437  -44.6694 H         1 UNK         0.3000 
    145 H145        0.9473  -26.3515  -44.6041 H         1 UNK         0.0600 
    146 H146        3.3364  -26.4030  -43.9403 H         1 UNK         0.0600 
    147 H147        3.1959  -26.1717  -45.6756 H         1 UNK         0.0600 
    148 H148        3.5964  -24.8054  -44.6416 H         1 UNK         0.0600 
    149 H149        2.0639  -24.5010  -42.7169 H         1 UNK         0.3000 
    150 H150       -1.0285  -23.5444  -41.2087 H         1 UNK         0.0600 
    151 H151        1.3240  -25.2533  -40.2391 H         1 UNK         0.0600 
    152 H152       -0.3649  -25.7469  -40.2219 H         1 UNK         0.0600 
    153 H153        0.1608  -24.4024  -39.2224 H         1 UNK         0.0600 
    154 H154        1.5525  -22.7489  -40.4964 H         1 UNK         0.3000 
    155 H155        1.9071  -20.4185  -40.7029 H         1 UNK         0.0600 
    156 H156        3.0006  -20.7787  -43.5676 H         1 UNK         0.0600 
    157 H157        3.6187  -21.6040  -42.1408 H         1 UNK         0.0600 
    158 H158        3.7872  -19.8625  -42.2865 H         1 UNK         0.0600 
    159 H159        0.2748  -19.5682  -42.8488 H         1 UNK         0.3000 
    160 H160       -0.2396  -17.5313  -43.3719 H         1 UNK         0.0600 
    161 H161       -0.2017  -16.1715  -40.6255 H         1 UNK         0.0600 
    162 H162       -1.2023  -17.5487  -41.0703 H         1 UNK         0.0600 
    163 H163       -1.4636  -15.9921  -41.8373 H         1 UNK         0.0600 
    164 H164        0.4181  -14.9693  -42.8505 H         1 UNK         0.3000 
    165 H165        1.4029  -13.6510  -44.1619 H         1 UNK         0.0600 
    166 H166        4.2999  -14.4161  -44.7376 H         1 UNK         0.0600 
    167 H167        3.6575  -12.8134  -44.3688 H         1 UNK         0.0600 
    168 H168        3.6904  -14.0491  -43.1282 H         1 UNK         0.0600 
    169 H169        2.7231  -13.7507  -46.5543 H         1 UNK         0.3000 
    170 H170        1.2695  -15.2386  -48.7942 H         1 UNK         0.0600 
    171 H171       -1.1954  -14.8823  -48.6171 H         1 UNK         0.0600 
    172 H172       -0.9482  -13.1639  -48.3719 H         1 UNK         0.0600 
    173 H173       -0.5160  -13.9113  -49.9101 H         1 UNK         0.0600 
    174 H174        1.4019  -12.2971  -48.2885 H         1 UNK         0.3000 
    175 H175        4.7009  -12.0612  -49.3363 H         1 UNK         0.0600 
    176 H176        4.0162  -10.5057  -51.1501 H         1 UNK         0.0600 
    177 H177        3.7941  -12.1707  -51.6620 H         1 UNK         0.0600 
    178 H178        2.3998  -11.2127  -51.1788 H         1 UNK         0.0600 
    179 H179        2.6500  -10.0796  -49.0073 H         1 UNK         0.3000 
    180 H180        3.5771   -9.2609  -45.8427 H         1 UNK         0.0600 
    181 H181        3.0050   -8.0905  -47.9695 H         1 UNK         0.0600 
    182 H182        1.8747   -7.6855  -46.6930 H         1 UNK         0.0600 
    183 H183        1.3943   -8.8080  -47.9568 H         1 UNK         0.0600 
    184 H184        1.9171   -9.9598  -44.5653 H         1 UNK         0.3000 
    185 H185        0.3102  -11.5736  -43.8849 H         1 UNK         0.0600 
    186 H186       -0.3505   -9.1622  -43.8350 H         1 UNK         0.0600 
    187 H187       -1.6680   -9.4806  -44.9579 H         1 UNK         0.0600 
    188 H188       -1.6971  -10.1726  -43.3373 H         1 UNK         0.0600 
    189 H189       -1.7294  -11.9903  -46.0138 H         1 UNK         0.3000 
    190 H190       -0.9104  -22.1566  -44.4824 H         1 UNK         0.3000 
    191 H191       -3.3449  -21.3156  -45.6862 H         1 UNK         0.0600 
    192 H192       -2.8871  -21.1084  -43.2627 H         1 UNK         0.0600 
    193 H193       -4.3473  -22.0522  -43.5215 H         1 UNK         0.0600 
    194 H194       -2.8451  -22.8614  -43.0884 H         1 UNK         0.0600 
    195 H195       -2.0397  -24.5935  -45.0069 H         1 UNK         0.3000 
    196 H196       -4.2682  -26.0691  -45.9933 H         1 UNK         0.0600 
    197 H197       -2.6497  -27.9608  -46.0707 H         1 UNK         0.0600 
    198 H198       -2.5122  -27.0734  -44.5601 H         1 UNK         0.0600 
    199 H199       -1.3092  -26.8491  -45.8275 H         1 UNK         0.0600 
    200 H200       -1.3401  -24.8002  -47.6370 H         1 UNK         0.3000 
    201 H201       -1.9275  -25.8321  -50.2305 H         1 UNK         0.0600 
    202 H202        0.3264  -25.0086  -49.5718 H         1 UNK         0.0600 
    203 H203       -0.2907  -23.3645  -49.4403 H         1 UNK         0.0600 
    204 H204       -0.2529  -24.1633  -50.9975 H         1 UNK         0.0600 
    205 H205       -2.6306  -22.6310  -48.7296 H         1 UNK         0.3000 
    206 H206       -3.9678  -21.4116  -50.8323 H         1 UNK         0.0600 
    207 H207       -3.2419  -20.2601  -48.7616 H         1 UNK         0.0600 
    208 H208       -4.9506  -19.9617  -49.0455 H         1 UNK         0.0600 
    209 H209       -4.4582  -21.1156  -47.8178 H         1 UNK         0.0600 
    210 H210       -5.3347  -23.6004  -48.3545 H         1 UNK         0.3000 
    211 H211       -8.0540  -23.4585  -49.1415 H         1 UNK         0.0600 
    212 H212       -6.5083  -25.7359  -47.7931 H         1 UNK         0.0600 
    213 H213       -8.2590  -25.5687  -47.8268 H         1 UNK         0.0600 
    214 H214       -7.2838  -24.3848  -46.9693 H         1 UNK         0.0600 
    215 H215       -5.3688  -25.0930  -50.6715 H         1 UNK         0.3000 
    216 H216       -7.1347  -26.6899  -52.4615 H         1 UNK         0.0600 
    217 H217       -5.0409  -27.8552  -53.0525 H         1 UNK         0.0600 
    218 H218       -5.2426  -27.8702  -51.3081 H         1 UNK         0.0600 
    219 H219       -4.0969  -26.7586  -52.0533 H         1 UNK         0.0600 
    220 H220       -6.0883  -23.5968  -52.3342 H         1 UNK         0.3000 
    221 H221       -5.7103  -21.9180  -53.6820 H         1 UNK         0.0600 
    222 H222       -6.6286  -23.6519  -56.0317 H         1 UNK         0.0600 
    223 H223       -7.7031  -22.7620  -54.9518 H         1 UNK         0.0600 
    224 H224       -6.5681  -21.8965  -55.9733 H         1 UNK         0.0600 
    225 H225       -3.5426  -23.7437  -53.0607 H         1 UNK         0.3000 
    226 H226       -1.6107  -23.2262  -55.2739 H         1 UNK         0.0600 
    227 H227       -0.1670  -24.8269  -53.9920 H         1 UNK         0.0600 
    228 H228       -1.4457  -25.0409  -52.8033 H         1 UNK         0.0600 
    229 H229       -1.6849  -25.5692  -54.4604 H         1 UNK         0.0600 
    230 H230        0.6200  -22.7169  -54.2270 H         1 UNK         0.3000 
    231 H231        1.9900  -21.2212  -53.3781 H         1 UNK         0.0600 
    232 H232        0.0121  -20.6336  -51.1063 H         1 UNK         0.0600 
    233 H233        1.7386  -20.2968  -51.1331 H         1 UNK         0.0600 
    234 H234        1.1766  -21.9524  -51.1000 H         1 UNK         0.0600 
    235 H235        1.0604  -18.6367  -52.0457 H         1 UNK         0.3000 
    236 H236        1.1999  -17.0211  -54.3346 H         1 UNK         0.0600 
    237 H237        1.9840  -16.3475  -52.0645 H         1 UNK         0.0600 
    238 H238        0.8789  -15.1535  -52.7211 H         1 UNK         0.0600 
    239 H239        0.3174  -16.2755  -51.4933 H         1 UNK         0.0600 
    240 H240       -1.6065  -18.4769  -52.9948 H         1 UNK         0.3000 
    241 H241       -3.4183  -16.8548  -54.6939 H         1 UNK         0.0600 
    242 H242       -3.1776  -20.5840  -55.6968 H         1 UNK         0.3800 
    243 H243       -1.8575  -19.5579  -55.1623 H         1 UNK         0.3800 
    244 H244       -4.0602  -16.1971  -52.5384 H         1 UNK         0.0800 
    245 H245       -5.2359  -17.3855  -52.9757 H         1 UNK         0.0800 
    246 H246       -3.6166  -16.0896  -50.0594 H         1 UNK         0.0800 
    247 H247       -2.1361  -16.4913  -50.8896 H         1 UNK         0.0800 
@<TRIPOS>BOND
     1    1    2 1    
     2    1  127 1    
     3    1  128 1    
     4    1  129 1    
     5    2    3 2    
     6    2    4 am   BACKBONE|DICT|INTERRES
     7    4    5 1    
     8    4  130 1    
     9    5    6 1    
    10    5   65 1    
    11    5  131 1    
    12    6    7 1    
    13    6  132 1    
    14    6  133 1    
    15    7    8 1    
    16    8    9 1    
    17    8  134 1    
    18    8  135 1    
    19    9   10 ar   
    20    9   14 ar   
    21   10   11 ar   
    22   10  136 1    
    23   11   12 ar   
    24   11  126 1    
    25   12   13 ar   
    26   12  137 1    
    27   13   14 ar   
    28   13   15 1    
    29   14  138 1    
    30   15   16 1    
    31   15  139 1    
    32   15  140 1    
    33   16   17 1    
    34   17   18 1    
    35   17  141 1    
    36   17  142 1    
    37   18   19 1    
    38   18   67 1    
    39   18  143 1    
    40   19   20 am   BACKBONE|DICT|INTERRES
    41   19  144 1    
    42   20   21 2    
    43   20   22 1    
    44   22   23 1    
    45   22   24 1    
    46   22  145 1    
    47   23  146 1    
    48   23  147 1    
    49   23  148 1    
    50   24   25 am   BACKBONE|DICT|INTERRES
    51   24  149 1    
    52   25   26 2    
    53   25   27 1    
    54   27   28 1    
    55   27   29 1    
    56   27  150 1    
    57   28  151 1    
    58   28  152 1    
    59   28  153 1    
    60   29   30 am   BACKBONE|DICT|INTERRES
    61   29  154 1    
    62   30   31 2    
    63   30   32 1    
    64   32   33 1    
    65   32   34 1    
    66   32  155 1    
    67   33  156 1    
    68   33  157 1    
    69   33  158 1    
    70   34   35 am   BACKBONE|DICT|INTERRES
    71   34  159 1    
    72   35   36 2    
    73   35   37 1    
    74   37   38 1    
    75   37   39 1    
    76   37  160 1    
    77   38  161 1    
    78   38  162 1    
    79   38  163 1    
    80   39   40 am   BACKBONE|DICT|INTERRES
    81   39  164 1    
    82   40   41 2    
    83   40   42 1    
    84   42   43 1    
    85   42   44 1    
    86   42  165 1    
    87   43  166 1    
    88   43  167 1    
    89   43  168 1    
    90   44   45 am   BACKBONE|DICT|INTERRES
    91   44  169 1    
    92   45   46 2    
    93   45   47 1    
    94   47   48 1    
    95   47   49 1    
    96   47  170 1    
    97   48  171 1    
    98   48  172 1    
    99   48  173 1    
   100   49   50 am   BACKBONE|DICT|INTERRES
   101   49  174 1    
   102   50   51 2    
   103   50   52 1    
   104   52   53 1    
   105   52   54 1    
   106   52  175 1    
   107   53  176 1    
   108   53  177 1    
   109   53  178 1    
   110   54   55 am   BACKBONE|DICT|INTERRES
   111   54  179 1    
   112   55   56 2    
   113   55   57 1    
   114   57   58 1    
   115   57   59 1    
   116   57  180 1    
   117   58  181 1    
   118   58  182 1    
   119   58  183 1    
   120   59   60 am   BACKBONE|DICT|INTERRES
   121   59  184 1    
   122   60   61 2    
   123   60   62 1    
   124   62   63 1    
   125   62   64 1    
   126   62  185 1    
   127   63  186 1    
   128   63  187 1    
   129   63  188 1    
   130   64   65 am   BACKBONE|DICT|INTERRES
   131   64  189 1    
   132   65   66 2    
   133   67   68 2    
   134   67   69 am   BACKBONE|DICT|INTERRES
   135   69   70 1    
   136   69  190 1    
   137   70   71 1    
   138   70   72 1    
   139   70  191 1    
   140   71  192 1    
   141   71  193 1    
   142   71  194 1    
   143   72   73 2    
   144   72   74 am   BACKBONE|DICT|INTERRES
   145   74   75 1    
   146   74  195 1    
   147   75   76 1    
   148   75   77 1    
   149   75  196 1    
   150   76  197 1    
   151   76  198 1    
   152   76  199 1    
   153   77   78 2    
   154   77   79 am   BACKBONE|DICT|INTERRES
   155   79   80 1    
   156   79  200 1    
   157   80   81 1    
   158   80   82 1    
   159   80  201 1    
   160   81  202 1    
   161   81  203 1    
   162   81  204 1    
   163   82   83 2    
   164   82   84 am   BACKBONE|DICT|INTERRES
   165   84   85 1    
   166   84  205 1    
   167   85   86 1    
   168   85   87 1    
   169   85  206 1    
   170   86  207 1    
   171   86  208 1    
   172   86  209 1    
   173   87   88 2    
   174   87   89 am   BACKBONE|DICT|INTERRES
   175   89   90 1    
   176   89  210 1    
   177   90   91 1    
   178   90   92 1    
   179   90  211 1    
   180   91  212 1    
   181   91  213 1    
   182   91  214 1    
   183   92   93 2    
   184   92   94 am   BACKBONE|DICT|INTERRES
   185   94   95 1    
   186   94  215 1    
   187   95   96 1    
   188   95   97 1    
   189   95  216 1    
   190   96  217 1    
   191   96  218 1    
   192   96  219 1    
   193   97   98 2    
   194   97   99 am   BACKBONE|DICT|INTERRES
   195   99  100 1    
   196   99  220 1    
   197  100  101 1    
   198  100  102 1    
   199  100  221 1    
   200  101  222 1    
   201  101  223 1    
   202  101  224 1    
   203  102  103 2    
   204  102  104 am   BACKBONE|DICT|INTERRES
   205  104  105 1    
   206  104  225 1    
   207  105  106 1    
   208  105  107 1    
   209  105  226 1    
   210  106  227 1    
   211  106  228 1    
   212  106  229 1    
   213  107  108 2    
   214  107  109 am   BACKBONE|DICT|INTERRES
   215  109  110 1    
   216  109  230 1    
   217  110  111 1    
   218  110  112 1    
   219  110  231 1    
   220  111  232 1    
   221  111  233 1    
   222  111  234 1    
   223  112  113 2    
   224  112  114 am   BACKBONE|DICT|INTERRES
   225  114  115 1    
   226  114  235 1    
   227  115  116 1    
   228  115  117 1    
   229  115  236 1    
   230  116  237 1    
   231  116  238 1    
   232  116  239 1    
   233  117  118 2    
   234  117  119 am   BACKBONE|DICT|INTERRES
   235  119  120 1    
   236  119  240 1    
   237  120  121 1    
   238  120  124 1    
   239  120  241 1    
   240  121  122 am   BACKBONE|DICT|INTERRES
   241  121  123 2    
   242  122  242 1    
   243  122  243 1    
   244  124  125 1    
   245  124  244 1    
   246  124  245 1    
   247  125  126 1    
   248  126  246 1    
   249  126  247 1    
@<TRIPOS>SUBSTRUCTURE
     1 UNK         1 GROUP             0       ****    0 ROOT    
