@<TRIPOS>MOLECULE
3R540
247   249    1
SMALL
USER_CHARGES


@<TRIPOS>ATOM
      1 CA         -6.7112   -7.0046  -48.3817 C.3       0 UNK        -0.1800 
      2 C          -5.9270   -8.1511  -49.0047 C.2       0 UNK         0.5000 
      3 O          -5.2944   -7.9665  -50.0448 O.2       0 UNK        -0.5000 
      4 N          -5.9718   -9.3336  -48.3785 N.am      1 UNK        -0.5000 
      5 CA         -5.2310  -10.5293  -48.7862 C.3       1 UNK         0.1400 
      6 C6         -5.8086  -11.7955  -48.1067 C.3       23 UNK        -0.0398 
      7 S7         -5.2581  -13.3461  -48.8952 S.3       23 UNK        -0.2404 
      8 C8         -4.0293  -13.8979  -47.6734 C.3       23 UNK        -0.0205 
      9 C9         -3.2066  -15.0768  -48.1670 C.ar      23 UNK        -0.0193 
     10 C10        -2.3968  -14.9415  -49.2985 C.ar      23 UNK        -0.1150 
     11 C11        -1.5885  -15.9970  -49.7260 C.ar      23 UNK        -0.0193 
     12 C12        -1.6082  -17.2025  -49.0188 C.ar      23 UNK        -0.1150 
     13 C13        -2.4030  -17.3481  -47.8804 C.ar      23 UNK        -0.0193 
     14 C14        -3.2063  -16.2841  -47.4619 C.ar      23 UNK        -0.1150 
     15 C15        -2.3378  -18.6267  -47.0643 C.3       23 UNK        -0.0205 
     16 S16        -3.6843  -19.7760  -47.4538 S.3       23 UNK        -0.2404 
     17 C17        -3.4950  -20.9772  -46.0923 C.3       23 UNK        -0.0398 
     18 CA         -2.7453  -22.2610  -46.5326 C.3       11 UNK         0.1400 
     19 N          -1.2945  -22.1875  -46.3211 N.am      11 UNK        -0.5000 
     20 C          -0.4129  -23.0851  -46.7869 C.2       10 UNK         0.5000 
     21 O          -0.7259  -24.0353  -47.4994 O.2       10 UNK        -0.5000 
     22 CA          1.0500  -22.9445  -46.3343 C.3       10 UNK         0.1400 
     23 CB          1.7977  -21.8784  -47.1472 C.3       10 UNK        -0.1800 
     24 N           1.1515  -22.6495  -44.9072 N.am      10 UNK        -0.5000 
     25 C           0.8530  -23.5226  -43.9359 C.2       9 UNK         0.5000 
     26 O           0.4924  -24.6808  -44.1479 O.2       9 UNK        -0.5000 
     27 CA          0.9416  -23.0033  -42.4891 C.3       9 UNK         0.1400 
     28 CB          2.3713  -23.1499  -41.9481 C.3       9 UNK        -0.1800 
     29 N           0.5214  -21.6063  -42.3721 N.am      9 UNK        -0.5000 
     30 C          -0.7462  -21.1876  -42.5001 C.2       8 UNK         0.5000 
     31 O          -1.6988  -21.9420  -42.6982 O.2       8 UNK        -0.5000 
     32 CA         -0.9775  -19.6628  -42.4681 C.3       8 UNK         0.1400 
     33 CB         -1.0826  -19.1605  -41.0208 C.3       8 UNK        -0.1800 
     34 N           0.0598  -18.9024  -43.1728 N.am      8 UNK        -0.5000 
     35 C           0.3869  -19.0827  -44.4598 C.2       7 UNK         0.5000 
     36 O          -0.1824  -19.8921  -45.1870 O.2       7 UNK        -0.5000 
     37 CA          1.5586  -18.2701  -45.0374 C.3       7 UNK         0.1400 
     38 CB          1.0263  -17.1119  -45.8906 C.3       7 UNK        -0.1800 
     39 N           2.5096  -17.7640  -44.0422 N.am      7 UNK        -0.5000 
     40 C           3.2552  -18.5360  -43.2342 C.2       6 UNK         0.5000 
     41 O           3.1545  -19.7646  -43.1973 O.2       6 UNK        -0.5000 
     42 CA          4.2506  -17.8185  -42.2934 C.3       6 UNK         0.1400 
     43 CB          5.4354  -18.7184  -41.8828 C.3       6 UNK        -0.1800 
     44 N           4.7261  -16.5242  -42.8011 N.am      6 UNK        -0.5000 
     45 C           5.4346  -16.3017  -43.9176 C.2       5 UNK         0.5000 
     46 O           5.8198  -17.1841  -44.6875 O.2       5 UNK        -0.5000 
     47 CA          5.7396  -14.8262  -44.2442 C.3       5 UNK         0.1400 
     48 CB          7.2535  -14.5617  -44.2444 C.3       5 UNK        -0.1800 
     49 N           5.1804  -14.4408  -45.5409 N.am      5 UNK        -0.5000 
     50 C           3.8739  -14.4481  -45.8341 C.2       4 UNK         0.5000 
     51 O           2.9976  -14.7178  -45.0064 O.2       4 UNK        -0.5000 
     52 CA          3.4985  -14.1257  -47.2960 C.3       4 UNK         0.1400 
     53 CB          3.9737  -15.2371  -48.2486 C.3       4 UNK        -0.1800 
     54 N           2.0527  -13.9716  -47.4500 N.am      4 UNK        -0.5000 
     55 C           1.3652  -12.8708  -47.1297 C.2       3 UNK         0.5000 
     56 O           1.8852  -11.8021  -46.7975 O.2       3 UNK        -0.5000 
     57 CA         -0.1679  -13.0045  -47.1450 C.3       3 UNK         0.1400 
     58 CB         -0.7010  -13.1888  -45.7150 C.3       3 UNK        -0.1800 
     59 N          -0.8165  -11.8440  -47.7553 N.am      3 UNK        -0.5000 
     60 C          -0.7359  -11.5222  -49.0517 C.2       2 UNK         0.5000 
     61 O          -0.1675  -12.2193  -49.8939 O.2       2 UNK        -0.5000 
     62 CA         -1.4456  -10.2227  -49.4760 C.3       2 UNK         0.1400 
     63 CB         -0.9603   -9.7077  -50.8432 C.3       2 UNK        -0.1800 
     64 N          -2.8940  -10.4134  -49.5375 N.am      2 UNK        -0.5000 
     65 C          -3.7265  -10.3366  -48.4928 C.2       1 UNK         0.5000 
     66 O          -3.3542  -10.1148  -47.3376 O.2       1 UNK        -0.5000 
     67 C          -3.3578  -23.5102  -45.8710 C.2       11 UNK         0.5000 
     68 O          -4.2479  -24.1138  -46.4669 O.2       11 UNK        -0.5000 
     69 N          -2.8684  -23.9061  -44.6868 N.am      12 UNK        -0.5000 
     70 CA         -3.2836  -25.1403  -44.0147 C.3       12 UNK         0.1400 
     71 CB         -2.6871  -25.1988  -42.6006 C.3       12 UNK        -0.1800 
     72 C          -2.9245  -26.4024  -44.8235 C.2       12 UNK         0.5000 
     73 O          -3.7556  -27.3036  -44.9390 O.2       12 UNK        -0.5000 
     74 N          -1.7170  -26.4236  -45.4052 N.am      13 UNK        -0.5000 
     75 CA         -1.2439  -27.4878  -46.2922 C.3       13 UNK         0.1400 
     76 CB          0.2726  -27.3454  -46.4931 C.3       13 UNK        -0.1800 
     77 C          -1.9778  -27.5086  -47.6482 C.2       13 UNK         0.5000 
     78 O          -2.3215  -28.5850  -48.1374 O.2       13 UNK        -0.5000 
     79 N          -2.2148  -26.3220  -48.2233 N.am      14 UNK        -0.5000 
     80 CA         -2.8761  -26.1222  -49.5157 C.3       14 UNK         0.1400 
     81 CB         -2.4905  -24.7355  -50.0570 C.3       14 UNK        -0.1800 
     82 C          -4.4111  -26.2694  -49.4712 C.2       14 UNK         0.5000 
     83 O          -5.0392  -26.2390  -50.5290 O.2       14 UNK        -0.5000 
     84 N          -4.9904  -26.3970  -48.2687 N.am      15 UNK        -0.5000 
     85 CA         -6.4269  -26.4612  -47.9758 C.3       15 UNK         0.1400 
     86 CB         -7.0647  -27.7315  -48.5767 C.3       15 UNK        -0.1800 
     87 C          -7.1570  -25.1591  -48.3698 C.2       15 UNK         0.5000 
     88 O          -8.1800  -25.1924  -49.0554 O.2       15 UNK        -0.5000 
     89 N          -6.5859  -24.0325  -47.9225 N.am      16 UNK        -0.5000 
     90 CA         -7.0330  -22.6447  -48.0867 C.3       16 UNK         0.1400 
     91 CB         -8.4422  -22.4349  -47.4953 C.3       16 UNK        -0.1800 
     92 C          -6.9047  -22.0881  -49.5197 C.2       16 UNK         0.5000 
     93 O          -7.4001  -20.9914  -49.7862 O.2       16 UNK        -0.5000 
     94 N          -6.2202  -22.8136  -50.4140 N.am      17 UNK        -0.5000 
     95 CA         -5.8885  -22.3637  -51.7632 C.3       17 UNK         0.1400 
     96 CB         -5.6336  -23.5853  -52.6616 C.3       17 UNK        -0.1800 
     97 C          -4.6797  -21.4130  -51.7140 C.2       17 UNK         0.5000 
     98 O          -3.5408  -21.8546  -51.8756 O.2       17 UNK        -0.5000 
     99 N          -4.9494  -20.1227  -51.4746 N.am      18 UNK        -0.5000 
    100 CA        -3.9578  -19.0491  -51.3447 C.3       18 UNK         0.1400 
    101 CB        -4.6841  -17.7164  -51.1103 C.3       18 UNK        -0.1800 
    102 C         -2.9945  -18.9418  -52.5432 C.2       18 UNK         0.5000 
    103 O         -1.7924  -18.7591  -52.3521 O.2       18 UNK        -0.5000 
    104 N         -3.5354  -19.1218  -53.7561 N.am      19 UNK        -0.5000 
    105 CA        -2.7876  -19.1239  -55.0148 C.3       19 UNK         0.1400 
    106 CB        -3.7816  -19.1647  -56.1853 C.3       19 UNK        -0.1800 
    107 C         -1.7679  -20.2747  -55.1332 C.2       19 UNK         0.5000 
    108 O         -0.7567  -20.1104  -55.8163 O.2       19 UNK        -0.5000 
    109 N         -2.0399  -21.4058  -54.4673 N.am      20 UNK        -0.5000 
    110 CA        -1.1152  -22.5319  -54.3580 C.3       20 UNK         0.1400 
    111 CB        -1.9047  -23.8392  -54.1897 C.3       20 UNK        -0.1800 
    112 C         -0.1341  -22.3214  -53.1932 C.2       20 UNK         0.5000 
    113 O          1.0589  -22.5777  -53.3563 O.2       20 UNK        -0.5000 
    114 N         -0.6433  -21.8269  -52.0552 N.am      21 UNK        -0.5000 
    115 CA         0.1126  -21.5434  -50.8331 C.3       21 UNK         0.1400 
    116 CB        -0.8524  -21.0516  -49.7477 C.3       21 UNK        -0.1800 
    117 C          1.2692  -20.5442  -51.0337 C.2       21 UNK         0.5000 
    118 O          2.3757  -20.8033  -50.5599 O.2       21 UNK        -0.5000 
    119 N          1.0100  -19.4532  -51.7660 N.am      22 UNK        -0.5000 
    120 CA         2.0343  -18.4855  -52.2035 C.3       22 UNK         0.1400 
    121 C          2.7856  -18.9018  -53.5063 C.2       22 UNK         0.5000 
    122 N          2.5849  -20.0921  -54.0590 N.am      22 UNK        -0.7600 
    123 O          3.5908  -18.1334  -54.0254 O.2       22 UNK        -0.5000 
    124 C124        1.4782  -17.0391  -52.2968 C.3       23 UNK        -0.0398 
    125 S125        1.0051  -16.3744  -50.6627 S.3       23 UNK        -0.2404 
    126 C126       -0.7121  -15.8383  -50.9596 C.3       23 UNK        -0.0205 
    127 H127       -7.2285   -7.3132  -47.4729 H         1 UNK         0.0600 
    128 H128       -7.4549   -6.6321  -49.0862 H         1 UNK         0.0600 
    129 H129       -6.0391   -6.1847  -48.1284 H         1 UNK         0.0600 
    130 H130       -6.4846   -9.4103  -47.5116 H         1 UNK         0.3000 
    131 H131       -5.3666  -10.6404  -49.8646 H         1 UNK         0.0600 
    132 H132       -6.8970  -11.7828  -48.1802 H         1 UNK         0.0800 
    133 H133       -5.5869  -11.8087  -47.0379 H         1 UNK         0.0800 
    134 H134       -4.5407  -14.1444  -46.7416 H         1 UNK         0.0800 
    135 H135       -3.3526  -13.0753  -47.4467 H         1 UNK         0.0800 
    136 H136       -2.3883  -14.0049  -49.8381 H         1 UNK         0.1150 
    137 H137       -0.9798  -18.0184  -49.3437 H         1 UNK         0.1150 
    138 H138       -3.8127  -16.3918  -46.5736 H         1 UNK         0.1150 
    139 H139       -1.3933  -19.1355  -47.2548 H         1 UNK         0.0800 
    140 H140       -2.3555  -18.3768  -46.0027 H         1 UNK         0.0800 
    141 H141       -4.5115  -21.2003  -45.7614 H         1 UNK         0.0800 
    142 H142       -3.0092  -20.5164  -45.2309 H         1 UNK         0.0800 
    143 H143       -2.9038  -22.3958  -47.6039 H         1 UNK         0.0600 
    144 H144       -0.9444  -21.3999  -45.7780 H         1 UNK         0.3000 
    145 H145        1.5440  -23.9021  -46.5133 H         1 UNK         0.0600 
    146 H146        2.8339  -21.7873  -46.8214 H         1 UNK         0.0600 
    147 H147        1.8147  -22.1458  -48.2037 H         1 UNK         0.0600 
    148 H148        1.3339  -20.8964  -47.0657 H         1 UNK         0.0600 
    149 H149        1.3926  -21.7032  -44.6510 H         1 UNK         0.3000 
    150 H150        0.2793  -23.6153  -41.8731 H         1 UNK         0.0600 
    151 H151        2.7053  -24.1868  -42.0041 H         1 UNK         0.0600 
    152 H152        2.4304  -22.8455  -40.9030 H         1 UNK         0.0600 
    153 H153        3.0808  -22.5446  -42.5140 H         1 UNK         0.0600 
    154 H154        1.2549  -20.9175  -42.2679 H         1 UNK         0.3000 
    155 H155       -1.9276  -19.4651  -42.9687 H         1 UNK         0.0600 
    156 H156       -0.1464  -19.2963  -40.4778 H         1 UNK         0.0600 
    157 H157       -1.8595  -19.6989  -40.4763 H         1 UNK         0.0600 
    158 H158       -1.3395  -18.1016  -40.9884 H         1 UNK         0.0600 
    159 H159        0.5727  -18.2182  -42.6375 H         1 UNK         0.3000 
    160 H160        2.1107  -18.9423  -45.6971 H         1 UNK         0.0600 
    161 H161        0.5391  -16.3510  -45.2808 H         1 UNK         0.0600 
    162 H162        0.3032  -17.4604  -46.6274 H         1 UNK         0.0600 
    163 H163        1.8335  -16.6409  -46.4454 H         1 UNK         0.0600 
    164 H164        2.6592  -16.7622  -44.0330 H         1 UNK         0.3000 
    165 H165        3.6865  -17.5946  -41.3871 H         1 UNK         0.0600 
    166 H166        6.0098  -19.0526  -42.7471 H         1 UNK         0.0600 
    167 H167        6.1145  -18.1945  -41.2101 H         1 UNK         0.0600 
    168 H168        5.0876  -19.6098  -41.3594 H         1 UNK         0.0600 
    169 H169        4.4393  -15.7215  -42.2576 H         1 UNK         0.3000 
    170 H170        5.2857  -14.1899  -43.4813 H         1 UNK         0.0600 
    171 H171        7.7646  -15.1417  -45.0140 H         1 UNK         0.0600 
    172 H172        7.4704  -13.5076  -44.4184 H         1 UNK         0.0600 
    173 H173        7.6956  -14.8298  -43.2839 H         1 UNK         0.0600 
    174 H174        5.8463  -14.2407  -46.2727 H         1 UNK         0.3000 
    175 H175        3.9901  -13.1921  -47.5774 H         1 UNK         0.0600 
    176 H176        3.5454  -16.2063  -47.9923 H         1 UNK         0.0600 
    177 H177        3.6979  -15.0148  -49.2798 H         1 UNK         0.0600 
    178 H178        5.0586  -15.3438  -48.2235 H         1 UNK         0.0600 
    179 H179        1.5438  -14.8066  -47.6989 H         1 UNK         0.3000 
    180 H180       -0.4312  -13.8901  -47.7245 H         1 UNK         0.0600 
    181 H181       -1.7724  -13.3849  -45.7084 H         1 UNK         0.0600 
    182 H182       -0.5167  -12.3063  -45.1013 H         1 UNK         0.0600 
    183 H183       -0.2164  -14.0333  -45.2241 H         1 UNK         0.0600 
    184 H184       -1.3233  -11.2245  -47.1368 H         1 UNK         0.3000 
    185 H185       -1.2107   -9.4559  -48.7344 H         1 UNK         0.0600 
    186 H186       -1.4233   -8.7520  -51.0899 H         1 UNK         0.0600 
    187 H187        0.1195   -9.5538  -50.8409 H         1 UNK         0.0600 
    188 H188       -1.1911  -10.4084  -51.6466 H         1 UNK         0.0600 
    189 H189       -3.2743  -10.6179  -50.4504 H         1 UNK         0.3000 
    190 H190       -2.1803  -23.3325  -44.2124 H         1 UNK         0.3000 
    191 H191       -4.3709  -25.1121  -43.9159 H         1 UNK         0.0600 
    192 H192       -3.0216  -26.0936  -42.0744 H         1 UNK         0.0600 
    193 H193       -2.9961  -24.3386  -42.0067 H         1 UNK         0.0600 
    194 H194       -1.5982  -25.2192  -42.6191 H         1 UNK         0.0600 
    195 H195       -1.0773  -25.6567  -45.2303 H         1 UNK         0.3000 
    196 H196       -1.4293  -28.4448  -45.8000 H         1 UNK         0.0600 
    197 H197        0.5309  -26.3979  -46.9667 H         1 UNK         0.0600 
    198 H198        0.8021  -27.3967  -45.5415 H         1 UNK         0.0600 
    199 H199        0.6597  -28.1453  -47.1255 H         1 UNK         0.0600 
    200 H200       -1.8287  -25.4870  -47.7877 H         1 UNK         0.3000 
    201 H201       -2.4995  -26.8729  -50.2132 H         1 UNK         0.0600 
    202 H202       -2.8788  -24.5846  -51.0628 H         1 UNK         0.0600 
    203 H203       -2.8876  -23.9364  -49.4313 H         1 UNK         0.0600 
    204 H204       -1.4085  -24.6144  -50.1125 H         1 UNK         0.0600 
    205 H205       -4.3836  -26.3521  -47.4607 H         1 UNK         0.3000 
    206 H206       -6.5093  -26.5389  -46.8907 H         1 UNK         0.0600 
    207 H207       -6.5286  -28.6270  -48.2624 H         1 UNK         0.0600 
    208 H208       -8.0985  -27.8395  -48.2469 H         1 UNK         0.0600 
    209 H209       -7.0724  -27.7101  -49.6666 H         1 UNK         0.0600 
    210 H210       -5.7229  -24.1348  -47.3865 H         1 UNK         0.3000 
    211 H211       -6.3428  -22.0501  -47.4867 H         1 UNK         0.0600 
    212 H212       -8.6971  -21.3752  -47.4583 H         1 UNK         0.0600 
    213 H213       -8.5034  -22.8165  -46.4761 H         1 UNK         0.0600 
    214 H214       -9.2102  -22.9319  -48.0883 H         1 UNK         0.0600 
    215 H215       -5.8443  -23.7063  -50.1280 H         1 UNK         0.3000 
    216 H216       -6.7372  -21.8204  -52.1842 H         1 UNK         0.0600 
    217 H217       -4.8125  -24.1987  -52.2936 H         1 UNK         0.0600 
    218 H218       -5.3816  -23.2774  -53.6771 H         1 UNK         0.0600 
    219 H219       -6.5180  -24.2196  -52.7223 H         1 UNK         0.0600 
    220 H220       -5.9103  -19.8692  -51.2863 H         1 UNK         0.3000 
    221 H221       -3.3626  -19.2623  -50.4578 H         1 UNK         0.0600 
    222 H222       -5.2423  -17.7338  -50.1739 H         1 UNK         0.0600 
    223 H223       -5.3821  -17.4883  -51.9165 H         1 UNK         0.0600 
    224 H224       -3.9773  -16.8889  -51.0462 H         1 UNK         0.0600 
    225 H225       -4.5300  -19.2814  -53.8180 H         1 UNK         0.3000 
    226 H226       -2.2296  -18.1868  -55.0711 H         1 UNK         0.0600 
    227 H227       -4.3886  -20.0707  -56.1661 H         1 UNK         0.0600 
    228 H228       -4.4547  -18.3075  -56.1622 H         1 UNK         0.0600 
    229 H229       -3.2591  -19.1399  -57.1426 H         1 UNK         0.0600 
    230 H230       -2.8606  -21.4402  -53.8766 H         1 UNK         0.3000 
    231 H231       -0.5324  -22.6147  -55.2780 H         1 UNK         0.0600 
    232 H232       -2.5134  -23.8339  -53.2869 H         1 UNK         0.0600 
    233 H233       -1.2315  -24.6948  -54.1247 H         1 UNK         0.0600 
    234 H234       -2.5680  -24.0100  -55.0376 H         1 UNK         0.0600 
    235 H235       -1.6473  -21.6790  -52.0048 H         1 UNK         0.3000 
    236 H236        0.5464  -22.4866  -50.4949 H         1 UNK         0.0600 
    237 H237       -1.3633  -20.1442  -50.0566 H         1 UNK         0.0600 
    238 H238       -1.6107  -21.8009  -49.5251 H         1 UNK         0.0600 
    239 H239       -0.3278  -20.8250  -48.8210 H         1 UNK         0.0600 
    240 H240        0.0616  -19.2921  -52.0951 H         1 UNK         0.3000 
    241 H241        2.8171  -18.4611  -51.4430 H         1 UNK         0.0600 
    242 H242        3.0876  -20.3311  -54.8986 H         1 UNK         0.3800 
    243 H243        1.9696  -20.7775  -53.6381 H         1 UNK         0.3800 
    244 H244        0.6378  -17.0050  -52.9912 H         1 UNK         0.0800 
    245 H245        2.2286  -16.3573  -52.7001 H         1 UNK         0.0800 
    246 H246       -0.6916  -14.7980  -51.2883 H         1 UNK         0.0800 
    247 H247       -1.1632  -16.4050  -51.7708 H         1 UNK         0.0800 
@<TRIPOS>BOND
     1    1    2 1    
     2    1  127 1    
     3    1  128 1    
     4    1  129 1    
     5    2    3 2    
     6    2    4 am   BACKBONE|DICT|INTERRES
     7    4    5 1    
     8    4  130 1    
     9    5    6 1    
    10    5   65 1    
    11    5  131 1    
    12    6    7 1    
    13    6  132 1    
    14    6  133 1    
    15    7    8 1    
    16    8    9 1    
    17    8  134 1    
    18    8  135 1    
    19    9   10 ar   
    20    9   14 ar   
    21   10   11 ar   
    22   10  136 1    
    23   11   12 ar   
    24   11  126 1    
    25   12   13 ar   
    26   12  137 1    
    27   13   14 ar   
    28   13   15 1    
    29   14  138 1    
    30   15   16 1    
    31   15  139 1    
    32   15  140 1    
    33   16   17 1    
    34   17   18 1    
    35   17  141 1    
    36   17  142 1    
    37   18   19 1    
    38   18   67 1    
    39   18  143 1    
    40   19   20 am   BACKBONE|DICT|INTERRES
    41   19  144 1    
    42   20   21 2    
    43   20   22 1    
    44   22   23 1    
    45   22   24 1    
    46   22  145 1    
    47   23  146 1    
    48   23  147 1    
    49   23  148 1    
    50   24   25 am   BACKBONE|DICT|INTERRES
    51   24  149 1    
    52   25   26 2    
    53   25   27 1    
    54   27   28 1    
    55   27   29 1    
    56   27  150 1    
    57   28  151 1    
    58   28  152 1    
    59   28  153 1    
    60   29   30 am   BACKBONE|DICT|INTERRES
    61   29  154 1    
    62   30   31 2    
    63   30   32 1    
    64   32   33 1    
    65   32   34 1    
    66   32  155 1    
    67   33  156 1    
    68   33  157 1    
    69   33  158 1    
    70   34   35 am   BACKBONE|DICT|INTERRES
    71   34  159 1    
    72   35   36 2    
    73   35   37 1    
    74   37   38 1    
    75   37   39 1    
    76   37  160 1    
    77   38  161 1    
    78   38  162 1    
    79   38  163 1    
    80   39   40 am   BACKBONE|DICT|INTERRES
    81   39  164 1    
    82   40   41 2    
    83   40   42 1    
    84   42   43 1    
    85   42   44 1    
    86   42  165 1    
    87   43  166 1    
    88   43  167 1    
    89   43  168 1    
    90   44   45 am   BACKBONE|DICT|INTERRES
    91   44  169 1    
    92   45   46 2    
    93   45   47 1    
    94   47   48 1    
    95   47   49 1    
    96   47  170 1    
    97   48  171 1    
    98   48  172 1    
    99   48  173 1    
   100   49   50 am   BACKBONE|DICT|INTERRES
   101   49  174 1    
   102   50   51 2    
   103   50   52 1    
   104   52   53 1    
   105   52   54 1    
   106   52  175 1    
   107   53  176 1    
   108   53  177 1    
   109   53  178 1    
   110   54   55 am   BACKBONE|DICT|INTERRES
   111   54  179 1    
   112   55   56 2    
   113   55   57 1    
   114   57   58 1    
   115   57   59 1    
   116   57  180 1    
   117   58  181 1    
   118   58  182 1    
   119   58  183 1    
   120   59   60 am   BACKBONE|DICT|INTERRES
   121   59  184 1    
   122   60   61 2    
   123   60   62 1    
   124   62   63 1    
   125   62   64 1    
   126   62  185 1    
   127   63  186 1    
   128   63  187 1    
   129   63  188 1    
   130   64   65 am   BACKBONE|DICT|INTERRES
   131   64  189 1    
   132   65   66 2    
   133   67   68 2    
   134   67   69 am   BACKBONE|DICT|INTERRES
   135   69   70 1    
   136   69  190 1    
   137   70   71 1    
   138   70   72 1    
   139   70  191 1    
   140   71  192 1    
   141   71  193 1    
   142   71  194 1    
   143   72   73 2    
   144   72   74 am   BACKBONE|DICT|INTERRES
   145   74   75 1    
   146   74  195 1    
   147   75   76 1    
   148   75   77 1    
   149   75  196 1    
   150   76  197 1    
   151   76  198 1    
   152   76  199 1    
   153   77   78 2    
   154   77   79 am   BACKBONE|DICT|INTERRES
   155   79   80 1    
   156   79  200 1    
   157   80   81 1    
   158   80   82 1    
   159   80  201 1    
   160   81  202 1    
   161   81  203 1    
   162   81  204 1    
   163   82   83 2    
   164   82   84 am   BACKBONE|DICT|INTERRES
   165   84   85 1    
   166   84  205 1    
   167   85   86 1    
   168   85   87 1    
   169   85  206 1    
   170   86  207 1    
   171   86  208 1    
   172   86  209 1    
   173   87   88 2    
   174   87   89 am   BACKBONE|DICT|INTERRES
   175   89   90 1    
   176   89  210 1    
   177   90   91 1    
   178   90   92 1    
   179   90  211 1    
   180   91  212 1    
   181   91  213 1    
   182   91  214 1    
   183   92   93 2    
   184   92   94 am   BACKBONE|DICT|INTERRES
   185   94   95 1    
   186   94  215 1    
   187   95   96 1    
   188   95   97 1    
   189   95  216 1    
   190   96  217 1    
   191   96  218 1    
   192   96  219 1    
   193   97   98 2    
   194   97   99 am   BACKBONE|DICT|INTERRES
   195   99  100 1    
   196   99  220 1    
   197  100  101 1    
   198  100  102 1    
   199  100  221 1    
   200  101  222 1    
   201  101  223 1    
   202  101  224 1    
   203  102  103 2    
   204  102  104 am   BACKBONE|DICT|INTERRES
   205  104  105 1    
   206  104  225 1    
   207  105  106 1    
   208  105  107 1    
   209  105  226 1    
   210  106  227 1    
   211  106  228 1    
   212  106  229 1    
   213  107  108 2    
   214  107  109 am   BACKBONE|DICT|INTERRES
   215  109  110 1    
   216  109  230 1    
   217  110  111 1    
   218  110  112 1    
   219  110  231 1    
   220  111  232 1    
   221  111  233 1    
   222  111  234 1    
   223  112  113 2    
   224  112  114 am   BACKBONE|DICT|INTERRES
   225  114  115 1    
   226  114  235 1    
   227  115  116 1    
   228  115  117 1    
   229  115  236 1    
   230  116  237 1    
   231  116  238 1    
   232  116  239 1    
   233  117  118 2    
   234  117  119 am   BACKBONE|DICT|INTERRES
   235  119  120 1    
   236  119  240 1    
   237  120  121 1    
   238  120  124 1    
   239  120  241 1    
   240  121  122 am   BACKBONE|DICT|INTERRES
   241  121  123 2    
   242  122  242 1    
   243  122  243 1    
   244  124  125 1    
   245  124  244 1    
   246  124  245 1    
   247  125  126 1    
   248  126  246 1    
   249  126  247 1    
@<TRIPOS>SUBSTRUCTURE
     1 UNK         1 GROUP             0       ****    0 ROOT    
