@<TRIPOS>MOLECULE
3R540
247   249    1
SMALL
USER_CHARGES


@<TRIPOS>ATOM
      1 CA          1.7967  -10.8343  -52.7082 C.3       0 UNK        -0.1800 
      2 C           1.5474  -12.0916  -51.8886 C.2       0 UNK         0.5000 
      3 O           0.6395  -12.8606  -52.2066 O.2       0 UNK        -0.5000 
      4 N           2.3336  -12.2967  -50.8220 N.am      1 UNK        -0.5000 
      5 CA          2.3109  -13.4387  -49.8933 C.3       1 UNK         0.1400 
      6 C6          2.4993  -14.8012  -50.6141 C.3       23 UNK        -0.0398 
      7 S7          2.9289  -16.1709  -49.4878 S.3       23 UNK        -0.2404 
      8 C8          1.3137  -16.9920  -49.3140 C.3       23 UNK        -0.0205 
      9 C9          1.1438  -18.1401  -50.2974 C.ar      23 UNK        -0.0193 
     10 C10         0.7813  -17.9011  -51.6245 C.ar      23 UNK        -0.1150 
     11 C11         0.5886  -18.9639  -52.5101 C.ar      23 UNK        -0.0193 
     12 C12         0.7362  -20.2771  -52.0524 C.ar      23 UNK        -0.1150 
     13 C13         1.0873  -20.5375  -50.7224 C.ar      23 UNK        -0.0193 
     14 C14         1.3102  -19.4552  -49.8608 C.ar      23 UNK        -0.1150 
     15 C15         1.1516  -21.9916  -50.2472 C.3       23 UNK        -0.0205 
     16 S16         2.3310  -22.3340  -48.8953 S.3       23 UNK        -0.2404 
     17 C17         1.3796  -21.8210  -47.4226 C.3       23 UNK        -0.0398 
     18 CA          0.8699  -23.0031  -46.5691 C.3       11 UNK         0.1400 
     19 N           0.5861  -22.5852  -45.1949 N.am      11 UNK        -0.5000 
     20 C           0.2660  -23.4066  -44.1863 C.2       10 UNK         0.5000 
     21 O           0.2113  -24.6317  -44.2919 O.2       10 UNK        -0.5000 
     22 CA         -0.1018  -22.7412  -42.8471 C.3       10 UNK         0.1400 
     23 CB          1.1571  -22.3036  -42.0838 C.3       10 UNK        -0.1800 
     24 N          -0.9975  -21.5961  -43.0201 N.am      10 UNK        -0.5000 
     25 C          -2.2462  -21.6852  -43.5009 C.2       9 UNK         0.5000 
     26 O          -2.7880  -22.7499  -43.8009 O.2       9 UNK        -0.5000 
     27 CA         -3.0031  -20.3625  -43.7245 C.3       9 UNK         0.1400 
     28 CB         -3.5933  -19.8443  -42.4047 C.3       9 UNK        -0.1800 
     29 N          -2.1762  -19.3217  -44.3401 N.am      9 UNK        -0.5000 
     30 C          -1.6053  -19.4246  -45.5488 C.2       8 UNK         0.5000 
     31 O          -1.7298  -20.4051  -46.2781 O.2       8 UNK        -0.5000 
     32 CA         -0.6797  -18.2800  -45.9952 C.3       8 UNK         0.1400 
     33 CB         -1.4786  -17.0563  -46.4721 C.3       8 UNK        -0.1800 
     34 N           0.2581  -17.8843  -44.9476 N.am      8 UNK        -0.5000 
     35 C           1.1710  -18.6932  -44.3918 C.2       7 UNK         0.5000 
     36 O           1.3623  -19.8565  -44.7426 O.2       7 UNK        -0.5000 
     37 CA          1.9626  -18.1238  -43.2051 C.3       7 UNK         0.1400 
     38 CB          3.1254  -17.2452  -43.6901 C.3       7 UNK        -0.1800 
     39 N           1.0999  -17.3600  -42.3042 N.am      7 UNK        -0.5000 
     40 C           0.1600  -17.9059  -41.5194 C.2       6 UNK         0.5000 
     41 O          -0.0484  -19.1175  -41.4418 O.2       6 UNK        -0.5000 
     42 CA         -0.7170  -16.9280  -40.7157 C.3       6 UNK         0.1400 
     43 CB         -0.0004  -16.4846  -39.4316 C.3       6 UNK        -0.1800 
     44 N          -1.1017  -15.7469  -41.4918 N.am      6 UNK        -0.5000 
     45 C          -1.9316  -15.7782  -42.5437 C.2       5 UNK         0.5000 
     46 O          -2.4726  -16.8039  -42.9542 O.2       5 UNK        -0.5000 
     47 CA         -2.1701  -14.4512  -43.2882 C.3       5 UNK         0.1400 
     48 CB         -3.2965  -13.6511  -42.6181 C.3       5 UNK        -0.1800 
     49 N          -0.9847  -13.5993  -43.4177 N.am      5 UNK        -0.5000 
     50 C           0.1793  -13.9621  -43.9727 C.2       4 UNK         0.5000 
     51 O           0.4331  -15.1096  -44.3392 O.2       4 UNK        -0.5000 
     52 CA          1.1987  -12.8327  -44.1964 C.3       4 UNK         0.1400 
     53 CB          2.6060  -13.3581  -44.5315 C.3       4 UNK        -0.1800 
     54 N           0.7263  -11.9958  -45.2955 N.am      4 UNK        -0.5000 
     55 C          -0.0908  -10.9418  -45.1590 C.2       3 UNK         0.5000 
     56 O          -0.4501  -10.5002  -44.0666 O.2       3 UNK        -0.5000 
     57 CA         -0.6264  -10.2889  -46.4498 C.3       3 UNK         0.1400 
     58 CB          0.2657   -9.1099  -46.8665 C.3       3 UNK        -0.1800 
     59 N          -0.7345  -11.2226  -47.5717 N.am      3 UNK        -0.5000 
     60 C          -1.5582  -12.2793  -47.6228 C.2       2 UNK         0.5000 
     61 O          -2.3918  -12.5388  -46.7547 O.2       2 UNK        -0.5000 
     62 CA         -1.4192  -13.2156  -48.8404 C.3       2 UNK         0.1400 
     63 CB         -2.4924  -12.8843  -49.8872 C.3       2 UNK        -0.1800 
     64 N          -0.1115  -13.1896  -49.5028 N.am      2 UNK        -0.5000 
     65 C           1.0836  -13.4348  -48.9506 C.2       1 UNK         0.5000 
     66 O           1.2452  -13.6238  -47.7454 O.2       1 UNK        -0.5000 
     67 C          -0.3498  -23.6835  -47.2217 C.2       11 UNK         0.5000 
     68 O          -0.2000  -24.7513  -47.8132 O.2       11 UNK        -0.5000 
     69 N          -1.5373  -23.0805  -47.0673 N.am      12 UNK        -0.5000 
     70 CA         -2.8153  -23.6108  -47.5395 C.3       12 UNK         0.1400 
     71 CB         -3.9385  -22.6028  -47.2528 C.3       12 UNK        -0.1800 
     72 C          -3.1504  -24.9821  -46.9324 C.2       12 UNK         0.5000 
     73 O          -3.5455  -25.8860  -47.6664 O.2       12 UNK        -0.5000 
     74 N          -2.9425  -25.1286  -45.6169 N.am      13 UNK        -0.5000 
     75 CA         -3.1203  -26.3877  -44.8943 C.3       13 UNK         0.1400 
     76 CB         -3.0110  -26.1294  -43.3839 C.3       13 UNK        -0.1800 
     77 C          -2.1296  -27.4827  -45.3361 C.2       13 UNK         0.5000 
     78 O          -2.5263  -28.6419  -45.4610 O.2       13 UNK        -0.5000 
     79 N          -0.8666  -27.0992  -45.5638 N.am      14 UNK        -0.5000 
     80 CA          0.2116  -28.0017  -45.9619 C.3       14 UNK         0.1400 
     81 CB          1.5655  -27.3262  -45.6907 C.3       14 UNK        -0.1800 
     82 C           0.1160  -28.4537  -47.4303 C.2       14 UNK         0.5000 
     83 O           0.2020  -29.6518  -47.7031 O.2       14 UNK        -0.5000 
     84 N          -0.0240  -27.4906  -48.3494 N.am      15 UNK        -0.5000 
     85 CA          0.0793  -27.7082  -49.7942 C.3       15 UNK         0.1400 
     86 CB          0.7420  -26.4717  -50.4271 C.3       15 UNK        -0.1800 
     87 C          -1.2702  -27.9876  -50.4787 C.2       15 UNK         0.5000 
     88 O          -1.2689  -28.3630  -51.6516 O.2       15 UNK        -0.5000 
     89 N          -2.3868  -27.7603  -49.7691 N.am      16 UNK        -0.5000 
     90 CA         -3.7695  -27.7599  -50.2741 C.3       16 UNK         0.1400 
     91 CB         -4.1768  -29.1434  -50.8246 C.3       16 UNK        -0.1800 
     92 C          -4.0435  -26.6060  -51.2680 C.2       16 UNK         0.5000 
     93 O          -4.9581  -26.6981  -52.0891 O.2       16 UNK        -0.5000 
     94 N          -3.2392  -25.5393  -51.1751 N.am      17 UNK        -0.5000 
     95 CA         -3.3423  -24.3169  -51.9675 C.3       17 UNK         0.1400 
     96 CB         -1.9715  -23.6192  -51.9467 C.3       17 UNK        -0.1800 
     97 C          -4.4239  -23.3738  -51.4114 C.2       17 UNK         0.5000 
     98 O          -4.8422  -23.5201  -50.2616 O.2       17 UNK        -0.5000 
     99 N          -4.8258  -22.3878  -52.2231 N.am      18 UNK        -0.5000 
    100 CA        -5.6983  -21.2922  -51.7925 C.3       18 UNK         0.1400 
    101 CB        -6.3004  -20.6049  -53.0268 C.3       18 UNK        -0.1800 
    102 C         -4.9473  -20.2710  -50.9164 C.2       18 UNK         0.5000 
    103 O         -5.5119  -19.7742  -49.9416 O.2       18 UNK        -0.5000 
    104 N         -3.6889  -19.9894  -51.2896 N.am      19 UNK        -0.5000 
    105 CA        -2.7044  -19.0994  -50.6611 C.3       19 UNK         0.1400 
    106 CB        -2.3171  -19.5929  -49.2600 C.3       19 UNK        -0.1800 
    107 C         -3.0961  -17.6096  -50.6557 C.2       19 UNK         0.5000 
    108 O         -2.3858  -16.7831  -51.2289 O.2       19 UNK        -0.5000 
    109 N         -4.2421  -17.2881  -50.0474 N.am      20 UNK        -0.5000 
    110 CA        -4.7978  -15.9372  -49.9582 C.3       20 UNK         0.1400 
    111 CB        -5.9757  -15.9468  -48.9733 C.3       20 UNK        -0.1800 
    112 C         -5.2314  -15.3617  -51.3216 C.2       20 UNK         0.5000 
    113 O         -5.2670  -14.1419  -51.4818 O.2       20 UNK        -0.5000 
    114 N         -5.5470  -16.2466  -52.2765 N.am      21 UNK        -0.5000 
    115 CA        -5.9340  -15.8918  -53.6410 C.3       21 UNK         0.1400 
    116 CB        -6.8043  -17.0198  -54.2161 C.3       21 UNK        -0.1800 
    117 C         -4.7307  -15.6278  -54.5676 C.2       21 UNK         0.5000 
    118 O         -4.9156  -14.9847  -55.6021 O.2       21 UNK        -0.5000 
    119 N         -3.5441  -16.1397  -54.2119 N.am      22 UNK        -0.5000 
    120 CA        -2.3210  -16.0751  -55.0320 C.3       22 UNK         0.1400 
    121 C         -1.1705  -15.2372  -54.4073 C.2       22 UNK         0.5000 
    122 N         -1.1650  -14.9545  -53.1113 N.am      22 UNK        -0.7600 
    123 O         -0.2795  -14.7993  -55.1299 O.2       22 UNK        -0.5000 
    124 C124       -1.8516  -17.4824  -55.4913 C.3       23 UNK        -0.0398 
    125 S125       -1.6229  -18.6804  -54.1313 S.3       23 UNK        -0.2404 
    126 C126        0.1875  -18.6833  -53.9488 C.3       23 UNK        -0.0205 
    127 H127        2.0296  -11.1008  -53.7391 H         1 UNK         0.0600 
    128 H128        2.6263  -10.2486  -52.3116 H         1 UNK         0.0600 
    129 H129        0.9059  -10.2064  -52.7103 H         1 UNK         0.0600 
    130 H130        3.0373  -11.6025  -50.6105 H         1 UNK         0.3000 
    131 H131        3.1827  -13.2900  -49.2536 H         1 UNK         0.0600 
    132 H132        3.3126  -14.7197  -51.3362 H         1 UNK         0.0800 
    133 H133        1.6163  -15.0583  -51.1971 H         1 UNK         0.0800 
    134 H134        1.2358  -17.3578  -48.2902 H         1 UNK         0.0800 
    135 H135        0.4962  -16.2801  -49.4352 H         1 UNK         0.0800 
    136 H136        0.6271  -16.8902  -51.9703 H         1 UNK         0.1150 
    137 H137        0.5540  -21.0985  -52.7313 H         1 UNK         0.1150 
    138 H138        1.5962  -19.6155  -48.8349 H         1 UNK         0.1150 
    139 H139        0.1543  -22.3018  -49.9368 H         1 UNK         0.0800 
    140 H140        1.4234  -22.6344  -51.0859 H         1 UNK         0.0800 
    141 H141        0.5518  -21.1651  -47.6959 H         1 UNK         0.0800 
    142 H142        2.0619  -21.2093  -46.8322 H         1 UNK         0.0800 
    143 H143        1.6665  -23.7476  -46.5066 H         1 UNK         0.0600 
    144 H144        0.6443  -21.5872  -45.0075 H         1 UNK         0.3000 
    145 H145       -0.6234  -23.4846  -42.2407 H         1 UNK         0.0600 
    146 H146        0.9020  -21.8979  -41.1046 H         1 UNK         0.0600 
    147 H147        1.8285  -23.1477  -41.9223 H         1 UNK         0.0600 
    148 H148        1.7144  -21.5392  -42.6255 H         1 UNK         0.0600 
    149 H149       -0.6327  -20.6851  -42.7651 H         1 UNK         0.3000 
    150 H150       -3.8308  -20.5691  -44.4057 H         1 UNK         0.0600 
    151 H151       -4.2141  -20.6040  -41.9282 H         1 UNK         0.0600 
    152 H152       -4.2217  -18.9694  -42.5719 H         1 UNK         0.0600 
    153 H153       -2.8127  -19.5645  -41.6967 H         1 UNK         0.0600 
    154 H154       -2.0618  -18.4614  -43.8107 H         1 UNK         0.3000 
    155 H155       -0.0908  -18.6502  -46.8357 H         1 UNK         0.0600 
    156 H156       -0.8166  -16.2727  -46.8423 H         1 UNK         0.0600 
    157 H157       -2.1595  -17.3184  -47.2820 H         1 UNK         0.0600 
    158 H158       -2.0793  -16.6318  -45.6689 H         1 UNK         0.0600 
    159 H159        0.2065  -16.9200  -44.6256 H         1 UNK         0.3000 
    160 H160        2.3822  -18.9630  -42.6461 H         1 UNK         0.0600 
    161 H161        2.7771  -16.4073  -44.2938 H         1 UNK         0.0600 
    162 H162        3.8159  -17.8233  -44.3054 H         1 UNK         0.0600 
    163 H163        3.6946  -16.8431  -42.8520 H         1 UNK         0.0600 
    164 H164        1.1554  -16.3541  -42.3684 H         1 UNK         0.3000 
    165 H165       -1.6281  -17.4585  -40.4301 H         1 UNK         0.0600 
    166 H166       -0.6456  -15.8562  -38.8173 H         1 UNK         0.0600 
    167 H167        0.2836  -17.3465  -38.8264 H         1 UNK         0.0600 
    168 H168        0.9084  -15.9221  -39.6490 H         1 UNK         0.0600 
    169 H169       -0.6946  -14.8634  -41.2226 H         1 UNK         0.3000 
    170 H170       -2.4936  -14.7001  -44.3005 H         1 UNK         0.0600 
    171 H171       -4.2024  -14.2521  -42.5268 H         1 UNK         0.0600 
    172 H172       -3.0167  -13.3228  -41.6164 H         1 UNK         0.0600 
    173 H173       -3.5527  -12.7672  -43.2028 H         1 UNK         0.0600 
    174 H174       -1.1078  -12.6235  -43.1816 H         1 UNK         0.3000 
    175 H175        1.2709  -12.2482  -43.2768 H         1 UNK         0.0600 
    176 H176        2.9975  -13.9663  -43.7155 H         1 UNK         0.0600 
    177 H177        2.6084  -13.9740  -45.4316 H         1 UNK         0.0600 
    178 H178        3.3048  -12.5366  -44.6885 H         1 UNK         0.0600 
    179 H179        0.9096  -12.3578  -46.2265 H         1 UNK         0.3000 
    180 H180       -1.6256   -9.9049  -46.2346 H         1 UNK         0.0600 
    181 H181        1.2755   -9.4381  -47.1167 H         1 UNK         0.0600 
    182 H182        0.3482   -8.3790  -46.0610 H         1 UNK         0.0600 
    183 H183       -0.1443   -8.5912  -47.7333 H         1 UNK         0.0600 
    184 H184       -0.0877  -11.0917  -48.3350 H         1 UNK         0.3000 
    185 H185       -1.5846  -14.2348  -48.4854 H         1 UNK         0.0600 
    186 H186       -3.4906  -12.8945  -49.4476 H         1 UNK         0.0600 
    187 H187       -2.3371  -11.8961  -50.3215 H         1 UNK         0.0600 
    188 H188       -2.4871  -13.6100  -50.7009 H         1 UNK         0.0600 
    189 H189       -0.1189  -13.0291  -50.5064 H         1 UNK         0.3000 
    190 H190       -1.5742  -22.1741  -46.6036 H         1 UNK         0.3000 
    191 H191       -2.7358  -23.7382  -48.6198 H         1 UNK         0.0600 
    192 H192       -4.0050  -22.3596  -46.1929 H         1 UNK         0.0600 
    193 H193       -4.9074  -22.9983  -47.5597 H         1 UNK         0.0600 
    194 H194       -3.7842  -21.6750  -47.8010 H         1 UNK         0.0600 
    195 H195       -2.6498  -24.3235  -45.0719 H         1 UNK         0.3000 
    196 H196       -4.1287  -26.7513  -45.1025 H         1 UNK         0.0600 
    197 H197       -3.1596  -27.0497  -42.8177 H         1 UNK         0.0600 
    198 H198       -3.7656  -25.4165  -43.0510 H         1 UNK         0.0600 
    199 H199       -2.0333  -25.7301  -43.1128 H         1 UNK         0.0600 
    200 H200       -0.6109  -26.1322  -45.3910 H         1 UNK         0.3000 
    201 H201        0.1565  -28.8953  -45.3363 H         1 UNK         0.0600 
    202 H202        1.6843  -27.0961  -44.6317 H         1 UNK         0.0600 
    203 H203        1.6706  -26.3939  -46.2470 H         1 UNK         0.0600 
    204 H204        2.3929  -27.9765  -45.9772 H         1 UNK         0.0600 
    205 H205       -0.0966  -26.5193  -48.0468 H         1 UNK         0.3000 
    206 H206        0.7259  -28.5668  -49.9870 H         1 UNK         0.0600 
    207 H207        1.7022  -26.2537  -49.9591 H         1 UNK         0.0600 
    208 H208        0.9274  -26.6273  -51.4905 H         1 UNK         0.0600 
    209 H209        0.1157  -25.5840  -50.3327 H         1 UNK         0.0600 
    210 H210       -2.2831  -27.4343  -48.8160 H         1 UNK         0.3000 
    211 H211       -4.4081  -27.5670  -49.4123 H         1 UNK         0.0600 
    212 H212       -3.6741  -29.3756  -51.7635 H         1 UNK         0.0600 
    213 H213       -5.2497  -29.1844  -51.0150 H         1 UNK         0.0600 
    214 H214       -3.9446  -29.9354  -50.1126 H         1 UNK         0.0600 
    215 H215       -2.5570  -25.5376  -50.4327 H         1 UNK         0.3000 
    216 H216       -3.5957  -24.5773  -52.9973 H         1 UNK         0.0600 
    217 H217       -1.6943  -23.3202  -50.9357 H         1 UNK         0.0600 
    218 H218       -1.9715  -22.7211  -52.5654 H         1 UNK         0.0600 
    219 H219       -1.1881  -24.2740  -52.3291 H         1 UNK         0.0600 
    220 H220       -4.4619  -22.3405  -53.1639 H         1 UNK         0.3000 
    221 H221       -6.5184  -21.7043  -51.2003 H         1 UNK         0.0600 
    222 H222       -6.9643  -19.7907  -52.7335 H         1 UNK         0.0600 
    223 H223       -6.8906  -21.3053  -53.6180 H         1 UNK         0.0600 
    224 H224       -5.5284  -20.1878  -53.6745 H         1 UNK         0.0600 
    225 H225       -3.3557  -20.4406  -52.1289 H         1 UNK         0.3000 
    226 H226       -1.8115  -19.1817  -51.2744 H         1 UNK         0.0600 
    227 H227       -2.0035  -20.6368  -49.2800 H         1 UNK         0.0600 
    228 H228       -1.4797  -19.0154  -48.8705 H         1 UNK         0.0600 
    229 H229       -3.1394  -19.5006  -48.5506 H         1 UNK         0.0600 
    230 H230       -4.8030  -18.0504  -49.6748 H         1 UNK         0.3000 
    231 H231       -4.0217  -15.2862  -49.5538 H         1 UNK         0.0600 
    232 H232       -6.7742  -16.6096  -49.3092 H         1 UNK         0.0600 
    233 H233       -6.4005  -14.9483  -48.8614 H         1 UNK         0.0600 
    234 H234       -5.6588  -16.2772  -47.9839 H         1 UNK         0.0600 
    235 H235       -5.5015  -17.2289  -52.0521 H         1 UNK         0.3000 
    236 H236       -6.5371  -14.9817  -53.6134 H         1 UNK         0.0600 
    237 H237       -7.6629  -17.2258  -53.5767 H         1 UNK         0.0600 
    238 H238       -7.1905  -16.7499  -55.1998 H         1 UNK         0.0600 
    239 H239       -6.2375  -17.9433  -54.3322 H         1 UNK         0.0600 
    240 H240       -3.4536  -16.6201  -53.3282 H         1 UNK         0.3000 
    241 H241       -2.5520  -15.5360  -55.9524 H         1 UNK         0.0600 
    242 H242       -0.4488  -14.3255  -52.7627 H         1 UNK         0.3800 
    243 H243       -1.7962  -15.4160  -52.4654 H         1 UNK         0.3800 
    244 H244       -0.9416  -17.4156  -56.0901 H         1 UNK         0.0800 
    245 H245       -2.6036  -17.9009  -56.1611 H         1 UNK         0.0800 
    246 H246        0.6182  -19.4305  -54.6169 H         1 UNK         0.0800 
    247 H247        0.5988  -17.7210  -54.2572 H         1 UNK         0.0800 
@<TRIPOS>BOND
     1    1    2 1    
     2    1  127 1    
     3    1  128 1    
     4    1  129 1    
     5    2    3 2    
     6    2    4 am   BACKBONE|DICT|INTERRES
     7    4    5 1    
     8    4  130 1    
     9    5    6 1    
    10    5   65 1    
    11    5  131 1    
    12    6    7 1    
    13    6  132 1    
    14    6  133 1    
    15    7    8 1    
    16    8    9 1    
    17    8  134 1    
    18    8  135 1    
    19    9   10 ar   
    20    9   14 ar   
    21   10   11 ar   
    22   10  136 1    
    23   11   12 ar   
    24   11  126 1    
    25   12   13 ar   
    26   12  137 1    
    27   13   14 ar   
    28   13   15 1    
    29   14  138 1    
    30   15   16 1    
    31   15  139 1    
    32   15  140 1    
    33   16   17 1    
    34   17   18 1    
    35   17  141 1    
    36   17  142 1    
    37   18   19 1    
    38   18   67 1    
    39   18  143 1    
    40   19   20 am   BACKBONE|DICT|INTERRES
    41   19  144 1    
    42   20   21 2    
    43   20   22 1    
    44   22   23 1    
    45   22   24 1    
    46   22  145 1    
    47   23  146 1    
    48   23  147 1    
    49   23  148 1    
    50   24   25 am   BACKBONE|DICT|INTERRES
    51   24  149 1    
    52   25   26 2    
    53   25   27 1    
    54   27   28 1    
    55   27   29 1    
    56   27  150 1    
    57   28  151 1    
    58   28  152 1    
    59   28  153 1    
    60   29   30 am   BACKBONE|DICT|INTERRES
    61   29  154 1    
    62   30   31 2    
    63   30   32 1    
    64   32   33 1    
    65   32   34 1    
    66   32  155 1    
    67   33  156 1    
    68   33  157 1    
    69   33  158 1    
    70   34   35 am   BACKBONE|DICT|INTERRES
    71   34  159 1    
    72   35   36 2    
    73   35   37 1    
    74   37   38 1    
    75   37   39 1    
    76   37  160 1    
    77   38  161 1    
    78   38  162 1    
    79   38  163 1    
    80   39   40 am   BACKBONE|DICT|INTERRES
    81   39  164 1    
    82   40   41 2    
    83   40   42 1    
    84   42   43 1    
    85   42   44 1    
    86   42  165 1    
    87   43  166 1    
    88   43  167 1    
    89   43  168 1    
    90   44   45 am   BACKBONE|DICT|INTERRES
    91   44  169 1    
    92   45   46 2    
    93   45   47 1    
    94   47   48 1    
    95   47   49 1    
    96   47  170 1    
    97   48  171 1    
    98   48  172 1    
    99   48  173 1    
   100   49   50 am   BACKBONE|DICT|INTERRES
   101   49  174 1    
   102   50   51 2    
   103   50   52 1    
   104   52   53 1    
   105   52   54 1    
   106   52  175 1    
   107   53  176 1    
   108   53  177 1    
   109   53  178 1    
   110   54   55 am   BACKBONE|DICT|INTERRES
   111   54  179 1    
   112   55   56 2    
   113   55   57 1    
   114   57   58 1    
   115   57   59 1    
   116   57  180 1    
   117   58  181 1    
   118   58  182 1    
   119   58  183 1    
   120   59   60 am   BACKBONE|DICT|INTERRES
   121   59  184 1    
   122   60   61 2    
   123   60   62 1    
   124   62   63 1    
   125   62   64 1    
   126   62  185 1    
   127   63  186 1    
   128   63  187 1    
   129   63  188 1    
   130   64   65 am   BACKBONE|DICT|INTERRES
   131   64  189 1    
   132   65   66 2    
   133   67   68 2    
   134   67   69 am   BACKBONE|DICT|INTERRES
   135   69   70 1    
   136   69  190 1    
   137   70   71 1    
   138   70   72 1    
   139   70  191 1    
   140   71  192 1    
   141   71  193 1    
   142   71  194 1    
   143   72   73 2    
   144   72   74 am   BACKBONE|DICT|INTERRES
   145   74   75 1    
   146   74  195 1    
   147   75   76 1    
   148   75   77 1    
   149   75  196 1    
   150   76  197 1    
   151   76  198 1    
   152   76  199 1    
   153   77   78 2    
   154   77   79 am   BACKBONE|DICT|INTERRES
   155   79   80 1    
   156   79  200 1    
   157   80   81 1    
   158   80   82 1    
   159   80  201 1    
   160   81  202 1    
   161   81  203 1    
   162   81  204 1    
   163   82   83 2    
   164   82   84 am   BACKBONE|DICT|INTERRES
   165   84   85 1    
   166   84  205 1    
   167   85   86 1    
   168   85   87 1    
   169   85  206 1    
   170   86  207 1    
   171   86  208 1    
   172   86  209 1    
   173   87   88 2    
   174   87   89 am   BACKBONE|DICT|INTERRES
   175   89   90 1    
   176   89  210 1    
   177   90   91 1    
   178   90   92 1    
   179   90  211 1    
   180   91  212 1    
   181   91  213 1    
   182   91  214 1    
   183   92   93 2    
   184   92   94 am   BACKBONE|DICT|INTERRES
   185   94   95 1    
   186   94  215 1    
   187   95   96 1    
   188   95   97 1    
   189   95  216 1    
   190   96  217 1    
   191   96  218 1    
   192   96  219 1    
   193   97   98 2    
   194   97   99 am   BACKBONE|DICT|INTERRES
   195   99  100 1    
   196   99  220 1    
   197  100  101 1    
   198  100  102 1    
   199  100  221 1    
   200  101  222 1    
   201  101  223 1    
   202  101  224 1    
   203  102  103 2    
   204  102  104 am   BACKBONE|DICT|INTERRES
   205  104  105 1    
   206  104  225 1    
   207  105  106 1    
   208  105  107 1    
   209  105  226 1    
   210  106  227 1    
   211  106  228 1    
   212  106  229 1    
   213  107  108 2    
   214  107  109 am   BACKBONE|DICT|INTERRES
   215  109  110 1    
   216  109  230 1    
   217  110  111 1    
   218  110  112 1    
   219  110  231 1    
   220  111  232 1    
   221  111  233 1    
   222  111  234 1    
   223  112  113 2    
   224  112  114 am   BACKBONE|DICT|INTERRES
   225  114  115 1    
   226  114  235 1    
   227  115  116 1    
   228  115  117 1    
   229  115  236 1    
   230  116  237 1    
   231  116  238 1    
   232  116  239 1    
   233  117  118 2    
   234  117  119 am   BACKBONE|DICT|INTERRES
   235  119  120 1    
   236  119  240 1    
   237  120  121 1    
   238  120  124 1    
   239  120  241 1    
   240  121  122 am   BACKBONE|DICT|INTERRES
   241  121  123 2    
   242  122  242 1    
   243  122  243 1    
   244  124  125 1    
   245  124  244 1    
   246  124  245 1    
   247  125  126 1    
   248  126  246 1    
   249  126  247 1    
@<TRIPOS>SUBSTRUCTURE
     1 UNK         1 GROUP             0       ****    0 ROOT    
