@<TRIPOS>MOLECULE
3R540
247   249    1
SMALL
USER_CHARGES


@<TRIPOS>ATOM
      1 CA         -1.0024  -15.5319  -48.7765 C.3       0 UNK        -0.1800 
      2 C          -0.4240  -14.1268  -48.7552 C.2       0 UNK         0.5000 
      3 O          -1.0343  -13.2235  -48.1844 O.2       0 UNK        -0.5000 
      4 N           0.7457  -13.9372  -49.3791 N.am      1 UNK        -0.5000 
      5 CA          1.4364  -12.6455  -49.4677 C.3       1 UNK         0.1400 
      6 C6          2.3734  -12.5816  -50.7012 C.3       23 UNK        -0.0398 
      7 S7          3.8288  -13.6889  -50.6224 S.3       23 UNK        -0.2404 
      8 C8          3.5450  -14.8208  -52.0182 C.3       23 UNK        -0.0205 
      9 C9          2.5602  -15.9290  -51.6780 C.ar      23 UNK        -0.0193 
     10 C10         1.3146  -15.9927  -52.3100 C.ar      23 UNK        -0.1150 
     11 C11         0.4435  -17.0548  -52.0490 C.ar      23 UNK        -0.0193 
     12 C12         0.8213  -18.0519  -51.1473 C.ar      23 UNK        -0.1150 
     13 C13         2.0456  -17.9776  -50.4796 C.ar      23 UNK        -0.0193 
     14 C14         2.9149  -16.9192  -50.7564 C.ar      23 UNK        -0.1150 
     15 C15         2.4342  -19.0446  -49.4683 C.3       23 UNK        -0.0205 
     16 S16         2.0410  -18.5434  -47.7612 S.3       23 UNK        -0.2404 
     17 C17         0.2245  -18.7158  -47.7204 C.3       23 UNK        -0.0398 
     18 CA         -0.2300  -20.1456  -47.3602 C.3       11 UNK         0.1400 
     19 N           0.0871  -20.5031  -45.9762 N.am      11 UNK        -0.5000 
     20 C           0.0145  -21.7441  -45.4798 C.2       10 UNK         0.5000 
     21 O          -0.2763  -22.7292  -46.1575 O.2       10 UNK        -0.5000 
     22 CA          0.2499  -21.9054  -43.9662 C.3       10 UNK         0.1400 
     23 CB          1.7498  -21.9587  -43.6403 C.3       10 UNK        -0.1800 
     24 N          -0.3956  -20.8476  -43.1853 N.am      10 UNK        -0.5000 
     25 C          -1.7233  -20.6738  -43.1138 C.2       9 UNK         0.5000 
     26 O          -2.5359  -21.4250  -43.6522 O.2       9 UNK        -0.5000 
     27 CA         -2.2332  -19.4349  -42.3554 C.3       9 UNK         0.1400 
     28 CB         -2.2745  -19.7013  -40.8437 C.3       9 UNK        -0.1800 
     29 N          -1.4417  -18.2343  -42.6280 N.am      9 UNK        -0.5000 
     30 C          -1.3398  -17.6452  -43.8287 C.2       8 UNK         0.5000 
     31 O          -1.9469  -18.0253  -44.8285 O.2       8 UNK        -0.5000 
     32 CA         -0.3467  -16.4748  -43.9535 C.3       8 UNK         0.1400 
     33 CB         -0.9669  -15.1679  -43.4403 C.3       8 UNK        -0.1800 
     34 N           0.9139  -16.7308  -43.2572 N.am      8 UNK        -0.5000 
     35 C           1.7442  -17.7445  -43.5404 C.2       7 UNK         0.5000 
     36 O           1.5504  -18.5502  -44.4479 O.2       7 UNK        -0.5000 
     37 CA          2.9568  -17.9302  -42.6151 C.3       7 UNK         0.1400 
     38 CB          4.0830  -16.9505  -42.9675 C.3       7 UNK        -0.1800 
     39 N           2.5884  -17.7721  -41.2101 N.am      7 UNK        -0.5000 
     40 C           1.8442  -18.6505  -40.5248 C.2       6 UNK         0.5000 
     41 O           1.4256  -19.7084  -40.9958 O.2       6 UNK        -0.5000 
     42 CA          1.4769  -18.2572  -39.0827 C.3       6 UNK         0.1400 
     43 CB          2.6182  -18.6080  -38.1164 C.3       6 UNK        -0.1800 
     44 N           1.1500  -16.8352  -38.9544 N.am      6 UNK        -0.5000 
     45 C           0.0711  -16.2600  -39.5032 C.2       5 UNK         0.5000 
     46 O          -0.7663  -16.8712  -40.1650 O.2       5 UNK        -0.5000 
     47 CA         -0.0796  -14.7405  -39.3135 C.3       5 UNK         0.1400 
     48 CB         -0.7519  -14.4288  -37.9681 C.3       5 UNK        -0.1800 
     49 N           1.1822  -14.0014  -39.4102 N.am      5 UNK        -0.5000 
     50 C           1.9630  -13.9626  -40.4974 C.2       4 UNK         0.5000 
     51 O           1.7634  -14.6320  -41.5129 O.2       4 UNK        -0.5000 
     52 CA          3.1886  -13.0381  -40.4348 C.3       4 UNK         0.1400 
     53 CB          4.4799  -13.8550  -40.2750 C.3       4 UNK        -0.1800 
     54 N           3.2776  -12.2215  -41.6440 N.am      4 UNK        -0.5000 
     55 C           2.4844  -11.1741  -41.9110 C.2       3 UNK         0.5000 
     56 O           1.6303  -10.7495  -41.1313 O.2       3 UNK        -0.5000 
     57 CA          2.6843  -10.4699  -43.2662 C.3       3 UNK         0.1400 
     58 CB          3.6487   -9.2831  -43.1150 C.3       3 UNK        -0.1800 
     59 N           3.1935  -11.3678  -44.3048 N.am      3 UNK        -0.5000 
     60 C           2.4300  -12.2109  -45.0110 C.2       2 UNK         0.5000 
     61 O           1.2113  -12.3242  -44.8648 O.2       2 UNK        -0.5000 
     62 CA          3.1662  -13.0921  -46.0370 C.3       2 UNK         0.1400 
     63 CB          3.4365  -14.4845  -45.4505 C.3       2 UNK        -0.1800 
     64 N           2.4257  -13.2421  -47.2877 N.am      2 UNK        -0.5000 
     65 C           2.1710  -12.2578  -48.1621 C.2       1 UNK         0.5000 
     66 O           2.5169  -11.0873  -47.9909 O.2       1 UNK        -0.5000 
     67 C          -1.7249  -20.3487  -47.6886 C.2       11 UNK         0.5000 
     68 O          -2.0382  -20.8297  -48.7770 O.2       11 UNK        -0.5000 
     69 N          -2.6219  -20.0234  -46.7470 N.am      12 UNK        -0.5000 
     70 CA         -4.0605  -20.2765  -46.8599 C.3       12 UNK         0.1400 
     71 CB         -4.8082  -19.5695  -45.7203 C.3       12 UNK        -0.1800 
     72 C          -4.3906  -21.7805  -46.8882 C.2       12 UNK         0.5000 
     73 O          -5.2356  -22.2029  -47.6782 O.2       12 UNK        -0.5000 
     74 N          -3.6833  -22.5710  -46.0685 N.am      13 UNK        -0.5000 
     75 CA         -3.7472  -24.0319  -46.0792 C.3       13 UNK         0.1400 
     76 CB         -2.9827  -24.6028  -44.8760 C.3       13 UNK        -0.1800 
     77 C          -3.2341  -24.6282  -47.4026 C.2       13 UNK         0.5000 
     78 O          -3.8627  -25.5441  -47.9286 O.2       13 UNK        -0.5000 
     79 N          -2.1428  -24.0714  -47.9489 N.am      14 UNK        -0.5000 
     80 CA         -1.6030  -24.4297  -49.2627 C.3       14 UNK         0.1400 
     81 CB         -0.2421  -23.7522  -49.4803 C.3       14 UNK        -0.1800 
     82 C          -2.5711  -24.1017  -50.4150 C.2       14 UNK         0.5000 
     83 O          -2.7097  -24.9113  -51.3335 O.2       14 UNK        -0.5000 
     84 N          -3.2518  -22.9486  -50.3342 N.am      15 UNK        -0.5000 
     85 CA         -4.3148  -22.5380  -51.2549 C.3       15 UNK         0.1400 
     86 CB         -4.7295  -21.0856  -50.9822 C.3       15 UNK        -0.1800 
     87 C          -5.5200  -23.4898  -51.2292 C.2       15 UNK         0.5000 
     88 O          -5.9899  -23.8940  -52.2926 O.2       15 UNK        -0.5000 
     89 N          -5.9580  -23.8784  -50.0252 N.am      16 UNK        -0.5000 
     90 CA         -7.0075  -24.8774  -49.8225 C.3       16 UNK         0.1400 
     91 CB         -7.3924  -24.9187  -48.3358 C.3       16 UNK        -0.1800 
     92 C          -6.6090  -26.2791  -50.3281 C.2       16 UNK         0.5000 
     93 O          -7.4519  -26.9831  -50.8860 O.2       16 UNK        -0.5000 
     94 N          -5.3388  -26.6544  -50.1261 N.am      17 UNK        -0.5000 
     95 CA         -4.7792  -27.9441  -50.5183 C.3       17 UNK         0.1400 
     96 CB         -3.4553  -28.1867  -49.7766 C.3       17 UNK        -0.1800 
     97 C          -4.5836  -28.0952  -52.0363 C.2       17 UNK         0.5000 
     98 O          -5.0254  -29.1038  -52.5902 O.2       17 UNK        -0.5000 
     99 N          -3.9025  -27.1332  -52.6787 N.am      18 UNK        -0.5000 
    100 CA        -3.4649  -27.2765  -54.0711 C.3       18 UNK         0.1400 
    101 CB        -2.1867  -28.1351  -54.1272 C.3       18 UNK        -0.1800 
    102 C         -3.2452  -25.9584  -54.8307 C.2       18 UNK         0.5000 
    103 O         -3.4393  -25.9526  -56.0473 O.2       18 UNK        -0.5000 
    104 N         -2.8235  -24.8771  -54.1549 N.am      19 UNK        -0.5000 
    105 CA        -2.4500  -23.6176  -54.8197 C.3       19 UNK         0.1400 
    106 CB        -1.4878  -22.8012  -53.9381 C.3       19 UNK        -0.1800 
    107 C         -3.6468  -22.7870  -55.3360 C.2       19 UNK         0.5000 
    108 O         -3.4337  -21.8635  -56.1229 O.2       19 UNK        -0.5000 
    109 N         -4.8704  -23.1576  -54.9261 N.am      20 UNK        -0.5000 
    110 CA        -6.1761  -22.7765  -55.4733 C.3       20 UNK         0.1400 
    111 CB        -6.4338  -23.5669  -56.7747 C.3       20 UNK        -0.1800 
    112 C         -6.3690  -21.2566  -55.6347 C.2       20 UNK         0.5000 
    113 O         -6.6648  -20.5753  -54.6515 O.2       20 UNK        -0.5000 
    114 N         -6.1778  -20.7562  -56.8645 N.am      21 UNK        -0.5000 
    115 CA        -6.3112  -19.3571  -57.2807 C.3       21 UNK         0.1400 
    116 CB        -6.0521  -19.2678  -58.7927 C.3       21 UNK        -0.1800 
    117 C         -5.4129  -18.3611  -56.5193 C.2       21 UNK         0.5000 
    118 O         -5.7057  -17.1645  -56.5305 O.2       21 UNK        -0.5000 
    119 N         -4.3630  -18.8613  -55.8531 N.am      22 UNK        -0.5000 
    120 CA        -3.5700  -18.1077  -54.8696 C.3       22 UNK         0.1400 
    121 C         -4.3778  -17.6663  -53.6080 C.2       22 UNK         0.5000 
    122 N         -5.4763  -18.3247  -53.2547 N.am      22 UNK        -0.7600 
    123 O         -4.0172  -16.6960  -52.9497 O.2       22 UNK        -0.5000 
    124 C124       -2.2810  -18.8818  -54.4740 C.3       23 UNK        -0.0398 
    125 S125       -0.7903  -17.8319  -54.3966 S.3       23 UNK        -0.2404 
    126 C126       -0.9134  -17.1259  -52.7248 C.3       23 UNK        -0.0205 
    127 H127       -0.3405  -16.2201  -49.2981 H         1 UNK         0.0600 
    128 H128       -1.9659  -15.5360  -49.2861 H         1 UNK         0.0600 
    129 H129       -1.1497  -15.8942  -47.7592 H         1 UNK         0.0600 
    130 H130        1.2071  -14.7119  -49.8369 H         1 UNK         0.3000 
    131 H131        0.6741  -11.8781  -49.6204 H         1 UNK         0.0600 
    132 H132        1.7994  -12.7950  -51.6037 H         1 UNK         0.0800 
    133 H133        2.7414  -11.5624  -50.8307 H         1 UNK         0.0800 
    134 H134        4.4978  -15.2762  -52.2920 H         1 UNK         0.0800 
    135 H135        3.2203  -14.2565  -52.8938 H         1 UNK         0.0800 
    136 H136        1.0284  -15.2296  -53.0204 H         1 UNK         0.1150 
    137 H137        0.1519  -18.8784  -50.9531 H         1 UNK         0.1150 
    138 H138        3.8726  -16.8675  -50.2572 H         1 UNK         0.1150 
    139 H139        1.9429  -19.9910  -49.6990 H         1 UNK         0.0800 
    140 H140        3.5059  -19.2367  -49.5374 H         1 UNK         0.0800 
    141 H141       -0.1827  -18.4166  -48.6836 H         1 UNK         0.0800 
    142 H142       -0.1677  -18.0029  -46.9943 H         1 UNK         0.0800 
    143 H143        0.3189  -20.8375  -48.0020 H         1 UNK         0.0600 
    144 H144        0.4117  -19.7511  -45.3728 H         1 UNK         0.3000 
    145 H145       -0.1918  -22.8571  -43.6636 H         1 UNK         0.0600 
    146 H146        2.2599  -21.0372  -43.9192 H         1 UNK         0.0600 
    147 H147        1.9158  -22.1232  -42.5755 H         1 UNK         0.0600 
    148 H148        2.2347  -22.7756  -44.1760 H         1 UNK         0.0600 
    149 H149        0.2132  -20.2086  -42.6869 H         1 UNK         0.3000 
    150 H150       -3.2539  -19.2403  -42.6901 H         1 UNK         0.0600 
    151 H151       -2.8653  -20.5902  -40.6192 H         1 UNK         0.0600 
    152 H152       -2.7284  -18.8665  -40.3095 H         1 UNK         0.0600 
    153 H153       -1.2764  -19.8573  -40.4339 H         1 UNK         0.0600 
    154 H154       -0.9557  -17.8226  -41.8363 H         1 UNK         0.3000 
    155 H155       -0.1155  -16.3456  -45.0128 H         1 UNK         0.0600 
    156 H156       -0.2831  -14.3292  -43.5730 H         1 UNK         0.0600 
    157 H157       -1.8825  -14.9312  -43.9834 H         1 UNK         0.0600 
    158 H158       -1.2181  -15.2297  -42.3816 H         1 UNK         0.0600 
    159 H159        1.1664  -16.0795  -42.5174 H         1 UNK         0.3000 
    160 H160        3.3352  -18.9445  -42.7595 H         1 UNK         0.0600 
    161 H161        4.3791  -17.0564  -44.0119 H         1 UNK         0.0600 
    162 H162        4.9682  -17.1298  -42.3573 H         1 UNK         0.0600 
    163 H163        3.7734  -15.9178  -42.8142 H         1 UNK         0.0600 
    164 H164        2.8428  -16.9022  -40.7670 H         1 UNK         0.3000 
    165 H165        0.5965  -18.8359  -38.7949 H         1 UNK         0.0600 
    166 H166        2.3359  -18.4052  -37.0832 H         1 UNK         0.0600 
    167 H167        2.8718  -19.6670  -38.1811 H         1 UNK         0.0600 
    168 H168        3.5230  -18.0396  -38.3356 H         1 UNK         0.0600 
    169 H169        1.7904  -16.2599  -38.4275 H         1 UNK         0.3000 
    170 H170       -0.7330  -14.3761  -40.1088 H         1 UNK         0.0600 
    171 H171       -1.7046  -14.9525  -37.8771 H         1 UNK         0.0600 
    172 H172       -0.1290  -14.7316  -37.1256 H         1 UNK         0.0600 
    173 H173       -0.9586  -13.3631  -37.8677 H         1 UNK         0.0600 
    174 H174        1.4245  -13.4273  -38.6155 H         1 UNK         0.3000 
    175 H175        3.0947  -12.3753  -39.5718 H         1 UNK         0.0600 
    176 H176        4.6568  -14.5074  -41.1297 H         1 UNK         0.0600 
    177 H177        5.3465  -13.2020  -40.1699 H         1 UNK         0.0600 
    178 H178        4.4382  -14.4834  -39.3844 H         1 UNK         0.0600 
    179 H179        3.9235  -12.5304  -42.3539 H         1 UNK         0.3000 
    180 H180        1.7148  -10.0773  -43.5812 H         1 UNK         0.0600 
    181 H181        4.6434   -9.6074  -42.8064 H         1 UNK         0.0600 
    182 H182        3.2862   -8.5785  -42.3653 H         1 UNK         0.0600 
    183 H183        3.7491   -8.7349  -44.0520 H         1 UNK         0.0600 
    184 H184        4.1853  -11.3254  -44.4905 H         1 UNK         0.3000 
    185 H185        4.1253  -12.6286  -46.2777 H         1 UNK         0.0600 
    186 H186        3.9593  -15.1236  -46.1625 H         1 UNK         0.0600 
    187 H187        4.0642  -14.4075  -44.5630 H         1 UNK         0.0600 
    188 H188        2.5125  -14.9876  -45.1614 H         1 UNK         0.0600 
    189 H189        2.0794  -14.1649  -47.5015 H         1 UNK         0.3000 
    190 H190       -2.3052  -19.5534  -45.9031 H         1 UNK         0.3000 
    191 H191       -4.4013  -19.8449  -47.8032 H         1 UNK         0.0600 
    192 H192       -4.5109  -19.9504  -44.7437 H         1 UNK         0.0600 
    193 H193       -5.8853  -19.7129  -45.8138 H         1 UNK         0.0600 
    194 H194       -4.6203  -18.4958  -45.7321 H         1 UNK         0.0600 
    195 H195       -3.0542  -22.1430  -45.3955 H         1 UNK         0.3000 
    196 H196       -4.7960  -24.3171  -45.9740 H         1 UNK         0.0600 
    197 H197       -3.0639  -25.6899  -44.8447 H         1 UNK         0.0600 
    198 H198       -3.3827  -24.2189  -43.9374 H         1 UNK         0.0600 
    199 H199       -1.9225  -24.3553  -44.9124 H         1 UNK         0.0600 
    200 H200       -1.6378  -23.3668  -47.4199 H         1 UNK         0.3000 
    201 H201       -1.4401  -25.5088  -49.2655 H         1 UNK         0.0600 
    202 H202        0.4559  -24.0016  -48.6808 H         1 UNK         0.0600 
    203 H203       -0.3288  -22.6675  -49.5228 H         1 UNK         0.0600 
    204 H204        0.2072  -24.0788  -50.4190 H         1 UNK         0.0600 
    205 H205       -3.0208  -22.3022  -49.5852 H         1 UNK         0.3000 
    206 H206       -3.9231  -22.5723  -52.2678 H         1 UNK         0.0600 
    207 H207       -3.8842  -20.4063  -51.0949 H         1 UNK         0.0600 
    208 H208       -5.4997  -20.7664  -51.6852 H         1 UNK         0.0600 
    209 H209       -5.1310  -20.9572  -49.9782 H         1 UNK         0.0600 
    210 H210       -5.5429  -23.4675  -49.1942 H         1 UNK         0.3000 
    211 H211       -7.8844  -24.5585  -50.3898 H         1 UNK         0.0600 
    212 H212       -6.5528  -25.2204  -47.7095 H         1 UNK         0.0600 
    213 H213       -8.2030  -25.6275  -48.1621 H         1 UNK         0.0600 
    214 H214       -7.7326  -23.9426  -47.9896 H         1 UNK         0.0600 
    215 H215       -4.7342  -26.0452  -49.5831 H         1 UNK         0.3000 
    216 H216       -5.4785  -28.7199  -50.1989 H         1 UNK         0.0600 
    217 H217       -3.0268  -29.1525  -50.0472 H         1 UNK         0.0600 
    218 H218       -3.6033  -28.1894  -48.6967 H         1 UNK         0.0600 
    219 H219       -2.7149  -27.4225  -50.0117 H         1 UNK         0.0600 
    220 H220       -3.5703  -26.3238  -52.1599 H         1 UNK         0.3000 
    221 H221       -4.2465  -27.8001  -54.6264 H         1 UNK         0.0600 
    222 H222       -1.3830  -27.6909  -53.5387 H         1 UNK         0.0600 
    223 H223       -2.3639  -29.1408  -53.7463 H         1 UNK         0.0600 
    224 H224       -1.8260  -28.2395  -55.1515 H         1 UNK         0.0600 
    225 H225       -2.6858  -24.9262  -53.1484 H         1 UNK         0.3000 
    226 H226       -1.8802  -23.8821  -55.7134 H         1 UNK         0.0600 
    227 H227       -0.5870  -23.3738  -53.7169 H         1 UNK         0.0600 
    228 H228       -1.1691  -21.8922  -54.4492 H         1 UNK         0.0600 
    229 H229       -1.9215  -22.5012  -52.9891 H         1 UNK         0.0600 
    230 H230       -4.9214  -23.8630  -54.2018 H         1 UNK         0.3000 
    231 H231       -6.9224  -23.0981  -54.7456 H         1 UNK         0.0600 
    232 H232       -7.3992  -23.3077  -57.2115 H         1 UNK         0.0600 
    233 H233       -6.4492  -24.6391  -56.5776 H         1 UNK         0.0600 
    234 H234       -5.6649  -23.3868  -57.5269 H         1 UNK         0.0600 
    235 H235       -5.8900  -21.4014  -57.5856 H         1 UNK         0.3000 
    236 H236       -7.3449  -19.0612  -57.0921 H         1 UNK         0.0600 
    237 H237       -6.1750  -18.2452  -59.1524 H         1 UNK         0.0600 
    238 H238       -6.7497  -19.8920  -59.3514 H         1 UNK         0.0600 
    239 H239       -5.0393  -19.5850  -59.0447 H         1 UNK         0.0600 
    240 H240       -4.1815  -19.8564  -55.9205 H         1 UNK         0.3000 
    241 H241       -3.2737  -17.1863  -55.3749 H         1 UNK         0.0600 
    242 H242       -5.9929  -18.0138  -52.4484 H         1 UNK         0.3800 
    243 H243       -5.8226  -19.1127  -53.7960 H         1 UNK         0.3800 
    244 H244       -2.4014  -19.4411  -53.5440 H         1 UNK         0.0800 
    245 H245       -2.0559  -19.6384  -55.2267 H         1 UNK         0.0800 
    246 H246       -1.3472  -16.1269  -52.7891 H         1 UNK         0.0800 
    247 H247       -1.5970  -17.7148  -52.1116 H         1 UNK         0.0800 
@<TRIPOS>BOND
     1    1    2 1    
     2    1  127 1    
     3    1  128 1    
     4    1  129 1    
     5    2    3 2    
     6    2    4 am   BACKBONE|DICT|INTERRES
     7    4    5 1    
     8    4  130 1    
     9    5    6 1    
    10    5   65 1    
    11    5  131 1    
    12    6    7 1    
    13    6  132 1    
    14    6  133 1    
    15    7    8 1    
    16    8    9 1    
    17    8  134 1    
    18    8  135 1    
    19    9   10 ar   
    20    9   14 ar   
    21   10   11 ar   
    22   10  136 1    
    23   11   12 ar   
    24   11  126 1    
    25   12   13 ar   
    26   12  137 1    
    27   13   14 ar   
    28   13   15 1    
    29   14  138 1    
    30   15   16 1    
    31   15  139 1    
    32   15  140 1    
    33   16   17 1    
    34   17   18 1    
    35   17  141 1    
    36   17  142 1    
    37   18   19 1    
    38   18   67 1    
    39   18  143 1    
    40   19   20 am   BACKBONE|DICT|INTERRES
    41   19  144 1    
    42   20   21 2    
    43   20   22 1    
    44   22   23 1    
    45   22   24 1    
    46   22  145 1    
    47   23  146 1    
    48   23  147 1    
    49   23  148 1    
    50   24   25 am   BACKBONE|DICT|INTERRES
    51   24  149 1    
    52   25   26 2    
    53   25   27 1    
    54   27   28 1    
    55   27   29 1    
    56   27  150 1    
    57   28  151 1    
    58   28  152 1    
    59   28  153 1    
    60   29   30 am   BACKBONE|DICT|INTERRES
    61   29  154 1    
    62   30   31 2    
    63   30   32 1    
    64   32   33 1    
    65   32   34 1    
    66   32  155 1    
    67   33  156 1    
    68   33  157 1    
    69   33  158 1    
    70   34   35 am   BACKBONE|DICT|INTERRES
    71   34  159 1    
    72   35   36 2    
    73   35   37 1    
    74   37   38 1    
    75   37   39 1    
    76   37  160 1    
    77   38  161 1    
    78   38  162 1    
    79   38  163 1    
    80   39   40 am   BACKBONE|DICT|INTERRES
    81   39  164 1    
    82   40   41 2    
    83   40   42 1    
    84   42   43 1    
    85   42   44 1    
    86   42  165 1    
    87   43  166 1    
    88   43  167 1    
    89   43  168 1    
    90   44   45 am   BACKBONE|DICT|INTERRES
    91   44  169 1    
    92   45   46 2    
    93   45   47 1    
    94   47   48 1    
    95   47   49 1    
    96   47  170 1    
    97   48  171 1    
    98   48  172 1    
    99   48  173 1    
   100   49   50 am   BACKBONE|DICT|INTERRES
   101   49  174 1    
   102   50   51 2    
   103   50   52 1    
   104   52   53 1    
   105   52   54 1    
   106   52  175 1    
   107   53  176 1    
   108   53  177 1    
   109   53  178 1    
   110   54   55 am   BACKBONE|DICT|INTERRES
   111   54  179 1    
   112   55   56 2    
   113   55   57 1    
   114   57   58 1    
   115   57   59 1    
   116   57  180 1    
   117   58  181 1    
   118   58  182 1    
   119   58  183 1    
   120   59   60 am   BACKBONE|DICT|INTERRES
   121   59  184 1    
   122   60   61 2    
   123   60   62 1    
   124   62   63 1    
   125   62   64 1    
   126   62  185 1    
   127   63  186 1    
   128   63  187 1    
   129   63  188 1    
   130   64   65 am   BACKBONE|DICT|INTERRES
   131   64  189 1    
   132   65   66 2    
   133   67   68 2    
   134   67   69 am   BACKBONE|DICT|INTERRES
   135   69   70 1    
   136   69  190 1    
   137   70   71 1    
   138   70   72 1    
   139   70  191 1    
   140   71  192 1    
   141   71  193 1    
   142   71  194 1    
   143   72   73 2    
   144   72   74 am   BACKBONE|DICT|INTERRES
   145   74   75 1    
   146   74  195 1    
   147   75   76 1    
   148   75   77 1    
   149   75  196 1    
   150   76  197 1    
   151   76  198 1    
   152   76  199 1    
   153   77   78 2    
   154   77   79 am   BACKBONE|DICT|INTERRES
   155   79   80 1    
   156   79  200 1    
   157   80   81 1    
   158   80   82 1    
   159   80  201 1    
   160   81  202 1    
   161   81  203 1    
   162   81  204 1    
   163   82   83 2    
   164   82   84 am   BACKBONE|DICT|INTERRES
   165   84   85 1    
   166   84  205 1    
   167   85   86 1    
   168   85   87 1    
   169   85  206 1    
   170   86  207 1    
   171   86  208 1    
   172   86  209 1    
   173   87   88 2    
   174   87   89 am   BACKBONE|DICT|INTERRES
   175   89   90 1    
   176   89  210 1    
   177   90   91 1    
   178   90   92 1    
   179   90  211 1    
   180   91  212 1    
   181   91  213 1    
   182   91  214 1    
   183   92   93 2    
   184   92   94 am   BACKBONE|DICT|INTERRES
   185   94   95 1    
   186   94  215 1    
   187   95   96 1    
   188   95   97 1    
   189   95  216 1    
   190   96  217 1    
   191   96  218 1    
   192   96  219 1    
   193   97   98 2    
   194   97   99 am   BACKBONE|DICT|INTERRES
   195   99  100 1    
   196   99  220 1    
   197  100  101 1    
   198  100  102 1    
   199  100  221 1    
   200  101  222 1    
   201  101  223 1    
   202  101  224 1    
   203  102  103 2    
   204  102  104 am   BACKBONE|DICT|INTERRES
   205  104  105 1    
   206  104  225 1    
   207  105  106 1    
   208  105  107 1    
   209  105  226 1    
   210  106  227 1    
   211  106  228 1    
   212  106  229 1    
   213  107  108 2    
   214  107  109 am   BACKBONE|DICT|INTERRES
   215  109  110 1    
   216  109  230 1    
   217  110  111 1    
   218  110  112 1    
   219  110  231 1    
   220  111  232 1    
   221  111  233 1    
   222  111  234 1    
   223  112  113 2    
   224  112  114 am   BACKBONE|DICT|INTERRES
   225  114  115 1    
   226  114  235 1    
   227  115  116 1    
   228  115  117 1    
   229  115  236 1    
   230  116  237 1    
   231  116  238 1    
   232  116  239 1    
   233  117  118 2    
   234  117  119 am   BACKBONE|DICT|INTERRES
   235  119  120 1    
   236  119  240 1    
   237  120  121 1    
   238  120  124 1    
   239  120  241 1    
   240  121  122 am   BACKBONE|DICT|INTERRES
   241  121  123 2    
   242  122  242 1    
   243  122  243 1    
   244  124  125 1    
   245  124  244 1    
   246  124  245 1    
   247  125  126 1    
   248  126  246 1    
   249  126  247 1    
@<TRIPOS>SUBSTRUCTURE
     1 UNK         1 GROUP             0       ****    0 ROOT    
