@<TRIPOS>MOLECULE
3R540
247   249    1
SMALL
USER_CHARGES


@<TRIPOS>ATOM
      1 CA          5.4369   -9.1851  -45.5228 C.3       0 UNK        -0.1800 
      2 C           4.2987  -10.1828  -45.6734 C.2       0 UNK         0.5000 
      3 O           3.2477  -10.0038  -45.0619 O.2       0 UNK        -0.5000 
      4 N           4.4948  -11.2175  -46.5010 N.am      1 UNK        -0.5000 
      5 CA          3.5683  -12.3310  -46.7705 C.3       1 UNK         0.1400 
      6 C6          4.2434  -13.3407  -47.7314 C.3       23 UNK        -0.0398 
      7 S7          3.4979  -15.0077  -47.7561 S.3       23 UNK        -0.2404 
      8 C8          3.3737  -15.2796  -49.5567 C.3       23 UNK        -0.0205 
      9 C9          3.3833  -16.7443  -49.9861 C.ar      23 UNK        -0.0193 
     10 C10         2.6445  -17.1280  -51.1113 C.ar      23 UNK        -0.1150 
     11 C11         2.7269  -18.4318  -51.6083 C.ar      23 UNK        -0.0193 
     12 C12         3.5539  -19.3554  -50.9687 C.ar      23 UNK        -0.1150 
     13 C13         4.2617  -19.0048  -49.8194 C.ar      23 UNK        -0.0193 
     14 C14         4.1838  -17.6952  -49.3381 C.ar      23 UNK        -0.1150 
     15 C15         5.1125  -20.0498  -49.1142 C.3       23 UNK        -0.0205 
     16 S16         4.1907  -20.9033  -47.7955 S.3       23 UNK        -0.2404 
     17 C17         2.7431  -21.5581  -48.6982 C.3       23 UNK        -0.0398 
     18 CA          2.0116  -22.6759  -47.9237 C.3       11 UNK         0.1400 
     19 N           1.4664  -22.2151  -46.6438 N.am      11 UNK        -0.5000 
     20 C           1.1357  -23.0243  -45.6287 C.2       10 UNK         0.5000 
     21 O           1.3320  -24.2386  -45.6329 O.2       10 UNK        -0.5000 
     22 CA          0.4428  -22.3837  -44.4113 C.3       10 UNK         0.1400 
     23 CB          1.4732  -21.9344  -43.3646 C.3       10 UNK        -0.1800 
     24 N          -0.4208  -21.2590  -44.7723 N.am      10 UNK        -0.5000 
     25 C          -1.5336  -21.3706  -45.5115 C.2       9 UNK         0.5000 
     26 O          -1.9701  -22.4452  -45.9270 O.2       9 UNK        -0.5000 
     27 CA         -2.2505  -20.0595  -45.8832 C.3       9 UNK         0.1400 
     28 CB         -3.0794  -19.5478  -44.6962 C.3       9 UNK        -0.1800 
     29 N          -1.3271  -19.0091  -46.3148 N.am      9 UNK        -0.5000 
     30 C          -0.5133  -19.0803  -47.3780 C.2       8 UNK         0.5000 
     31 O          -0.4966  -20.0274  -48.1628 O.2       8 UNK        -0.5000 
     32 CA          0.4994  -17.9318  -47.5536 C.3       8 UNK         0.1400 
     33 CB         -0.1337  -16.7396  -48.2850 C.3       8 UNK        -0.1800 
     34 N           1.0605  -17.4832  -46.2774 N.am      8 UNK        -0.5000 
     35 C           1.8212  -18.2462  -45.4800 C.2       7 UNK         0.5000 
     36 O           2.1318  -19.4058  -45.7420 O.2       7 UNK        -0.5000 
     37 CA          2.2447  -17.6374  -44.1327 C.3       7 UNK         0.1400 
     38 CB          3.3835  -16.6225  -44.3113 C.3       7 UNK        -0.1800 
     39 N           1.1164  -17.0065  -43.4485 N.am      7 UNK        -0.5000 
     40 C           0.0846  -17.6886  -42.9265 C.2       6 UNK         0.5000 
     41 O           0.0221  -18.9176  -42.9121 O.2       6 UNK        -0.5000 
     42 CA         -1.0955  -16.8709  -42.3609 C.3       6 UNK         0.1400 
     43 CB         -0.8823  -16.5871  -40.8668 C.3       6 UNK        -0.1800 
     44 N          -1.3137  -15.6054  -43.0606 N.am      6 UNK        -0.5000 
     45 C          -1.5636  -15.4725  -44.3710 C.2       5 UNK         0.5000 
     46 O          -1.7660  -16.4246  -45.1232 O.2       5 UNK        -0.5000 
     47 CA         -1.5268  -14.0452  -44.9527 C.3       5 UNK         0.1400 
     48 CB         -2.9491  -13.5351  -45.2250 C.3       5 UNK        -0.1800 
     49 N          -0.8214  -13.0635  -44.1220 N.am      5 UNK        -0.5000 
     50 C           0.4630  -13.1214  -43.7445 C.2       4 UNK         0.5000 
     51 O           1.2047  -14.0735  -43.9936 O.2       4 UNK        -0.5000 
     52 CA          0.9865  -11.9103  -42.9495 C.3       4 UNK         0.1400 
     53 CB          2.4426  -12.0935  -42.4850 C.3       4 UNK        -0.1800 
     54 N           0.8958  -10.6888  -43.7450 N.am      4 UNK        -0.5000 
     55 C          -0.2053   -9.9524  -43.9411 C.2       3 UNK         0.5000 
     56 O          -1.2968  -10.2098  -43.4311 O.2       3 UNK        -0.5000 
     57 CA         -0.0691   -8.7629  -44.9034 C.3       3 UNK         0.1400 
     58 CB          0.7123   -7.6127  -44.2486 C.3       3 UNK        -0.1800 
     59 N           0.6122   -9.1790  -46.1285 N.am      3 UNK        -0.5000 
     60 C          -0.0079   -9.5754  -47.2484 C.2       2 UNK         0.5000 
     61 O          -1.2304   -9.5579  -47.3967 O.2       2 UNK        -0.5000 
     62 CA          0.8829  -10.0796  -48.4028 C.3       2 UNK         0.1400 
     63 CB          1.2344   -8.9252  -49.3536 C.3       2 UNK        -0.1800 
     64 N           2.1208  -10.7130  -47.9445 N.am      2 UNK        -0.5000 
     65 C           2.1799  -11.8838  -47.2929 C.2       1 UNK         0.5000 
     66 O           1.1905  -12.5829  -47.0765 O.2       1 UNK        -0.5000 
     67 C           0.9298  -23.3404  -48.8049 C.2       11 UNK         0.5000 
     68 O           1.2402  -24.3197  -49.4845 O.2       11 UNK        -0.5000 
     69 N          -0.3119  -22.8257  -48.7733 N.am      12 UNK        -0.5000 
     70 CA         -1.4762  -23.4113  -49.4509 C.3       12 UNK         0.1400 
     71 CB         -2.6858  -22.4652  -49.3551 C.3       12 UNK        -0.1800 
     72 C          -1.8308  -24.8058  -48.9006 C.2       12 UNK         0.5000 
     73 O          -2.1181  -25.7105  -49.6859 O.2       12 UNK        -0.5000 
     74 N          -1.7505  -24.9553  -47.5685 N.am      13 UNK        -0.5000 
     75 CA         -1.8176  -26.2054  -46.8057 C.3       13 UNK         0.1400 
     76 CB         -0.4996  -26.9939  -46.9813 C.3       13 UNK        -0.1800 
     77 C          -3.0724  -27.0408  -47.1328 C.2       13 UNK         0.5000 
     78 O          -4.1704  -26.6702  -46.7182 O.2       13 UNK        -0.5000 
     79 N          -2.8911  -28.1349  -47.8862 N.am      14 UNK        -0.5000 
     80 CA         -3.9344  -29.0587  -48.3331 C.3       14 UNK         0.1400 
     81 CB         -3.2744  -30.2405  -49.0593 C.3       14 UNK        -0.1800 
     82 C          -5.0131  -28.4138  -49.2246 C.2       14 UNK         0.5000 
     83 O          -6.1375  -28.9165  -49.2605 O.2       14 UNK        -0.5000 
     84 N          -4.6882  -27.2967  -49.8921 N.am      15 UNK        -0.5000 
     85 CA         -5.6232  -26.4793  -50.6671 C.3       15 UNK         0.1400 
     86 CB         -4.8347  -25.6701  -51.7119 C.3       15 UNK        -0.1800 
     87 C          -6.4778  -25.5859  -49.7424 C.2       15 UNK         0.5000 
     88 O          -6.4356  -24.3592  -49.8494 O.2       15 UNK        -0.5000 
     89 N          -7.2002  -26.2168  -48.8043 N.am      16 UNK        -0.5000 
     90 CA         -8.1163  -25.6291  -47.8134 C.3       16 UNK         0.1400 
     91 CB         -9.3770  -25.1022  -48.5300 C.3       16 UNK        -0.1800 
     92 C          -7.4890  -24.5471  -46.9017 C.2       16 UNK         0.5000 
     93 O          -8.2231  -23.7780  -46.2794 O.2       16 UNK        -0.5000 
     94 N          -6.1495  -24.4841  -46.8711 N.am      17 UNK        -0.5000 
     95 CA         -5.3067  -23.4264  -46.3118 C.3       17 UNK         0.1400 
     96 CB         -5.2911  -23.5117  -44.7727 C.3       17 UNK        -0.1800 
     97 C          -5.6593  -22.0148  -46.8381 C.2       17 UNK         0.5000 
     98 O          -5.5408  -21.0450  -46.0896 O.2       17 UNK        -0.5000 
     99 N          -6.1094  -21.9100  -48.0988 N.am      18 UNK        -0.5000 
    100 CA        -6.5979  -20.6510  -48.6723 C.3       18 UNK         0.1400 
    101 CB        -7.9710  -20.2916  -48.0668 C.3       18 UNK        -0.1800 
    102 C         -6.7004  -20.6449  -50.2061 C.2       18 UNK         0.5000 
    103 O         -6.6564  -19.5607  -50.7904 O.2       18 UNK        -0.5000 
    104 N         -6.8706  -21.8138  -50.8349 N.am      19 UNK        -0.5000 
    105 CA        -7.0862  -21.9668  -52.2725 C.3       19 UNK         0.1400 
    106 CB        -8.0902  -23.1160  -52.4938 C.3       19 UNK        -0.1800 
    107 C         -5.7599  -22.1795  -53.0311 C.2       19 UNK         0.5000 
    108 O         -4.6807  -21.9058  -52.4987 O.2       19 UNK        -0.5000 
    109 N         -5.8700  -22.6420  -54.2843 N.am      20 UNK        -0.5000 
    110 CA        -4.7869  -22.8006  -55.2589 C.3       20 UNK         0.1400 
    111 CB        -3.7863  -23.8913  -54.8102 C.3       20 UNK        -0.1800 
    112 C         -4.1416  -21.4406  -55.6036 C.2       20 UNK         0.5000 
    113 O         -4.8619  -20.4471  -55.7290 O.2       20 UNK        -0.5000 
    114 N         -2.8150  -21.4120  -55.7762 N.am      21 UNK        -0.5000 
    115 CA        -2.0577  -20.2074  -56.1169 C.3       21 UNK         0.1400 
    116 CB        -0.6816  -20.6227  -56.6611 C.3       21 UNK        -0.1800 
    117 C         -1.8892  -19.2341  -54.9349 C.2       21 UNK         0.5000 
    118 O         -1.7684  -18.0299  -55.1660 O.2       21 UNK        -0.5000 
    119 N         -1.8473  -19.7685  -53.7076 N.am      22 UNK        -0.5000 
    120 CA        -1.4945  -19.0148  -52.4904 C.3       22 UNK         0.1400 
    121 C         -2.7174  -18.6109  -51.6230 C.2       22 UNK         0.5000 
    122 N         -3.8723  -19.2438  -51.7715 N.am      22 UNK        -0.7600 
    123 O         -2.6240  -17.6866  -50.8217 O.2       22 UNK        -0.5000 
    124 C124       -0.4217  -19.7454  -51.6392 C.3       23 UNK        -0.0398 
    125 S125        0.9868  -20.3575  -52.6278 S.3       23 UNK        -0.2404 
    126 C126        1.9656  -18.8376  -52.8617 C.3       23 UNK        -0.0205 
    127 H127        5.7558   -9.1375  -44.4817 H         1 UNK         0.0600 
    128 H128        6.2993   -9.4570  -46.1317 H         1 UNK         0.0600 
    129 H129        5.1057   -8.1915  -45.8245 H         1 UNK         0.0600 
    130 H130        5.3837  -11.2790  -46.9769 H         1 UNK         0.3000 
    131 H131        3.3985  -12.8305  -45.8141 H         1 UNK         0.0600 
    132 H132        4.2848  -12.9242  -48.7392 H         1 UNK         0.0800 
    133 H133        5.2831  -13.4889  -47.4356 H         1 UNK         0.0800 
    134 H134        2.4721  -14.7801  -49.9149 H         1 UNK         0.0800 
    135 H135        4.2157  -14.7999  -50.0569 H         1 UNK         0.0800 
    136 H136        2.0311  -16.3997  -51.6232 H         1 UNK         0.1150 
    137 H137        3.6323  -20.3594  -51.3608 H         1 UNK         0.1150 
    138 H138        4.7611  -17.4177  -48.4679 H         1 UNK         0.1150 
    139 H139        5.4818  -20.7856  -49.8303 H         1 UNK         0.0800 
    140 H140        5.9952  -19.5777  -48.6805 H         1 UNK         0.0800 
    141 H141        3.0903  -21.9401  -49.6596 H         1 UNK         0.0800 
    142 H142        2.0612  -20.7342  -48.9154 H         1 UNK         0.0800 
    143 H143        2.7511  -23.4497  -47.7052 H         1 UNK         0.0600 
    144 H144        1.3589  -21.2137  -46.5258 H         1 UNK         0.3000 
    145 H145       -0.1870  -23.1497  -43.9542 H         1 UNK         0.0600 
    146 H146        0.9837  -21.5516  -42.4691 H         1 UNK         0.0600 
    147 H147        2.1063  -22.7679  -43.0582 H         1 UNK         0.0600 
    148 H148        2.1264  -21.1514  -43.7491 H         1 UNK         0.0600 
    149 H149       -0.1410  -20.3451  -44.4333 H         1 UNK         0.3000 
    150 H150       -2.9264  -20.2705  -46.7139 H         1 UNK         0.0600 
    151 H151       -3.7638  -20.3145  -44.3332 H         1 UNK         0.0600 
    152 H152       -3.6774  -18.6805  -44.9764 H         1 UNK         0.0600 
    153 H153       -2.4471  -19.2653  -43.8574 H         1 UNK         0.0600 
    154 H154       -1.3195  -18.1560  -45.7618 H         1 UNK         0.3000 
    155 H155        1.3240  -18.3049  -48.1652 H         1 UNK         0.0600 
    156 H156        0.5834  -15.9301  -48.4185 H         1 UNK         0.0600 
    157 H157       -0.9927  -16.3408  -47.7449 H         1 UNK         0.0600 
    158 H158       -0.4765  -17.0341  -49.2769 H         1 UNK         0.0600 
    159 H159        0.8230  -16.5500  -45.9754 H         1 UNK         0.3000 
    160 H160        2.6158  -18.4489  -43.5029 H         1 UNK         0.0600 
    161 H161        3.0678  -15.7609  -44.8990 H         1 UNK         0.0600 
    162 H162        4.2331  -17.0751  -44.8241 H         1 UNK         0.0600 
    163 H163        3.7388  -16.2558  -43.3484 H         1 UNK         0.0600 
    164 H164        1.0863  -15.9914  -43.4664 H         1 UNK         0.3000 
    165 H165       -2.0018  -17.4683  -42.4682 H         1 UNK         0.0600 
    166 H166       -0.0033  -15.9638  -40.6970 H         1 UNK         0.0600 
    167 H167       -1.7443  -16.0790  -40.4341 H         1 UNK         0.0600 
    168 H168       -0.7400  -17.5144  -40.3102 H         1 UNK         0.0600 
    169 H169       -1.1634  -14.7632  -42.5261 H         1 UNK         0.3000 
    170 H170       -0.9960  -14.1039  -45.9052 H         1 UNK         0.0600 
    171 H171       -3.4961  -14.2251  -45.8691 H         1 UNK         0.0600 
    172 H172       -3.5191  -13.4238  -44.3018 H         1 UNK         0.0600 
    173 H173       -2.9308  -12.5680  -45.7283 H         1 UNK         0.0600 
    174 H174       -1.3357  -12.2235  -43.8801 H         1 UNK         0.3000 
    175 H175        0.3628  -11.8043  -42.0596 H         1 UNK         0.0600 
    176 H176        2.5423  -12.9732  -41.8479 H         1 UNK         0.0600 
    177 H177        2.7834  -11.2337  -41.9081 H         1 UNK         0.0600 
    178 H178        3.1225  -12.2201  -43.3282 H         1 UNK         0.0600 
    179 H179        1.7511  -10.4165  -44.2271 H         1 UNK         0.3000 
    180 H180       -1.0718   -8.3972  -45.1350 H         1 UNK         0.0600 
    181 H181        1.7319   -7.9047  -43.9940 H         1 UNK         0.0600 
    182 H182        0.2253   -7.2845  -43.3295 H         1 UNK         0.0600 
    183 H183        0.7689   -6.7499  -44.9125 H         1 UNK         0.0600 
    184 H184        1.6176   -9.2883  -46.0641 H         1 UNK         0.3000 
    185 H185        0.3091  -10.8207  -48.9634 H         1 UNK         0.0600 
    186 H186        1.8004   -9.2813  -50.2146 H         1 UNK         0.0600 
    187 H187        0.3322   -8.4455  -49.7353 H         1 UNK         0.0600 
    188 H188        1.8277   -8.1583  -48.8540 H         1 UNK         0.0600 
    189 H189        2.9762  -10.1945  -48.0802 H         1 UNK         0.3000 
    190 H190       -0.4689  -21.9639  -48.2588 H         1 UNK         0.3000 
    191 H191       -1.2220  -23.5257  -50.5066 H         1 UNK         0.0600 
    192 H192       -2.4742  -21.4926  -49.7960 H         1 UNK         0.0600 
    193 H193       -3.5472  -22.8759  -49.8838 H         1 UNK         0.0600 
    194 H194       -2.9873  -22.2961  -48.3234 H         1 UNK         0.0600 
    195 H195       -1.5838  -24.1193  -47.0166 H         1 UNK         0.3000 
    196 H196       -1.8996  -25.9237  -45.7549 H         1 UNK         0.0600 
    197 H197       -0.5160  -27.9247  -46.4128 H         1 UNK         0.0600 
    198 H198        0.3504  -26.4183  -46.6194 H         1 UNK         0.0600 
    199 H199       -0.2994  -27.2395  -48.0248 H         1 UNK         0.0600 
    200 H200       -1.9551  -28.3314  -48.2093 H         1 UNK         0.3000 
    201 H201       -4.4374  -29.4409  -47.4427 H         1 UNK         0.0600 
    202 H202       -2.5745  -30.7640  -48.4078 H         1 UNK         0.0600 
    203 H203       -2.7296  -29.9132  -49.9458 H         1 UNK         0.0600 
    204 H204       -4.0207  -30.9677  -49.3824 H         1 UNK         0.0600 
    205 H205       -3.7514  -26.9193  -49.7824 H         1 UNK         0.3000 
    206 H206       -6.3064  -27.1373  -51.2077 H         1 UNK         0.0600 
    207 H207       -4.2122  -26.3186  -52.3282 H         1 UNK         0.0600 
    208 H208       -5.5105  -25.1405  -52.3822 H         1 UNK         0.0600 
    209 H209       -4.1859  -24.9262  -51.2489 H         1 UNK         0.0600 
    210 H210       -7.1162  -27.2283  -48.7761 H         1 UNK         0.3000 
    211 H211       -8.4190  -26.4437  -47.1543 H         1 UNK         0.0600 
    212 H212       -9.1507  -24.2432  -49.1631 H         1 UNK         0.0600 
    213 H213      -10.1377  -24.7895  -47.8137 H         1 UNK         0.0600 
    214 H214       -9.8249  -25.8722  -49.1580 H         1 UNK         0.0600 
    215 H215       -5.6416  -25.2215  -47.3445 H         1 UNK         0.3000 
    216 H216       -4.2959  -23.6357  -46.6619 H         1 UNK         0.0600 
    217 H217       -5.0181  -24.5128  -44.4389 H         1 UNK         0.0600 
    218 H218       -6.2638  -23.2665  -44.3455 H         1 UNK         0.0600 
    219 H219       -4.5603  -22.8211  -44.3503 H         1 UNK         0.0600 
    220 H220       -6.1761  -22.7455  -48.6701 H         1 UNK         0.3000 
    221 H221       -5.8875  -19.8624  -48.4141 H         1 UNK         0.0600 
    222 H222       -8.6964  -21.0902  -48.2278 H         1 UNK         0.0600 
    223 H223       -7.9057  -20.1131  -46.9938 H         1 UNK         0.0600 
    224 H224       -8.3758  -19.3833  -48.5153 H         1 UNK         0.0600 
    225 H225       -6.8104  -22.6903  -50.3240 H         1 UNK         0.3000 
    226 H226       -7.5368  -21.0547  -52.6690 H         1 UNK         0.0600 
    227 H227       -8.9780  -22.9852  -51.8746 H         1 UNK         0.0600 
    228 H228       -8.4317  -23.1570  -53.5283 H         1 UNK         0.0600 
    229 H229       -7.6592  -24.0865  -52.2501 H         1 UNK         0.0600 
    230 H230       -6.7981  -22.8073  -54.6461 H         1 UNK         0.3000 
    231 H231       -5.2567  -23.1488  -56.1796 H         1 UNK         0.0600 
    232 H232       -3.0695  -24.1221  -55.5987 H         1 UNK         0.0600 
    233 H233       -4.3057  -24.8209  -54.5791 H         1 UNK         0.0600 
    234 H234       -3.2238  -23.5981  -53.9231 H         1 UNK         0.0600 
    235 H235       -2.2885  -22.2660  -55.6629 H         1 UNK         0.3000 
    236 H236       -2.5883  -19.6762  -56.9102 H         1 UNK         0.0600 
    237 H237       -0.0983  -19.7490  -56.9549 H         1 UNK         0.0600 
    238 H238       -0.1012  -21.1672  -55.9149 H         1 UNK         0.0600 
    239 H239       -0.7796  -21.2577  -57.5417 H         1 UNK         0.0600 
    240 H240       -1.9763  -20.7634  -53.6021 H         1 UNK         0.3000 
    241 H241       -1.0432  -18.0672  -52.7889 H         1 UNK         0.0600 
    242 H242       -3.9534  -20.0694  -52.3534 H         1 UNK         0.3800 
    243 H243       -4.6806  -18.9621  -51.2343 H         1 UNK         0.3800 
    244 H244       -0.0466  -19.0953  -50.8468 H         1 UNK         0.0800 
    245 H245       -0.8577  -20.6091  -51.1381 H         1 UNK         0.0800 
    246 H246        1.3154  -18.0331  -53.2074 H         1 UNK         0.0800 
    247 H247        2.6873  -19.0107  -53.6609 H         1 UNK         0.0800 
@<TRIPOS>BOND
     1    1    2 1    
     2    1  127 1    
     3    1  128 1    
     4    1  129 1    
     5    2    3 2    
     6    2    4 am   BACKBONE|DICT|INTERRES
     7    4    5 1    
     8    4  130 1    
     9    5    6 1    
    10    5   65 1    
    11    5  131 1    
    12    6    7 1    
    13    6  132 1    
    14    6  133 1    
    15    7    8 1    
    16    8    9 1    
    17    8  134 1    
    18    8  135 1    
    19    9   10 ar   
    20    9   14 ar   
    21   10   11 ar   
    22   10  136 1    
    23   11   12 ar   
    24   11  126 1    
    25   12   13 ar   
    26   12  137 1    
    27   13   14 ar   
    28   13   15 1    
    29   14  138 1    
    30   15   16 1    
    31   15  139 1    
    32   15  140 1    
    33   16   17 1    
    34   17   18 1    
    35   17  141 1    
    36   17  142 1    
    37   18   19 1    
    38   18   67 1    
    39   18  143 1    
    40   19   20 am   BACKBONE|DICT|INTERRES
    41   19  144 1    
    42   20   21 2    
    43   20   22 1    
    44   22   23 1    
    45   22   24 1    
    46   22  145 1    
    47   23  146 1    
    48   23  147 1    
    49   23  148 1    
    50   24   25 am   BACKBONE|DICT|INTERRES
    51   24  149 1    
    52   25   26 2    
    53   25   27 1    
    54   27   28 1    
    55   27   29 1    
    56   27  150 1    
    57   28  151 1    
    58   28  152 1    
    59   28  153 1    
    60   29   30 am   BACKBONE|DICT|INTERRES
    61   29  154 1    
    62   30   31 2    
    63   30   32 1    
    64   32   33 1    
    65   32   34 1    
    66   32  155 1    
    67   33  156 1    
    68   33  157 1    
    69   33  158 1    
    70   34   35 am   BACKBONE|DICT|INTERRES
    71   34  159 1    
    72   35   36 2    
    73   35   37 1    
    74   37   38 1    
    75   37   39 1    
    76   37  160 1    
    77   38  161 1    
    78   38  162 1    
    79   38  163 1    
    80   39   40 am   BACKBONE|DICT|INTERRES
    81   39  164 1    
    82   40   41 2    
    83   40   42 1    
    84   42   43 1    
    85   42   44 1    
    86   42  165 1    
    87   43  166 1    
    88   43  167 1    
    89   43  168 1    
    90   44   45 am   BACKBONE|DICT|INTERRES
    91   44  169 1    
    92   45   46 2    
    93   45   47 1    
    94   47   48 1    
    95   47   49 1    
    96   47  170 1    
    97   48  171 1    
    98   48  172 1    
    99   48  173 1    
   100   49   50 am   BACKBONE|DICT|INTERRES
   101   49  174 1    
   102   50   51 2    
   103   50   52 1    
   104   52   53 1    
   105   52   54 1    
   106   52  175 1    
   107   53  176 1    
   108   53  177 1    
   109   53  178 1    
   110   54   55 am   BACKBONE|DICT|INTERRES
   111   54  179 1    
   112   55   56 2    
   113   55   57 1    
   114   57   58 1    
   115   57   59 1    
   116   57  180 1    
   117   58  181 1    
   118   58  182 1    
   119   58  183 1    
   120   59   60 am   BACKBONE|DICT|INTERRES
   121   59  184 1    
   122   60   61 2    
   123   60   62 1    
   124   62   63 1    
   125   62   64 1    
   126   62  185 1    
   127   63  186 1    
   128   63  187 1    
   129   63  188 1    
   130   64   65 am   BACKBONE|DICT|INTERRES
   131   64  189 1    
   132   65   66 2    
   133   67   68 2    
   134   67   69 am   BACKBONE|DICT|INTERRES
   135   69   70 1    
   136   69  190 1    
   137   70   71 1    
   138   70   72 1    
   139   70  191 1    
   140   71  192 1    
   141   71  193 1    
   142   71  194 1    
   143   72   73 2    
   144   72   74 am   BACKBONE|DICT|INTERRES
   145   74   75 1    
   146   74  195 1    
   147   75   76 1    
   148   75   77 1    
   149   75  196 1    
   150   76  197 1    
   151   76  198 1    
   152   76  199 1    
   153   77   78 2    
   154   77   79 am   BACKBONE|DICT|INTERRES
   155   79   80 1    
   156   79  200 1    
   157   80   81 1    
   158   80   82 1    
   159   80  201 1    
   160   81  202 1    
   161   81  203 1    
   162   81  204 1    
   163   82   83 2    
   164   82   84 am   BACKBONE|DICT|INTERRES
   165   84   85 1    
   166   84  205 1    
   167   85   86 1    
   168   85   87 1    
   169   85  206 1    
   170   86  207 1    
   171   86  208 1    
   172   86  209 1    
   173   87   88 2    
   174   87   89 am   BACKBONE|DICT|INTERRES
   175   89   90 1    
   176   89  210 1    
   177   90   91 1    
   178   90   92 1    
   179   90  211 1    
   180   91  212 1    
   181   91  213 1    
   182   91  214 1    
   183   92   93 2    
   184   92   94 am   BACKBONE|DICT|INTERRES
   185   94   95 1    
   186   94  215 1    
   187   95   96 1    
   188   95   97 1    
   189   95  216 1    
   190   96  217 1    
   191   96  218 1    
   192   96  219 1    
   193   97   98 2    
   194   97   99 am   BACKBONE|DICT|INTERRES
   195   99  100 1    
   196   99  220 1    
   197  100  101 1    
   198  100  102 1    
   199  100  221 1    
   200  101  222 1    
   201  101  223 1    
   202  101  224 1    
   203  102  103 2    
   204  102  104 am   BACKBONE|DICT|INTERRES
   205  104  105 1    
   206  104  225 1    
   207  105  106 1    
   208  105  107 1    
   209  105  226 1    
   210  106  227 1    
   211  106  228 1    
   212  106  229 1    
   213  107  108 2    
   214  107  109 am   BACKBONE|DICT|INTERRES
   215  109  110 1    
   216  109  230 1    
   217  110  111 1    
   218  110  112 1    
   219  110  231 1    
   220  111  232 1    
   221  111  233 1    
   222  111  234 1    
   223  112  113 2    
   224  112  114 am   BACKBONE|DICT|INTERRES
   225  114  115 1    
   226  114  235 1    
   227  115  116 1    
   228  115  117 1    
   229  115  236 1    
   230  116  237 1    
   231  116  238 1    
   232  116  239 1    
   233  117  118 2    
   234  117  119 am   BACKBONE|DICT|INTERRES
   235  119  120 1    
   236  119  240 1    
   237  120  121 1    
   238  120  124 1    
   239  120  241 1    
   240  121  122 am   BACKBONE|DICT|INTERRES
   241  121  123 2    
   242  122  242 1    
   243  122  243 1    
   244  124  125 1    
   245  124  244 1    
   246  124  245 1    
   247  125  126 1    
   248  126  246 1    
   249  126  247 1    
@<TRIPOS>SUBSTRUCTURE
     1 UNK         1 GROUP             0       ****    0 ROOT    
