@<TRIPOS>MOLECULE
3R540
247   249    1
SMALL
USER_CHARGES


@<TRIPOS>ATOM
      1 CA          2.0252  -11.7428  -48.5484 C.3       0 UNK        -0.1800 
      2 C           3.4639  -12.2396  -48.5401 C.2       0 UNK         0.5000 
      3 O           4.3872  -11.4509  -48.7412 O.2       0 UNK        -0.5000 
      4 N           3.6562  -13.5449  -48.3085 N.am      1 UNK        -0.5000 
      5 CA          4.9660  -14.2141  -48.2651 C.3       1 UNK         0.1400 
      6 C6          4.8351  -15.7561  -48.3545 C.3       23 UNK        -0.0398 
      7 S7          3.8879  -16.3067  -49.8164 S.3       23 UNK        -0.2404 
      8 C8          2.8403  -17.5987  -49.0818 C.3       23 UNK        -0.0205 
      9 C9          1.8234  -18.1261  -50.0804 C.ar      23 UNK        -0.0193 
     10 C10         2.1805  -19.1128  -51.0044 C.ar      23 UNK        -0.1150 
     11 C11         1.2470  -19.6130  -51.9194 C.ar      23 UNK        -0.0193 
     12 C12        -0.0584  -19.1059  -51.8958 C.ar      23 UNK        -0.1150 
     13 C13        -0.4312  -18.1291  -50.9699 C.ar      23 UNK        -0.0193 
     14 C14         0.5161  -17.6365  -50.0695 C.ar      23 UNK        -0.1150 
     15 C15        -1.8660  -17.6275  -50.9271 C.3       23 UNK        -0.0205 
     16 S16        -2.9815  -18.8444  -50.1567 S.3       23 UNK        -0.2404 
     17 C17        -2.2584  -19.0135  -48.4904 C.3       23 UNK        -0.0398 
     18 CA         -1.3940  -20.2934  -48.3488 C.3       11 UNK         0.1400 
     19 N          -0.3694  -20.1641  -47.3086 N.am      11 UNK        -0.5000 
     20 C           0.5726  -21.0791  -47.0369 C.2       10 UNK         0.5000 
     21 O           0.7104  -22.1263  -47.6666 O.2       10 UNK        -0.5000 
     22 CA          1.4702  -20.8209  -45.8141 C.3       10 UNK         0.1400 
     23 CB          2.6102  -19.8521  -46.1569 C.3       10 UNK        -0.1800 
     24 N           0.7161  -20.3174  -44.6670 N.am      10 UNK        -0.5000 
     25 C          -0.2362  -21.0075  -44.0232 C.2       9 UNK         0.5000 
     26 O          -0.5297  -22.1740  -44.2840 O.2       9 UNK        -0.5000 
     27 CA         -1.0298  -20.2523  -42.9418 C.3       9 UNK         0.1400 
     28 CB         -0.2516  -20.2082  -41.6185 C.3       9 UNK        -0.1800 
     29 N          -1.3880  -18.8936  -43.3534 N.am      9 UNK        -0.5000 
     30 C          -2.1896  -18.6043  -44.3891 C.2       8 UNK         0.5000 
     31 O          -2.7491  -19.4562  -45.0802 O.2       8 UNK        -0.5000 
     32 CA         -2.3587  -17.1166  -44.7446 C.3       8 UNK         0.1400 
     33 CB         -3.3754  -16.4446  -43.8103 C.3       8 UNK        -0.1800 
     34 N          -1.0928  -16.3817  -44.7150 N.am      8 UNK        -0.5000 
     35 C          -0.0592  -16.6238  -45.5347 C.2       7 UNK         0.5000 
     36 O          -0.0813  -17.4626  -46.4328 O.2       7 UNK        -0.5000 
     37 CA          1.2374  -15.8378  -45.2825 C.3       7 UNK         0.1400 
     38 CB          1.1430  -14.4201  -45.8642 C.3       7 UNK        -0.1800 
     39 N           1.5741  -15.7664  -43.8641 N.am      7 UNK        -0.5000 
     40 C           1.8576  -16.8177  -43.0846 C.2       6 UNK         0.5000 
     41 O           1.9188  -17.9767  -43.4922 O.2       6 UNK        -0.5000 
     42 CA          2.0541  -16.5275  -41.5878 C.3       6 UNK         0.1400 
     43 CB          3.4721  -16.0086  -41.3048 C.3       6 UNK        -0.1800 
     44 N           1.0715  -15.5685  -41.0835 N.am      6 UNK        -0.5000 
     45 C          -0.2366  -15.8238  -40.9449 C.2       5 UNK         0.5000 
     46 O          -0.7543  -16.9086  -41.2109 O.2       5 UNK        -0.5000 
     47 CA         -1.1163  -14.6586  -40.4559 C.3       5 UNK         0.1400 
     48 CB         -1.0472  -14.5314  -38.9267 C.3       5 UNK        -0.1800 
     49 N          -0.7513  -13.3790  -41.0674 N.am      5 UNK        -0.5000 
     50 C          -0.9346  -13.0880  -42.3624 C.2       4 UNK         0.5000 
     51 O          -1.4353  -13.8666  -43.1737 O.2       4 UNK        -0.5000 
     52 CA         -0.4304  -11.7132  -42.8435 C.3       4 UNK         0.1400 
     53 CB         -1.4494  -10.6151  -42.5035 C.3       4 UNK        -0.1800 
     54 N           0.8919  -11.3265  -42.3339 N.am      4 UNK        -0.5000 
     55 C           2.0030  -12.0653  -42.4501 C.2       3 UNK         0.5000 
     56 O           2.0083  -13.2247  -42.8649 O.2       3 UNK        -0.5000 
     57 CA          3.3339  -11.4184  -42.0198 C.3       3 UNK         0.1400 
     58 CB          3.5555  -11.6129  -40.5122 C.3       3 UNK        -0.1800 
     59 N           4.4619  -12.0132  -42.7435 N.am      3 UNK        -0.5000 
     60 C           4.6364  -11.9367  -44.0702 C.2       2 UNK         0.5000 
     61 O           3.9769  -11.1888  -44.7974 O.2       2 UNK        -0.5000 
     62 CA          5.6794  -12.8743  -44.7072 C.3       2 UNK         0.1400 
     63 CB          6.0600  -14.0867  -43.8280 C.3       2 UNK        -0.1800 
     64 N           5.1260  -13.3310  -45.9765 N.am      2 UNK        -0.5000 
     65 C           5.7989  -13.8266  -47.0201 C.2       1 UNK         0.5000 
     66 O           7.0196  -13.9908  -47.0301 O.2       1 UNK        -0.5000 
     67 C          -2.2741  -21.5400  -48.1349 C.2       11 UNK         0.5000 
     68 O          -2.4584  -22.3158  -49.0693 O.2       11 UNK        -0.5000 
     69 N          -2.7560  -21.7306  -46.8987 N.am      12 UNK        -0.5000 
     70 CA         -3.5828  -22.8676  -46.4902 C.3       12 UNK         0.1400 
     71 CB         -4.1707  -22.5838  -45.1002 C.3       12 UNK        -0.1800 
     72 C          -2.8499  -24.2226  -46.5094 C.2       12 UNK         0.5000 
     73 O          -3.5066  -25.2587  -46.6213 O.2       12 UNK        -0.5000 
     74 N          -1.5169  -24.1999  -46.3898 N.am      13 UNK        -0.5000 
     75 CA         -0.6617  -25.3748  -46.5242 C.3       13 UNK         0.1400 
     76 CB          0.6399  -25.1532  -45.7374 C.3       13 UNK        -0.1800 
     77 C          -0.3662  -25.6900  -48.0010 C.2       13 UNK         0.5000 
     78 O          -0.4443  -26.8528  -48.3999 O.2       13 UNK        -0.5000 
     79 N          -0.0126  -24.6576  -48.7785 N.am      14 UNK        -0.5000 
     80 CA          0.4021  -24.7745  -50.1754 C.3       14 UNK         0.1400 
     81 CB          1.1499  -23.4992  -50.5878 C.3       14 UNK        -0.1800 
     82 C          -0.7598  -25.0594  -51.1432 C.2       14 UNK         0.5000 
     83 O          -0.5846  -25.8477  -52.0739 O.2       14 UNK        -0.5000 
     84 N          -1.9144  -24.4258  -50.9125 N.am      15 UNK        -0.5000 
     85 CA         -3.1344  -24.5831  -51.6951 C.3       15 UNK         0.1400 
     86 CB         -3.5200  -23.2199  -52.2901 C.3       15 UNK        -0.1800 
     87 C          -4.2481  -25.1119  -50.7834 C.2       15 UNK         0.5000 
     88 O          -4.3494  -24.6800  -49.6341 O.2       15 UNK        -0.5000 
     89 N          -5.0789  -26.0169  -51.3193 N.am      16 UNK        -0.5000 
     90 CA         -6.1887  -26.6835  -50.6311 C.3       16 UNK         0.1400 
     91 CB         -6.9054  -27.6132  -51.6237 C.3       16 UNK        -0.1800 
     92 C          -7.1737  -25.6827  -49.9994 C.2       16 UNK         0.5000 
     93 O          -7.9071  -25.0094  -50.7258 O.2       16 UNK        -0.5000 
     94 N          -7.1056  -25.5515  -48.6660 N.am      17 UNK        -0.5000 
     95 CA         -7.8507  -24.6033  -47.8262 C.3       17 UNK         0.1400 
     96 CB         -9.3428  -24.9936  -47.7815 C.3       17 UNK        -0.1800 
     97 C          -7.6426  -23.1209  -48.2174 C.2       17 UNK         0.5000 
     98 O          -8.5138  -22.2934  -47.9472 O.2       17 UNK        -0.5000 
     99 N          -6.5099  -22.8231  -48.8761 N.am      18 UNK        -0.5000 
    100 CA        -6.1366  -21.5453  -49.4944 C.3       18 UNK         0.1400 
    101 CB        -6.0186  -20.4298  -48.4330 C.3       18 UNK        -0.1800 
    102 C         -7.0461  -21.1264  -50.6745 C.2       18 UNK         0.5000 
    103 O         -6.9583  -19.9818  -51.1190 O.2       18 UNK        -0.5000 
    104 N         -7.9010  -22.0350  -51.1721 N.am      19 UNK        -0.5000 
    105 CA        -8.9401  -21.7353  -52.1604 C.3       19 UNK         0.1400 
    106 CB        -9.9798  -22.8662  -52.1722 C.3       19 UNK        -0.1800 
    107 C         -8.3810  -21.4957  -53.5720 C.2       19 UNK         0.5000 
    108 O         -8.8435  -20.5863  -54.2618 O.2       19 UNK        -0.5000 
    109 N         -7.3888  -22.3042  -53.9708 N.am      20 UNK        -0.5000 
    110 CA        -6.6946  -22.1713  -55.2558 C.3       20 UNK         0.1400 
    111 CB        -6.0290  -23.5093  -55.6151 C.3       20 UNK        -0.1800 
    112 C         -5.6593  -21.0296  -55.2559 C.2       20 UNK         0.5000 
    113 O         -5.2983  -20.5391  -56.3267 O.2       20 UNK        -0.5000 
    114 N         -5.1899  -20.6475  -54.0573 N.am      21 UNK        -0.5000 
    115 CA        -4.2677  -19.5457  -53.7519 C.3       21 UNK         0.1400 
    116 CB        -5.0007  -18.1974  -53.8971 C.3       21 UNK        -0.1800 
    117 C         -2.9322  -19.5793  -54.5294 C.2       21 UNK         0.5000 
    118 O         -2.3320  -18.5287  -54.7603 O.2       21 UNK        -0.5000 
    119 N         -2.5032  -20.7842  -54.9305 N.am      22 UNK        -0.5000 
    120 CA        -1.3547  -21.0522  -55.8149 C.3       22 UNK         0.1400 
    121 C         -1.5187  -20.4963  -57.2658 C.2       22 UNK         0.5000 
    122 N         -2.7271  -20.1978  -57.7309 N.am      22 UNK        -0.7600 
    123 O         -0.5436  -20.3638  -58.0009 O.2       22 UNK        -0.5000 
    124 C124        0.0145  -20.6867  -55.1729 C.3       23 UNK        -0.0398 
    125 S125        0.3643  -21.6743  -53.6787 S.3       23 UNK        -0.2404 
    126 C126        1.6990  -20.6887  -52.9098 C.3       23 UNK        -0.0205 
    127 H127        1.8377  -11.1471  -49.4419 H         1 UNK         0.0600 
    128 H128        1.8412  -11.1175  -47.6745 H         1 UNK         0.0600 
    129 H129        1.3111  -12.5663  -48.5365 H         1 UNK         0.0600 
    130 H130        2.8568  -14.1511  -48.2020 H         1 UNK         0.3000 
    131 H131        5.5323  -13.8795  -49.1371 H         1 UNK         0.0600 
    132 H132        5.8225  -16.2183  -48.4087 H         1 UNK         0.0800 
    133 H133        4.3676  -16.1474  -47.4489 H         1 UNK         0.0800 
    134 H134        2.3256  -17.1989  -48.2070 H         1 UNK         0.0800 
    135 H135        3.4707  -18.4156  -48.7286 H         1 UNK         0.0800 
    136 H136        3.1933  -19.4909  -51.0109 H         1 UNK         0.1150 
    137 H137       -0.8027  -19.4749  -52.5835 H         1 UNK         0.1150 
    138 H138        0.2328  -16.8832  -49.3477 H         1 UNK         0.1150 
    139 H139       -1.9311  -16.6825  -50.3856 H         1 UNK         0.0800 
    140 H140       -2.2090  -17.4233  -51.9425 H         1 UNK         0.0800 
    141 H141       -3.0613  -18.9863  -47.7520 H         1 UNK         0.0800 
    142 H142       -1.6619  -18.1245  -48.2954 H         1 UNK         0.0800 
    143 H143       -0.8462  -20.4438  -49.2816 H         1 UNK         0.0600 
    144 H144       -0.3730  -19.2976  -46.7771 H         1 UNK         0.3000 
    145 H145        1.9159  -21.7750  -45.5253 H         1 UNK         0.0600 
    146 H146        3.3014  -19.7470  -45.3205 H         1 UNK         0.0600 
    147 H147        3.1841  -20.2119  -47.0115 H         1 UNK         0.0600 
    148 H148        2.2335  -18.8602  -46.4025 H         1 UNK         0.0600 
    149 H149        0.9414  -19.3780  -44.3504 H         1 UNK         0.3000 
    150 H150       -1.9577  -20.8015  -42.7697 H         1 UNK         0.0600 
    151 H151        0.0069  -21.2137  -41.2841 H         1 UNK         0.0600 
    152 H152       -0.8437  -19.7449  -40.8291 H         1 UNK         0.0600 
    153 H153        0.6765  -19.6448  -41.7139 H         1 UNK         0.0600 
    154 H154       -0.9982  -18.1339  -42.8047 H         1 UNK         0.3000 
    155 H155       -2.7499  -17.0637  -45.7627 H         1 UNK         0.0600 
    156 H156       -3.0208  -16.4186  -42.7796 H         1 UNK         0.0600 
    157 H157       -4.3266  -16.9782  -43.8186 H         1 UNK         0.0600 
    158 H158       -3.5758  -15.4190  -44.1204 H         1 UNK         0.0600 
    159 H159       -1.0152  -15.6375  -44.0288 H         1 UNK         0.3000 
    160 H160        2.0504  -16.3610  -45.7895 H         1 UNK         0.0600 
    161 H161        0.3592  -13.8381  -45.3785 H         1 UNK         0.0600 
    162 H162        0.9156  -14.4515  -46.9300 H         1 UNK         0.0600 
    163 H163        2.0805  -13.8790  -45.7395 H         1 UNK         0.0600 
    164 H164        1.5925  -14.8365  -43.4467 H         1 UNK         0.3000 
    165 H165        1.9232  -17.4674  -41.0473 H         1 UNK         0.0600 
    166 H166        3.6439  -15.8998  -40.2339 H         1 UNK         0.0600 
    167 H167        4.2249  -16.6995  -41.6866 H         1 UNK         0.0600 
    168 H168        3.6491  -15.0394  -41.7704 H         1 UNK         0.0600 
    169 H169        1.4000  -14.6289  -40.9173 H         1 UNK         0.3000 
    170 H170       -2.1487  -14.8851  -40.7311 H         1 UNK         0.0600 
    171 H171       -1.3297  -15.4683  -38.4446 H         1 UNK         0.0600 
    172 H172       -0.0426  -14.2769  -38.5868 H         1 UNK         0.0600 
    173 H173       -1.7295  -13.7622  -38.5643 H         1 UNK         0.0600 
    174 H174       -0.3201  -12.6877  -40.4716 H         1 UNK         0.3000 
    175 H175       -0.3475  -11.7676  -43.9309 H         1 UNK         0.0600 
    176 H176       -1.5391  -10.4676  -41.4266 H         1 UNK         0.0600 
    177 H177       -1.1669   -9.6619  -42.9509 H         1 UNK         0.0600 
    178 H178       -2.4399  -10.8691  -42.8840 H         1 UNK         0.0600 
    179 H179        0.9683  -10.3912  -41.9610 H         1 UNK         0.3000 
    180 H180        3.2990  -10.3506  -42.2446 H         1 UNK         0.0600 
    181 H181        3.5969  -12.6696  -40.2438 H         1 UNK         0.0600 
    182 H182        2.7489  -11.1591  -39.9349 H         1 UNK         0.0600 
    183 H183        4.4864  -11.1477  -40.1874 H         1 UNK         0.0600 
    184 H184        5.0245  -12.6714  -42.2260 H         1 UNK         0.3000 
    185 H185        6.5727  -12.2782  -44.9028 H         1 UNK         0.0600 
    186 H186        6.5139  -13.7747  -42.8870 H         1 UNK         0.0600 
    187 H187        5.1896  -14.7020  -43.5985 H         1 UNK         0.0600 
    188 H188        6.7884  -14.7243  -44.3288 H         1 UNK         0.0600 
    189 H189        4.1395  -13.1423  -46.0909 H         1 UNK         0.3000 
    190 H190       -2.5763  -21.0237  -46.1902 H         1 UNK         0.3000 
    191 H191       -4.4075  -22.9486  -47.1976 H         1 UNK         0.0600 
    192 H192       -3.3866  -22.4674  -44.3511 H         1 UNK         0.0600 
    193 H193       -4.8203  -23.3974  -44.7754 H         1 UNK         0.0600 
    194 H194       -4.7681  -21.6719  -45.1041 H         1 UNK         0.0600 
    195 H195       -1.0583  -23.3099  -46.2430 H         1 UNK         0.3000 
    196 H196       -1.1686  -26.2390  -46.0894 H         1 UNK         0.0600 
    197 H197        1.2878  -26.0281  -45.8017 H         1 UNK         0.0600 
    198 H198        0.4348  -24.9758  -44.6815 H         1 UNK         0.0600 
    199 H199        1.2033  -24.2993  -46.1140 H         1 UNK         0.0600 
    200 H200        0.0621  -23.7309  -48.3653 H         1 UNK         0.3000 
    201 H201        1.1039  -25.6081  -50.2486 H         1 UNK         0.0600 
    202 H202        2.0073  -23.3145  -49.9406 H         1 UNK         0.0600 
    203 H203        0.5033  -22.6211  -50.5452 H         1 UNK         0.0600 
    204 H204        1.5258  -23.5868  -51.6073 H         1 UNK         0.0600 
    205 H205       -2.0034  -23.8103  -50.1054 H         1 UNK         0.3000 
    206 H206       -2.9875  -25.2912  -52.5130 H         1 UNK         0.0600 
    207 H207       -2.7826  -22.8998  -53.0253 H         1 UNK         0.0600 
    208 H208       -4.4886  -23.2663  -52.7853 H         1 UNK         0.0600 
    209 H209       -3.5791  -22.4455  -51.5255 H         1 UNK         0.0600 
    210 H210       -4.9361  -26.2917  -52.2800 H         1 UNK         0.3000 
    211 H211       -5.7623  -27.3022  -49.8389 H         1 UNK         0.0600 
    212 H212       -7.3044  -27.0627  -52.4769 H         1 UNK         0.0600 
    213 H213       -7.7409  -28.1255  -51.1447 H         1 UNK         0.0600 
    214 H214       -6.2310  -28.3802  -52.0049 H         1 UNK         0.0600 
    215 H215       -6.4119  -26.1001  -48.1761 H         1 UNK         0.3000 
    216 H216       -7.4487  -24.7070  -46.8174 H         1 UNK         0.0600 
    217 H217       -9.8853  -24.3931  -47.0505 H         1 UNK         0.0600 
    218 H218       -9.4690  -26.0381  -47.4967 H         1 UNK         0.0600 
    219 H219       -9.8269  -24.8486  -48.7480 H         1 UNK         0.0600 
    220 H220       -5.8539  -23.5818  -49.0485 H         1 UNK         0.3000 
    221 H221       -5.1433  -21.6979  -49.9164 H         1 UNK         0.0600 
    222 H222       -6.9882  -20.1601  -48.0148 H         1 UNK         0.0600 
    223 H223       -5.3708  -20.7263  -47.6097 H         1 UNK         0.0600 
    224 H224       -5.5946  -19.5228  -48.8636 H         1 UNK         0.0600 
    225 H225       -7.8993  -22.9770  -50.7936 H         1 UNK         0.3000 
    226 H226       -9.4473  -20.8206  -51.8459 H         1 UNK         0.0600 
    227 H227      -10.4016  -23.0251  -51.1794 H         1 UNK         0.0600 
    228 H228      -10.8059  -22.6288  -52.8435 H         1 UNK         0.0600 
    229 H229       -9.5476  -23.8099  -52.5067 H         1 UNK         0.0600 
    230 H230       -7.0928  -23.0470  -53.3545 H         1 UNK         0.3000 
    231 H231       -7.4301  -21.9449  -56.0309 H         1 UNK         0.0600 
    232 H232       -6.7651  -24.3114  -55.6727 H         1 UNK         0.0600 
    233 H233       -5.2725  -23.8012  -54.8879 H         1 UNK         0.0600 
    234 H234       -5.5396  -23.4507  -56.5883 H         1 UNK         0.0600 
    235 H235       -5.5836  -21.1079  -53.2507 H         1 UNK         0.3000 
    236 H236       -4.0030  -19.6671  -52.7028 H         1 UNK         0.0600 
    237 H237       -5.2623  -17.9928  -54.9358 H         1 UNK         0.0600 
    238 H238       -5.9196  -18.1862  -53.3104 H         1 UNK         0.0600 
    239 H239       -4.3832  -17.3716  -53.5423 H         1 UNK         0.0600 
    240 H240       -3.0719  -21.5846  -54.7024 H         1 UNK         0.3000 
    241 H241       -1.3543  -22.1335  -55.9562 H         1 UNK         0.0600 
    242 H242       -3.5580  -20.3089  -57.1567 H         1 UNK         0.3800 
    243 H243       -2.8199  -19.8512  -58.6723 H         1 UNK         0.3800 
    244 H244        0.0607  -19.6238  -54.9341 H         1 UNK         0.0800 
    245 H245        0.8315  -20.8753  -55.8709 H         1 UNK         0.0800 
    246 H246        2.3032  -20.2223  -53.6889 H         1 UNK         0.0800 
    247 H247        2.3601  -21.3840  -52.3912 H         1 UNK         0.0800 
@<TRIPOS>BOND
     1    1    2 1    
     2    1  127 1    
     3    1  128 1    
     4    1  129 1    
     5    2    3 2    
     6    2    4 am   BACKBONE|DICT|INTERRES
     7    4    5 1    
     8    4  130 1    
     9    5    6 1    
    10    5   65 1    
    11    5  131 1    
    12    6    7 1    
    13    6  132 1    
    14    6  133 1    
    15    7    8 1    
    16    8    9 1    
    17    8  134 1    
    18    8  135 1    
    19    9   10 ar   
    20    9   14 ar   
    21   10   11 ar   
    22   10  136 1    
    23   11   12 ar   
    24   11  126 1    
    25   12   13 ar   
    26   12  137 1    
    27   13   14 ar   
    28   13   15 1    
    29   14  138 1    
    30   15   16 1    
    31   15  139 1    
    32   15  140 1    
    33   16   17 1    
    34   17   18 1    
    35   17  141 1    
    36   17  142 1    
    37   18   19 1    
    38   18   67 1    
    39   18  143 1    
    40   19   20 am   BACKBONE|DICT|INTERRES
    41   19  144 1    
    42   20   21 2    
    43   20   22 1    
    44   22   23 1    
    45   22   24 1    
    46   22  145 1    
    47   23  146 1    
    48   23  147 1    
    49   23  148 1    
    50   24   25 am   BACKBONE|DICT|INTERRES
    51   24  149 1    
    52   25   26 2    
    53   25   27 1    
    54   27   28 1    
    55   27   29 1    
    56   27  150 1    
    57   28  151 1    
    58   28  152 1    
    59   28  153 1    
    60   29   30 am   BACKBONE|DICT|INTERRES
    61   29  154 1    
    62   30   31 2    
    63   30   32 1    
    64   32   33 1    
    65   32   34 1    
    66   32  155 1    
    67   33  156 1    
    68   33  157 1    
    69   33  158 1    
    70   34   35 am   BACKBONE|DICT|INTERRES
    71   34  159 1    
    72   35   36 2    
    73   35   37 1    
    74   37   38 1    
    75   37   39 1    
    76   37  160 1    
    77   38  161 1    
    78   38  162 1    
    79   38  163 1    
    80   39   40 am   BACKBONE|DICT|INTERRES
    81   39  164 1    
    82   40   41 2    
    83   40   42 1    
    84   42   43 1    
    85   42   44 1    
    86   42  165 1    
    87   43  166 1    
    88   43  167 1    
    89   43  168 1    
    90   44   45 am   BACKBONE|DICT|INTERRES
    91   44  169 1    
    92   45   46 2    
    93   45   47 1    
    94   47   48 1    
    95   47   49 1    
    96   47  170 1    
    97   48  171 1    
    98   48  172 1    
    99   48  173 1    
   100   49   50 am   BACKBONE|DICT|INTERRES
   101   49  174 1    
   102   50   51 2    
   103   50   52 1    
   104   52   53 1    
   105   52   54 1    
   106   52  175 1    
   107   53  176 1    
   108   53  177 1    
   109   53  178 1    
   110   54   55 am   BACKBONE|DICT|INTERRES
   111   54  179 1    
   112   55   56 2    
   113   55   57 1    
   114   57   58 1    
   115   57   59 1    
   116   57  180 1    
   117   58  181 1    
   118   58  182 1    
   119   58  183 1    
   120   59   60 am   BACKBONE|DICT|INTERRES
   121   59  184 1    
   122   60   61 2    
   123   60   62 1    
   124   62   63 1    
   125   62   64 1    
   126   62  185 1    
   127   63  186 1    
   128   63  187 1    
   129   63  188 1    
   130   64   65 am   BACKBONE|DICT|INTERRES
   131   64  189 1    
   132   65   66 2    
   133   67   68 2    
   134   67   69 am   BACKBONE|DICT|INTERRES
   135   69   70 1    
   136   69  190 1    
   137   70   71 1    
   138   70   72 1    
   139   70  191 1    
   140   71  192 1    
   141   71  193 1    
   142   71  194 1    
   143   72   73 2    
   144   72   74 am   BACKBONE|DICT|INTERRES
   145   74   75 1    
   146   74  195 1    
   147   75   76 1    
   148   75   77 1    
   149   75  196 1    
   150   76  197 1    
   151   76  198 1    
   152   76  199 1    
   153   77   78 2    
   154   77   79 am   BACKBONE|DICT|INTERRES
   155   79   80 1    
   156   79  200 1    
   157   80   81 1    
   158   80   82 1    
   159   80  201 1    
   160   81  202 1    
   161   81  203 1    
   162   81  204 1    
   163   82   83 2    
   164   82   84 am   BACKBONE|DICT|INTERRES
   165   84   85 1    
   166   84  205 1    
   167   85   86 1    
   168   85   87 1    
   169   85  206 1    
   170   86  207 1    
   171   86  208 1    
   172   86  209 1    
   173   87   88 2    
   174   87   89 am   BACKBONE|DICT|INTERRES
   175   89   90 1    
   176   89  210 1    
   177   90   91 1    
   178   90   92 1    
   179   90  211 1    
   180   91  212 1    
   181   91  213 1    
   182   91  214 1    
   183   92   93 2    
   184   92   94 am   BACKBONE|DICT|INTERRES
   185   94   95 1    
   186   94  215 1    
   187   95   96 1    
   188   95   97 1    
   189   95  216 1    
   190   96  217 1    
   191   96  218 1    
   192   96  219 1    
   193   97   98 2    
   194   97   99 am   BACKBONE|DICT|INTERRES
   195   99  100 1    
   196   99  220 1    
   197  100  101 1    
   198  100  102 1    
   199  100  221 1    
   200  101  222 1    
   201  101  223 1    
   202  101  224 1    
   203  102  103 2    
   204  102  104 am   BACKBONE|DICT|INTERRES
   205  104  105 1    
   206  104  225 1    
   207  105  106 1    
   208  105  107 1    
   209  105  226 1    
   210  106  227 1    
   211  106  228 1    
   212  106  229 1    
   213  107  108 2    
   214  107  109 am   BACKBONE|DICT|INTERRES
   215  109  110 1    
   216  109  230 1    
   217  110  111 1    
   218  110  112 1    
   219  110  231 1    
   220  111  232 1    
   221  111  233 1    
   222  111  234 1    
   223  112  113 2    
   224  112  114 am   BACKBONE|DICT|INTERRES
   225  114  115 1    
   226  114  235 1    
   227  115  116 1    
   228  115  117 1    
   229  115  236 1    
   230  116  237 1    
   231  116  238 1    
   232  116  239 1    
   233  117  118 2    
   234  117  119 am   BACKBONE|DICT|INTERRES
   235  119  120 1    
   236  119  240 1    
   237  120  121 1    
   238  120  124 1    
   239  120  241 1    
   240  121  122 am   BACKBONE|DICT|INTERRES
   241  121  123 2    
   242  122  242 1    
   243  122  243 1    
   244  124  125 1    
   245  124  244 1    
   246  124  245 1    
   247  125  126 1    
   248  126  246 1    
   249  126  247 1    
@<TRIPOS>SUBSTRUCTURE
     1 UNK         1 GROUP             0       ****    0 ROOT    
