@<TRIPOS>MOLECULE
3R540
247   249    1
SMALL
USER_CHARGES


@<TRIPOS>ATOM
      1 CA          4.5226  -12.6915  -48.4036 C.3       0 UNK        -0.1800 
      2 C           3.6122  -13.3164  -47.3572 C.2       0 UNK         0.5000 
      3 O           3.9619  -13.3498  -46.1789 O.2       0 UNK        -0.5000 
      4 N           2.4333  -13.7951  -47.7742 N.am      1 UNK        -0.5000 
      5 CA          1.4348  -14.4462  -46.9146 C.3       1 UNK         0.1400 
      6 C6          0.3417  -15.1663  -47.7415 C.3       23 UNK        -0.0398 
      7 S7         -0.6935  -14.0502  -48.7558 S.3       23 UNK        -0.2404 
      8 C8          0.0410  -14.2222  -50.4134 C.3       23 UNK        -0.0205 
      9 C9         -0.2344  -15.5792  -51.0452 C.ar      23 UNK        -0.0193 
     10 C10        -1.5337  -15.9268  -51.4190 C.ar      23 UNK        -0.1150 
     11 C11        -1.7989  -17.1440  -52.0536 C.ar      23 UNK        -0.0193 
     12 C12        -0.7370  -18.0239  -52.3080 C.ar      23 UNK        -0.1150 
     13 C13         0.5730  -17.6839  -51.9471 C.ar      23 UNK        -0.0193 
     14 C14         0.8134  -16.4643  -51.3071 C.ar      23 UNK        -0.1150 
     15 C15         1.7487  -18.5868  -52.3077 C.3       23 UNK        -0.0205 
     16 S16         1.7127  -20.2251  -51.5123 S.3       23 UNK        -0.2404 
     17 C17         1.7216  -19.8245  -49.7297 C.3       23 UNK        -0.0398 
     18 CA          0.6611  -20.6359  -48.9424 C.3       11 UNK         0.1400 
     19 N           0.9981  -20.7167  -47.5122 N.am      11 UNK        -0.5000 
     20 C           0.3031  -21.3747  -46.5728 C.2       10 UNK         0.5000 
     21 O          -0.8198  -21.8363  -46.7683 O.2       10 UNK        -0.5000 
     22 CA          0.9645  -21.5825  -45.1954 C.3       10 UNK         0.1400 
     23 CB          2.4329  -21.1196  -45.1194 C.3       10 UNK        -0.1800 
     24 N           0.1880  -20.9148  -44.1564 N.am      10 UNK        -0.5000 
     25 C          -0.9059  -21.4114  -43.5616 C.2       9 UNK         0.5000 
     26 O          -1.3338  -22.5500  -43.7519 O.2       9 UNK        -0.5000 
     27 CA         -1.6531  -20.4893  -42.5768 C.3       9 UNK         0.1400 
     28 CB         -1.3205  -20.8722  -41.1268 C.3       9 UNK        -0.1800 
     29 N          -1.3639  -19.0677  -42.7725 N.am      9 UNK        -0.5000 
     30 C          -1.7596  -18.3434  -43.8282 C.2       8 UNK         0.5000 
     31 O          -2.4727  -18.7845  -44.7277 O.2       8 UNK        -0.5000 
     32 CA         -1.2290  -16.8999  -43.9105 C.3       8 UNK         0.1400 
     33 CB         -2.0916  -15.9470  -43.0701 C.3       8 UNK        -0.1800 
     34 N           0.1680  -16.8047  -43.4853 N.am      8 UNK        -0.5000 
     35 C           1.2044  -17.3183  -44.1622 C.2       7 UNK         0.5000 
     36 O           1.0960  -17.8709  -45.2573 O.2       7 UNK        -0.5000 
     37 CA          2.5835  -17.2500  -43.4798 C.3       7 UNK         0.1400 
     38 CB          3.3130  -15.9369  -43.8049 C.3       7 UNK        -0.1800 
     39 N           2.4720  -17.4015  -42.0289 N.am      7 UNK        -0.5000 
     40 C           2.2670  -18.5713  -41.4064 C.2       6 UNK         0.5000 
     41 O           2.1985  -19.6509  -41.9914 O.2       6 UNK        -0.5000 
     42 CA          2.0815  -18.5281  -39.8772 C.3       6 UNK         0.1400 
     43 CB          3.4381  -18.6526  -39.1679 C.3       6 UNK        -0.1800 
     44 N           1.4103  -17.3116  -39.4180 N.am      6 UNK        -0.5000 
     45 C           0.1356  -16.9960  -39.6878 C.2       5 UNK         0.5000 
     46 O          -0.6305  -17.7298  -40.3096 O.2       5 UNK        -0.5000 
     47 CA         -0.3403  -15.5991  -39.2430 C.3       5 UNK         0.1400 
     48 CB         -0.9108  -15.6510  -37.8182 C.3       5 UNK        -0.1800 
     49 N           0.7195  -14.5870  -39.3082 N.am      5 UNK        -0.5000 
     50 C           1.3475  -14.2229  -40.4336 C.2       4 UNK         0.5000 
     51 O           1.0768  -14.6815  -41.5458 O.2       4 UNK        -0.5000 
     52 CA          2.5242  -13.2550  -40.2759 C.3       4 UNK         0.1400 
     53 CB          3.7718  -14.0155  -39.7833 C.3       4 UNK        -0.1800 
     54 N           2.8001  -12.6217  -41.5612 N.am      4 UNK        -0.5000 
     55 C           3.5381  -11.5195  -41.7337 C.2       3 UNK         0.5000 
     56 O           4.0604  -10.8978  -40.8070 O.2       3 UNK        -0.5000 
     57 CA          3.7420  -11.0202  -43.1767 C.3       3 UNK         0.1400 
     58 CB          5.0642  -11.5622  -43.7400 C.3       3 UNK        -0.1800 
     59 N           2.6497  -11.3524  -44.0966 N.am      3 UNK        -0.5000 
     60 C           1.4164  -10.8255  -44.0287 C.2       2 UNK         0.5000 
     61 O           1.0570  -10.0664  -43.1276 O.2       2 UNK        -0.5000 
     62 CA          0.4200  -11.1551  -45.1606 C.3       2 UNK         0.1400 
     63 CB          0.1011   -9.8952  -45.9819 C.3       2 UNK        -0.1800 
     64 N           0.8947  -12.1905  -46.0770 N.am      2 UNK        -0.5000 
     65 C           0.8331  -13.5071  -45.8414 C.2       1 UNK         0.5000 
     66 O           0.3457  -13.9849  -44.8203 O.2       1 UNK        -0.5000 
     67 C          -0.7712  -20.1491  -49.2584 C.2       11 UNK         0.5000 
     68 O          -1.3529  -20.6003  -50.2425 O.2       11 UNK        -0.5000 
     69 N          -1.3330  -19.2741  -48.4157 N.am      12 UNK        -0.5000 
     70 CA         -2.6855  -18.7484  -48.5953 C.3       12 UNK         0.1400 
     71 CB         -2.7873  -17.3636  -47.9392 C.3       12 UNK        -0.1800 
     72 C          -3.8131  -19.6976  -48.1349 C.2       12 UNK         0.5000 
     73 O          -4.9790  -19.3482  -48.3274 O.2       12 UNK        -0.5000 
     74 N          -3.4849  -20.8619  -47.5529 N.am      13 UNK        -0.5000 
     75 CA         -4.4697  -21.8111  -47.0308 C.3       13 UNK         0.1400 
     76 CB         -4.6701  -21.5677  -45.5255 C.3       13 UNK        -0.1800 
     77 C          -4.1016  -23.2767  -47.3083 C.2       13 UNK         0.5000 
     78 O          -4.9399  -24.0186  -47.8251 O.2       13 UNK        -0.5000 
     79 N          -2.8753  -23.6804  -46.9534 N.am      14 UNK        -0.5000 
     80 CA         -2.3946  -25.0632  -46.9807 C.3       14 UNK         0.1400 
     81 CB         -0.9730  -25.1192  -46.4013 C.3       14 UNK        -0.1800 
     82 C          -2.4159  -25.6804  -48.3879 C.2       14 UNK         0.5000 
     83 O          -2.0158  -25.0186  -49.3472 O.2       14 UNK        -0.5000 
     84 N          -2.8749  -26.9377  -48.4722 N.am      15 UNK        -0.5000 
     85 CA         -3.0048  -27.7479  -49.6900 C.3       15 UNK         0.1400 
     86 CB         -1.6109  -28.1302  -50.2323 C.3       15 UNK        -0.1800 
     87 C          -3.9002  -27.0827  -50.7568 C.2       15 UNK         0.5000 
     88 O          -3.5377  -27.0570  -51.9324 O.2       15 UNK        -0.5000 
     89 N          -5.0362  -26.5199  -50.3141 N.am      16 UNK        -0.5000 
     90 CA         -5.9800  -25.7165  -51.1038 C.3       16 UNK         0.1400 
     91 CB         -6.6959  -26.5803  -52.1638 C.3       16 UNK        -0.1800 
     92 C          -5.2980  -24.4685  -51.7004 C.2       16 UNK         0.5000 
     93 O          -5.3909  -24.2167  -52.9035 O.2       16 UNK        -0.5000 
     94 N          -4.5812  -23.7442  -50.8296 N.am      17 UNK        -0.5000 
     95 CA         -3.7280  -22.5902  -51.1199 C.3       17 UNK         0.1400 
     96 CB         -4.5883  -21.3593  -51.4600 C.3       17 UNK        -0.1800 
     97 C          -2.6727  -22.9094  -52.1984 C.2       17 UNK         0.5000 
     98 O          -2.6912  -22.3213  -53.2809 O.2       17 UNK        -0.5000 
     99 N          -1.8245  -23.9050  -51.9005 N.am      18 UNK        -0.5000 
    100 CA        -0.7671  -24.4593  -52.7548 C.3       18 UNK         0.1400 
    101 CB         0.3956  -23.4547  -52.8771 C.3       18 UNK        -0.1800 
    102 C         -1.2886  -24.9497  -54.1243 C.2       18 UNK         0.5000 
    103 O         -0.6281  -24.7624  -55.1474 O.2       18 UNK        -0.5000 
    104 N         -2.4925  -25.5385  -54.1072 N.am      19 UNK        -0.5000 
    105 CA        -3.3042  -26.0124  -55.2308 C.3       19 UNK         0.1400 
    106 CB        -2.5916  -27.1615  -55.9725 C.3       19 UNK        -0.1800 
    107 C         -3.7928  -24.9088  -56.1961 C.2       19 UNK         0.5000 
    108 O         -4.3858  -25.2402  -57.2245 O.2       19 UNK        -0.5000 
    109 N         -3.5645  -23.6289  -55.8694 N.am      20 UNK        -0.5000 
    110 CA        -3.9702  -22.4866  -56.6887 C.3       20 UNK         0.1400 
    111 CB        -2.9497  -21.3515  -56.5124 C.3       20 UNK        -0.1800 
    112 C         -5.3891  -21.9950  -56.3534 C.2       20 UNK         0.5000 
    113 O         -5.9783  -21.2847  -57.1690 O.2       20 UNK        -0.5000 
    114 N         -5.9075  -22.3630  -55.1697 N.am      21 UNK        -0.5000 
    115 CA        -7.2232  -22.0041  -54.6240 C.3       21 UNK         0.1400 
    116 CB        -8.3512  -22.6501  -55.4547 C.3       21 UNK        -0.1800 
    117 C         -7.4275  -20.4862  -54.4137 C.2       21 UNK         0.5000 
    118 O         -8.5680  -20.0223  -54.3679 O.2       21 UNK        -0.5000 
    119 N         -6.3241  -19.7393  -54.2765 N.am      22 UNK        -0.5000 
    120 CA        -6.3034  -18.2823  -54.0756 C.3       22 UNK         0.1400 
    121 C         -6.6278  -17.8036  -52.6285 C.2       22 UNK         0.5000 
    122 N         -6.7985  -18.6871  -51.6534 N.am      22 UNK        -0.7600 
    123 O         -6.7361  -16.6043  -52.3886 O.2       22 UNK        -0.5000 
    124 C124       -5.0050  -17.6425  -54.6388 C.3       23 UNK        -0.0398 
    125 S125       -3.4379  -18.3537  -54.0154 S.3       23 UNK        -0.2404 
    126 C126       -3.2431  -17.4689  -52.4324 C.3       23 UNK        -0.0205 
    127 H127        4.0759  -12.7168  -49.3977 H         1 UNK         0.0600 
    128 H128        5.4708  -13.2276  -48.4421 H         1 UNK         0.0600 
    129 H129        4.7279  -11.6519  -48.1481 H         1 UNK         0.0600 
    130 H130        2.1871  -13.7192  -48.7494 H         1 UNK         0.3000 
    131 H131        1.9642  -15.2248  -46.3649 H         1 UNK         0.0600 
    132 H132        0.7996  -15.9222  -48.3802 H         1 UNK         0.0800 
    133 H133       -0.3165  -15.7216  -47.0718 H         1 UNK         0.0800 
    134 H134       -0.3775  -13.4478  -51.0578 H         1 UNK         0.0800 
    135 H135        1.1120  -14.0246  -50.3650 H         1 UNK         0.0800 
    136 H136       -2.3414  -15.2369  -51.2172 H         1 UNK         0.1150 
    137 H137       -0.9245  -18.9714  -52.7938 H         1 UNK         0.1150 
    138 H138        1.8240  -16.1896  -51.0391 H         1 UNK         0.1150 
    139 H139        1.7554  -18.7296  -53.3890 H         1 UNK         0.0800 
    140 H140        2.6966  -18.1052  -52.0627 H         1 UNK         0.0800 
    141 H141        1.5914  -18.7533  -49.5693 H         1 UNK         0.0800 
    142 H142        2.7215  -20.0610  -49.3639 H         1 UNK         0.0800 
    143 H143        0.7084  -21.6685  -49.2961 H         1 UNK         0.0600 
    144 H144        1.8917  -20.3297  -47.2464 H         1 UNK         0.3000 
    145 H145        0.9554  -22.6577  -45.0053 H         1 UNK         0.0600 
    146 H146        2.8551  -21.3343  -44.1374 H         1 UNK         0.0600 
    147 H147        3.0500  -21.6438  -45.8502 H         1 UNK         0.0600 
    148 H148        2.5417  -20.0502  -45.2941 H         1 UNK         0.0600 
    149 H149        0.4619  -19.9694  -43.9306 H         1 UNK         0.3000 
    150 H150       -2.7229  -20.6419  -42.7338 H         1 UNK         0.0600 
    151 H151       -1.5552  -21.9198  -40.9342 H         1 UNK         0.0600 
    152 H152       -1.8955  -20.2752  -40.4188 H         1 UNK         0.0600 
    153 H153       -0.2624  -20.7264  -40.9073 H         1 UNK         0.0600 
    154 H154       -0.8502  -18.6038  -42.0289 H         1 UNK         0.3000 
    155 H155       -1.2856  -16.5765  -44.9511 H         1 UNK         0.0600 
    156 H156       -3.1236  -15.9456  -43.4226 H         1 UNK         0.0600 
    157 H157       -1.7232  -14.9228  -43.1339 H         1 UNK         0.0600 
    158 H158       -2.1050  -16.2329  -42.0188 H         1 UNK         0.0600 
    159 H159        0.3562  -16.2789  -42.6393 H         1 UNK         0.3000 
    160 H160        3.1912  -18.0715  -43.8650 H         1 UNK         0.0600 
    161 H161        2.6992  -15.0618  -43.5926 H         1 UNK         0.0600 
    162 H162        3.5852  -15.8980  -44.8594 H         1 UNK         0.0600 
    163 H163        4.2372  -15.8432  -43.2346 H         1 UNK         0.0600 
    164 H164        2.4497  -16.5494  -41.4880 H         1 UNK         0.3000 
    165 H165        1.4660  -19.3839  -39.5924 H         1 UNK         0.0600 
    166 H166        3.3146  -18.6995  -38.0858 H         1 UNK         0.0600 
    167 H167        3.9564  -19.5623  -39.4743 H         1 UNK         0.0600 
    168 H168        4.0916  -17.8095  -39.3960 H         1 UNK         0.0600 
    169 H169        1.9672  -16.6540  -38.8933 H         1 UNK         0.3000 
    170 H170       -1.1392  -15.2909  -39.9204 H         1 UNK         0.0600 
    171 H171       -1.7164  -16.3832  -37.7474 H         1 UNK         0.0600 
    172 H172       -0.1494  -15.9288  -37.0882 H         1 UNK         0.0600 
    173 H173       -1.3238  -14.6863  -37.5232 H         1 UNK         0.0600 
    174 H174        1.0018  -14.1738  -38.4308 H         1 UNK         0.3000 
    175 H175        2.2450  -12.4878  -39.5507 H         1 UNK         0.0600 
    176 H176        4.0883  -14.7736  -40.5011 H         1 UNK         0.0600 
    177 H177        4.6127  -13.3415  -39.6206 H         1 UNK         0.0600 
    178 H178        3.5810  -14.5190  -38.8349 H         1 UNK         0.0600 
    179 H179        2.3528  -13.0625  -42.3557 H         1 UNK         0.3000 
    180 H180        3.8180   -9.9316  -43.1349 H         1 UNK         0.0600 
    181 H181        5.0600  -12.6517  -43.7930 H         1 UNK         0.0600 
    182 H182        5.9065  -11.2688  -43.1121 H         1 UNK         0.0600 
    183 H183        5.2564  -11.1773  -44.7417 H         1 UNK         0.0600 
    184 H184        2.8768  -11.9834  -44.8561 H         1 UNK         0.3000 
    185 H185       -0.5047  -11.4959  -44.6900 H         1 UNK         0.0600 
    186 H186       -0.6428  -10.1040  -46.7512 H         1 UNK         0.0600 
    187 H187       -0.3038   -9.1048  -45.3484 H         1 UNK         0.0600 
    188 H188        0.9909   -9.4990  -46.4728 H         1 UNK         0.0600 
    189 H189        1.3122  -11.8780  -46.9411 H         1 UNK         0.3000 
    190 H190       -0.8276  -18.9862  -47.5901 H         1 UNK         0.3000 
    191 H191       -2.8478  -18.5971  -49.6615 H         1 UNK         0.0600 
    192 H192       -2.5342  -17.3929  -46.8820 H         1 UNK         0.0600 
    193 H193       -2.1164  -16.6600  -48.4289 H         1 UNK         0.0600 
    194 H194       -3.7944  -16.9544  -48.0263 H         1 UNK         0.0600 
    195 H195       -2.5050  -21.0975  -47.4234 H         1 UNK         0.3000 
    196 H196       -5.4316  -21.6510  -47.5227 H         1 UNK         0.0600 
    197 H197       -5.3859  -22.2743  -45.1036 H         1 UNK         0.0600 
    198 H198       -5.0514  -20.5640  -45.3370 H         1 UNK         0.0600 
    199 H199       -3.7351  -21.6748  -44.9753 H         1 UNK         0.0600 
    200 H200       -2.2012  -22.9902  -46.6298 H         1 UNK         0.3000 
    201 H201       -3.0519  -25.6446  -46.3311 H         1 UNK         0.0600 
    202 H202       -0.9424  -24.7191  -45.3880 H         1 UNK         0.0600 
    203 H203       -0.2701  -24.5482  -47.0091 H         1 UNK         0.0600 
    204 H204       -0.6083  -26.1461  -46.3565 H         1 UNK         0.0600 
    205 H205       -3.1829  -27.3896  -47.6223 H         1 UNK         0.3000 
    206 H206       -3.5105  -28.6699  -49.4000 H         1 UNK         0.0600 
    207 H207       -1.0103  -28.6188  -49.4653 H         1 UNK         0.0600 
    208 H208       -1.6937  -28.8245  -51.0693 H         1 UNK         0.0600 
    209 H209       -1.0590  -27.2585  -50.5848 H         1 UNK         0.0600 
    210 H210       -5.2264  -26.5643  -49.3225 H         1 UNK         0.3000 
    211 H211       -6.7375  -25.3512  -50.4087 H         1 UNK         0.0600 
    212 H212       -6.0079  -26.9482  -52.9252 H         1 UNK         0.0600 
    213 H213       -7.4683  -26.0051  -52.6757 H         1 UNK         0.0600 
    214 H214       -7.1819  -27.4420  -51.7066 H         1 UNK         0.0600 
    215 H215       -4.5664  -24.0576  -49.8653 H         1 UNK         0.3000 
    216 H216       -3.1870  -22.3773  -50.1982 H         1 UNK         0.0600 
    217 H217       -3.9596  -20.4824  -51.6163 H         1 UNK         0.0600 
    218 H218       -5.2776  -21.1272  -50.6486 H         1 UNK         0.0600 
    219 H219       -5.1698  -21.5140  -52.3670 H         1 UNK         0.0600 
    220 H220       -1.9149  -24.3409  -50.9822 H         1 UNK         0.3000 
    221 H221       -0.3899  -25.3431  -52.2387 H         1 UNK         0.0600 
    222 H222        0.0929  -22.5488  -53.4037 H         1 UNK         0.0600 
    223 H223        0.7628  -23.1615  -51.8936 H         1 UNK         0.0600 
    224 H224        1.2360  -23.8872  -53.4208 H         1 UNK         0.0600 
    225 H225       -2.9222  -25.6941  -53.1997 H         1 UNK         0.3000 
    226 H226       -4.2067  -26.4254  -54.7782 H         1 UNK         0.0600 
    227 H227       -2.2791  -27.9427  -55.2794 H         1 UNK         0.0600 
    228 H228       -3.2532  -27.6261  -56.7044 H         1 UNK         0.0600 
    229 H229       -1.7083  -26.8129  -56.5080 H         1 UNK         0.0600 
    230 H230       -3.1033  -23.4129  -54.9911 H         1 UNK         0.3000 
    231 H231       -3.9632  -22.7742  -57.7421 H         1 UNK         0.0600 
    232 H232       -2.9346  -20.9760  -55.4899 H         1 UNK         0.0600 
    233 H233       -3.1858  -20.5091  -57.1636 H         1 UNK         0.0600 
    234 H234       -1.9418  -21.6840  -56.7612 H         1 UNK         0.0600 
    235 H235       -5.3531  -22.9657  -54.5690 H         1 UNK         0.3000 
    236 H236       -7.2654  -22.4444  -53.6275 H         1 UNK         0.0600 
    237 H237       -8.1892  -23.7219  -55.5702 H         1 UNK         0.0600 
    238 H238       -9.3194  -22.5212  -54.9697 H         1 UNK         0.0600 
    239 H239       -8.4239  -22.2118  -56.4503 H         1 UNK         0.0600 
    240 H240       -5.4219  -20.1907  -54.3199 H         1 UNK         0.3000 
    241 H241       -7.1177  -17.8741  -54.6774 H         1 UNK         0.0600 
    242 H242       -7.0028  -18.3641  -50.7208 H         1 UNK         0.3800 
    243 H243       -6.7307  -19.6727  -51.8395 H         1 UNK         0.3800 
    244 H244       -4.9972  -17.7763  -55.7213 H         1 UNK         0.0800 
    245 H245       -5.0026  -16.5612  -54.4917 H         1 UNK         0.0800 
    246 H246       -3.6994  -18.0671  -51.6458 H         1 UNK         0.0800 
    247 H247       -3.8163  -16.5419  -52.4756 H         1 UNK         0.0800 
@<TRIPOS>BOND
     1    1    2 1    
     2    1  127 1    
     3    1  128 1    
     4    1  129 1    
     5    2    3 2    
     6    2    4 am   BACKBONE|DICT|INTERRES
     7    4    5 1    
     8    4  130 1    
     9    5    6 1    
    10    5   65 1    
    11    5  131 1    
    12    6    7 1    
    13    6  132 1    
    14    6  133 1    
    15    7    8 1    
    16    8    9 1    
    17    8  134 1    
    18    8  135 1    
    19    9   10 ar   
    20    9   14 ar   
    21   10   11 ar   
    22   10  136 1    
    23   11   12 ar   
    24   11  126 1    
    25   12   13 ar   
    26   12  137 1    
    27   13   14 ar   
    28   13   15 1    
    29   14  138 1    
    30   15   16 1    
    31   15  139 1    
    32   15  140 1    
    33   16   17 1    
    34   17   18 1    
    35   17  141 1    
    36   17  142 1    
    37   18   19 1    
    38   18   67 1    
    39   18  143 1    
    40   19   20 am   BACKBONE|DICT|INTERRES
    41   19  144 1    
    42   20   21 2    
    43   20   22 1    
    44   22   23 1    
    45   22   24 1    
    46   22  145 1    
    47   23  146 1    
    48   23  147 1    
    49   23  148 1    
    50   24   25 am   BACKBONE|DICT|INTERRES
    51   24  149 1    
    52   25   26 2    
    53   25   27 1    
    54   27   28 1    
    55   27   29 1    
    56   27  150 1    
    57   28  151 1    
    58   28  152 1    
    59   28  153 1    
    60   29   30 am   BACKBONE|DICT|INTERRES
    61   29  154 1    
    62   30   31 2    
    63   30   32 1    
    64   32   33 1    
    65   32   34 1    
    66   32  155 1    
    67   33  156 1    
    68   33  157 1    
    69   33  158 1    
    70   34   35 am   BACKBONE|DICT|INTERRES
    71   34  159 1    
    72   35   36 2    
    73   35   37 1    
    74   37   38 1    
    75   37   39 1    
    76   37  160 1    
    77   38  161 1    
    78   38  162 1    
    79   38  163 1    
    80   39   40 am   BACKBONE|DICT|INTERRES
    81   39  164 1    
    82   40   41 2    
    83   40   42 1    
    84   42   43 1    
    85   42   44 1    
    86   42  165 1    
    87   43  166 1    
    88   43  167 1    
    89   43  168 1    
    90   44   45 am   BACKBONE|DICT|INTERRES
    91   44  169 1    
    92   45   46 2    
    93   45   47 1    
    94   47   48 1    
    95   47   49 1    
    96   47  170 1    
    97   48  171 1    
    98   48  172 1    
    99   48  173 1    
   100   49   50 am   BACKBONE|DICT|INTERRES
   101   49  174 1    
   102   50   51 2    
   103   50   52 1    
   104   52   53 1    
   105   52   54 1    
   106   52  175 1    
   107   53  176 1    
   108   53  177 1    
   109   53  178 1    
   110   54   55 am   BACKBONE|DICT|INTERRES
   111   54  179 1    
   112   55   56 2    
   113   55   57 1    
   114   57   58 1    
   115   57   59 1    
   116   57  180 1    
   117   58  181 1    
   118   58  182 1    
   119   58  183 1    
   120   59   60 am   BACKBONE|DICT|INTERRES
   121   59  184 1    
   122   60   61 2    
   123   60   62 1    
   124   62   63 1    
   125   62   64 1    
   126   62  185 1    
   127   63  186 1    
   128   63  187 1    
   129   63  188 1    
   130   64   65 am   BACKBONE|DICT|INTERRES
   131   64  189 1    
   132   65   66 2    
   133   67   68 2    
   134   67   69 am   BACKBONE|DICT|INTERRES
   135   69   70 1    
   136   69  190 1    
   137   70   71 1    
   138   70   72 1    
   139   70  191 1    
   140   71  192 1    
   141   71  193 1    
   142   71  194 1    
   143   72   73 2    
   144   72   74 am   BACKBONE|DICT|INTERRES
   145   74   75 1    
   146   74  195 1    
   147   75   76 1    
   148   75   77 1    
   149   75  196 1    
   150   76  197 1    
   151   76  198 1    
   152   76  199 1    
   153   77   78 2    
   154   77   79 am   BACKBONE|DICT|INTERRES
   155   79   80 1    
   156   79  200 1    
   157   80   81 1    
   158   80   82 1    
   159   80  201 1    
   160   81  202 1    
   161   81  203 1    
   162   81  204 1    
   163   82   83 2    
   164   82   84 am   BACKBONE|DICT|INTERRES
   165   84   85 1    
   166   84  205 1    
   167   85   86 1    
   168   85   87 1    
   169   85  206 1    
   170   86  207 1    
   171   86  208 1    
   172   86  209 1    
   173   87   88 2    
   174   87   89 am   BACKBONE|DICT|INTERRES
   175   89   90 1    
   176   89  210 1    
   177   90   91 1    
   178   90   92 1    
   179   90  211 1    
   180   91  212 1    
   181   91  213 1    
   182   91  214 1    
   183   92   93 2    
   184   92   94 am   BACKBONE|DICT|INTERRES
   185   94   95 1    
   186   94  215 1    
   187   95   96 1    
   188   95   97 1    
   189   95  216 1    
   190   96  217 1    
   191   96  218 1    
   192   96  219 1    
   193   97   98 2    
   194   97   99 am   BACKBONE|DICT|INTERRES
   195   99  100 1    
   196   99  220 1    
   197  100  101 1    
   198  100  102 1    
   199  100  221 1    
   200  101  222 1    
   201  101  223 1    
   202  101  224 1    
   203  102  103 2    
   204  102  104 am   BACKBONE|DICT|INTERRES
   205  104  105 1    
   206  104  225 1    
   207  105  106 1    
   208  105  107 1    
   209  105  226 1    
   210  106  227 1    
   211  106  228 1    
   212  106  229 1    
   213  107  108 2    
   214  107  109 am   BACKBONE|DICT|INTERRES
   215  109  110 1    
   216  109  230 1    
   217  110  111 1    
   218  110  112 1    
   219  110  231 1    
   220  111  232 1    
   221  111  233 1    
   222  111  234 1    
   223  112  113 2    
   224  112  114 am   BACKBONE|DICT|INTERRES
   225  114  115 1    
   226  114  235 1    
   227  115  116 1    
   228  115  117 1    
   229  115  236 1    
   230  116  237 1    
   231  116  238 1    
   232  116  239 1    
   233  117  118 2    
   234  117  119 am   BACKBONE|DICT|INTERRES
   235  119  120 1    
   236  119  240 1    
   237  120  121 1    
   238  120  124 1    
   239  120  241 1    
   240  121  122 am   BACKBONE|DICT|INTERRES
   241  121  123 2    
   242  122  242 1    
   243  122  243 1    
   244  124  125 1    
   245  124  244 1    
   246  124  245 1    
   247  125  126 1    
   248  126  246 1    
   249  126  247 1    
@<TRIPOS>SUBSTRUCTURE
     1 UNK         1 GROUP             0       ****    0 ROOT    
