@<TRIPOS>MOLECULE
3R540
247   249    1
SMALL
USER_CHARGES


@<TRIPOS>ATOM
      1 CA         -0.1181   -9.8088  -48.5881 C.3       0 UNK        -0.1800 
      2 C          -0.1412  -10.7795  -47.4174 C.2       0 UNK         0.5000 
      3 O           0.8432  -10.8764  -46.6843 O.2       0 UNK        -0.5000 
      4 N          -1.2654  -11.4826  -47.2228 N.am      1 UNK        -0.5000 
      5 CA         -1.4657  -12.5100  -46.1892 C.3       1 UNK         0.1400 
      6 C6         -2.8300  -13.2289  -46.3412 C.3       23 UNK        -0.0398 
      7 S7         -2.9518  -14.1788  -47.8965 S.3       23 UNK        -0.2404 
      8 C8         -3.4202  -15.8227  -47.2648 C.3       23 UNK        -0.0205 
      9 C9         -3.3587  -16.8906  -48.3467 C.ar      23 UNK        -0.0193 
     10 C10        -4.5302  -17.4908  -48.8170 C.ar      23 UNK        -0.1150 
     11 C11        -4.4723  -18.5029  -49.7796 C.ar      23 UNK        -0.0193 
     12 C12        -3.2320  -18.9094  -50.2764 C.ar      23 UNK        -0.1150 
     13 C13        -2.0542  -18.3059  -49.8285 C.ar      23 UNK        -0.0193 
     14 C14        -2.1243  -17.3028  -48.8571 C.ar      23 UNK        -0.1150 
     15 C15        -0.7094  -18.7211  -50.4099 C.3       23 UNK        -0.0205 
     16 S16        -0.2462  -20.4282  -49.9758 S.3       23 UNK        -0.2404 
     17 C17        -0.0665  -20.3031  -48.1658 C.3       23 UNK        -0.0398 
     18 CA         -0.7614  -21.4512  -47.3995 C.3       11 UNK         0.1400 
     19 N          -0.2866  -21.5135  -46.0148 N.am      11 UNK        -0.5000 
     20 C          -0.5526  -22.5019  -45.1509 C.2       10 UNK         0.5000 
     21 O          -1.1821  -23.5161  -45.4441 O.2       10 UNK        -0.5000 
     22 CA         -0.0817  -22.2942  -43.7011 C.3       10 UNK         0.1400 
     23 CB          1.3845  -22.7179  -43.5271 C.3       10 UNK        -0.1800 
     24 N          -0.2523  -20.9051  -43.2738 N.am      10 UNK        -0.5000 
     25 C          -1.4426  -20.3381  -43.0291 C.2       9 UNK         0.5000 
     26 O          -2.5104  -20.9484  -43.0770 O.2       9 UNK        -0.5000 
     27 CA         -1.4433  -18.8280  -42.7250 C.3       9 UNK         0.1400 
     28 CB         -1.1931  -18.5791  -41.2310 C.3       9 UNK        -0.1800 
     29 N          -0.4623  -18.0909  -43.5281 N.am      9 UNK        -0.5000 
     30 C          -0.5562  -17.9535  -44.8595 C.2       8 UNK         0.5000 
     31 O          -1.5002  -18.3868  -45.5152 O.2       8 UNK        -0.5000 
     32 CA          0.6047  -17.2775  -45.6075 C.3       8 UNK         0.1400 
     33 CB          0.3430  -15.7821  -45.8094 C.3       8 UNK        -0.1800 
     34 N           1.9078  -17.4705  -44.9788 N.am      8 UNK        -0.5000 
     35 C           2.5321  -18.6513  -44.8773 C.2       7 UNK         0.5000 
     36 O           2.0213  -19.7178  -45.2228 O.2       7 UNK        -0.5000 
     37 CA          3.9531  -18.6380  -44.2925 C.3       7 UNK         0.1400 
     38 CB          4.9731  -18.2864  -45.3861 C.3       7 UNK        -0.1800 
     39 N           4.0629  -17.6640  -43.2071 N.am      7 UNK        -0.5000 
     40 C           4.1668  -17.9742  -41.9086 C.2       6 UNK         0.5000 
     41 O           4.2700  -19.1257  -41.4837 O.2       6 UNK        -0.5000 
     42 CA          4.1335  -16.8029  -40.9037 C.3       6 UNK         0.1400 
     43 CB          5.5601  -16.3328  -40.5815 C.3       6 UNK        -0.1800 
     44 N           3.3412  -15.6510  -41.3449 N.am      6 UNK        -0.5000 
     45 C           2.0339  -15.6821  -41.6377 C.2       5 UNK         0.5000 
     46 O           1.3419  -16.6973  -41.5735 O.2       5 UNK        -0.5000 
     47 CA          1.3930  -14.3740  -42.1340 C.3       5 UNK         0.1400 
     48 CB          0.9230  -13.5264  -40.9424 C.3       5 UNK        -0.1800 
     49 N           2.2138  -13.5358  -43.0175 N.am      5 UNK        -0.5000 
     50 C           2.9739  -13.9119  -44.0572 C.2       4 UNK         0.5000 
     51 O           3.2217  -15.0869  -44.3331 O.2       4 UNK        -0.5000 
     52 CA          3.5395  -12.7950  -44.9590 C.3       4 UNK         0.1400 
     53 CB          3.4297  -13.1677  -46.4478 C.3       4 UNK        -0.1800 
     54 N           2.8742  -11.5057  -44.7607 N.am      4 UNK        -0.5000 
     55 C           3.2381  -10.5694  -43.8760 C.2       3 UNK         0.5000 
     56 O           4.1668  -10.7045  -43.0796 O.2       3 UNK        -0.5000 
     57 CA          2.4033   -9.2798  -43.8651 C.3       3 UNK         0.1400 
     58 CB          2.8209   -8.3550  -45.0195 C.3       3 UNK        -0.1800 
     59 N           0.9732   -9.5691  -43.9740 N.am      3 UNK        -0.5000 
     60 C           0.1540   -9.7556  -42.9301 C.2       2 UNK         0.5000 
     61 O           0.5252   -9.7173  -41.7568 O.2       2 UNK        -0.5000 
     62 CA         -1.3331  -10.0185  -43.2409 C.3       2 UNK         0.1400 
     63 CB         -2.1222   -8.7004  -43.2316 C.3       2 UNK        -0.1800 
     64 N          -1.5397  -10.6866  -44.5265 N.am      2 UNK        -0.5000 
     65 C          -1.2966  -11.9859  -44.7461 C.2       1 UNK         0.5000 
     66 O          -0.9363  -12.7650  -43.8657 O.2       1 UNK        -0.5000 
     67 C          -2.3049  -21.3754  -47.4778 C.2       11 UNK         0.5000 
     68 O          -2.9069  -22.0927  -48.2744 O.2       11 UNK        -0.5000 
     69 N          -2.9233  -20.5630  -46.6088 N.am      12 UNK        -0.5000 
     70 CA         -4.3758  -20.4402  -46.4738 C.3       12 UNK         0.1400 
     71 CB         -4.7030  -19.2540  -45.5541 C.3       12 UNK        -0.1800 
     72 C          -5.0526  -21.7230  -45.9539 C.2       12 UNK         0.5000 
     73 O          -6.1856  -22.0080  -46.3430 O.2       12 UNK        -0.5000 
     74 N          -4.3545  -22.4689  -45.0865 N.am      13 UNK        -0.5000 
     75 CA         -4.8023  -23.7557  -44.5518 C.3       13 UNK         0.1400 
     76 CB         -4.0174  -24.0656  -43.2677 C.3       13 UNK        -0.1800 
     77 C          -4.6677  -24.9128  -45.5628 C.2       13 UNK         0.5000 
     78 O          -5.3865  -25.9060  -45.4392 O.2       13 UNK        -0.5000 
     79 N          -3.7503  -24.7778  -46.5289 N.am      14 UNK        -0.5000 
     80 CA         -3.5098  -25.7361  -47.6060 C.3       14 UNK         0.1400 
     81 CB         -2.1076  -25.4851  -48.1861 C.3       14 UNK        -0.1800 
     82 C          -4.5935  -25.6766  -48.7030 C.2       14 UNK         0.5000 
     83 O          -5.4572  -24.7961  -48.6935 O.2       14 UNK        -0.5000 
     84 N          -4.5239  -26.6275  -49.6389 N.am      15 UNK        -0.5000 
     85 CA         -5.4306  -26.7676  -50.7732 C.3       15 UNK         0.1400 
     86 CB         -6.6148  -27.6642  -50.3681 C.3       15 UNK        -0.1800 
     87 C          -4.6639  -27.3568  -51.9667 C.2       15 UNK         0.5000 
     88 O          -3.5298  -27.8169  -51.8038 O.2       15 UNK        -0.5000 
     89 N          -5.3088  -27.3439  -53.1413 N.am      16 UNK        -0.5000 
     90 CA         -4.8026  -27.8385  -54.4260 C.3       16 UNK         0.1400 
     91 CB         -4.6724  -29.3790  -54.4013 C.3       16 UNK        -0.1800 
     92 C          -3.5184  -27.0978  -54.8568 C.2       16 UNK         0.5000 
     93 O          -3.4709  -25.8716  -54.7503 O.2       16 UNK        -0.5000 
     94 N          -2.4994  -27.8343  -55.3207 N.am      17 UNK        -0.5000 
     95 CA         -1.2170  -27.3048  -55.7963 C.3       17 UNK         0.1400 
     96 CB         -0.3824  -28.4601  -56.3692 C.3       17 UNK        -0.1800 
     97 C          -0.4101  -26.5361  -54.7298 C.2       17 UNK         0.5000 
     98 O           0.3851  -25.6660  -55.0849 O.2       17 UNK        -0.5000 
     99 N          -0.6442  -26.8436  -53.4467 N.am      18 UNK        -0.5000 
    100 CA        -0.0319  -26.1631  -52.3046 C.3       18 UNK         0.1400 
    101 CB        -0.1036  -27.0868  -51.0796 C.3       18 UNK        -0.1800 
    102 C         -0.6498  -24.7795  -52.0058 C.2       18 UNK         0.5000 
    103 O         -0.0750  -24.0321  -51.2150 O.2       18 UNK        -0.5000 
    104 N         -1.7814  -24.4522  -52.6438 N.am      19 UNK        -0.5000 
    105 CA        -2.4599  -23.1599  -52.5637 C.3       19 UNK         0.1400 
    106 CB        -3.6350  -23.2575  -51.5752 C.3       19 UNK        -0.1800 
    107 C         -2.8937  -22.7226  -53.9750 C.2       19 UNK         0.5000 
    108 O         -4.0161  -22.2487  -54.1607 O.2       19 UNK        -0.5000 
    109 N         -1.9997  -22.9196  -54.9582 N.am      20 UNK        -0.5000 
    110 CA        -2.2302  -22.6207  -56.3761 C.3       20 UNK         0.1400 
    111 CB        -1.0719  -23.1894  -57.2092 C.3       20 UNK        -0.1800 
    112 C         -2.4166  -21.1186  -56.6660 C.2       20 UNK         0.5000 
    113 O         -3.1618  -20.7627  -57.5801 O.2       20 UNK        -0.5000 
    114 N         -1.7586  -20.2750  -55.8641 N.am      21 UNK        -0.5000 
    115 CA        -2.0111  -18.8427  -55.7612 C.3       21 UNK         0.1400 
    116 CB        -0.6710  -18.0914  -55.7875 C.3       21 UNK        -0.1800 
    117 C         -2.7416  -18.6003  -54.4331 C.2       21 UNK         0.5000 
    118 O         -2.4279  -19.2644  -53.4438 O.2       21 UNK        -0.5000 
    119 N         -3.6898  -17.6619  -54.4300 N.am      22 UNK        -0.5000 
    120 CA        -4.5294  -17.3070  -53.2815 C.3       22 UNK         0.1400 
    121 C         -5.1498  -15.9059  -53.5229 C.2       22 UNK         0.5000 
    122 N         -5.2091  -15.0575  -52.5059 N.am      22 UNK        -0.7600 
    123 O         -5.5868  -15.5849  -54.6266 O.2       22 UNK        -0.5000 
    124 C124       -5.5962  -18.4044  -53.0044 C.3       23 UNK        -0.0398 
    125 S125       -6.6058  -18.1343  -51.5046 S.3       23 UNK        -0.2404 
    126 C126       -5.7503  -19.1630  -50.2705 C.3       23 UNK        -0.0205 
    127 H127       -1.0596   -9.8134  -49.1376 H         1 UNK         0.0600 
    128 H128        0.6814  -10.0763  -49.2787 H         1 UNK         0.0600 
    129 H129        0.0639   -8.7954  -48.2303 H         1 UNK         0.0600 
    130 H130       -2.0362  -11.3622  -47.8646 H         1 UNK         0.3000 
    131 H131       -0.6744  -13.2460  -46.3342 H         1 UNK         0.0600 
    132 H132       -2.9980  -13.9080  -45.5029 H         1 UNK         0.0800 
    133 H133       -3.6488  -12.5080  -46.3105 H         1 UNK         0.0800 
    134 H134       -4.4241  -15.7635  -46.8414 H         1 UNK         0.0800 
    135 H135       -2.7649  -16.1157  -46.4453 H         1 UNK         0.0800 
    136 H136       -5.4893  -17.1799  -48.4275 H         1 UNK         0.1150 
    137 H137       -3.1799  -19.6938  -51.0181 H         1 UNK         0.1150 
    138 H138       -1.2186  -16.8361  -48.4971 H         1 UNK         0.1150 
    139 H139       -0.7507  -18.6342  -51.4958 H         1 UNK         0.0800 
    140 H140        0.0811  -18.0441  -50.0825 H         1 UNK         0.0800 
    141 H141       -0.4361  -19.3408  -47.8166 H         1 UNK         0.0800 
    142 H142        1.0034  -20.3080  -47.9520 H         1 UNK         0.0800 
    143 H143       -0.4636  -22.3912  -47.8700 H         1 UNK         0.0600 
    144 H144        0.2858  -20.7408  -45.6932 H         1 UNK         0.3000 
    145 H145       -0.6936  -22.9290  -43.0566 H         1 UNK         0.0600 
    146 H146        1.7077  -22.6037  -42.4923 H         1 UNK         0.0600 
    147 H147        1.5188  -23.7665  -43.7956 H         1 UNK         0.0600 
    148 H148        2.0564  -22.1325  -44.1545 H         1 UNK         0.0600 
    149 H149        0.5751  -20.3263  -43.2601 H         1 UNK         0.3000 
    150 H150       -2.4358  -18.4428  -42.9683 H         1 UNK         0.0600 
    151 H151       -1.9264  -19.1056  -40.6188 H         1 UNK         0.0600 
    152 H152       -1.2710  -17.5187  -40.9904 H         1 UNK         0.0600 
    153 H153       -0.2033  -18.9210  -40.9258 H         1 UNK         0.0600 
    154 H154        0.3294  -17.6937  -43.0324 H         1 UNK         0.3000 
    155 H155        0.6618  -17.7298  -46.5983 H         1 UNK         0.0600 
    156 H156        0.2095  -15.2602  -44.8637 H         1 UNK         0.0600 
    157 H157        1.1637  -15.3086  -46.3467 H         1 UNK         0.0600 
    158 H158       -0.5553  -15.6255  -46.4025 H         1 UNK         0.0600 
    159 H159        2.3993  -16.6259  -44.6956 H         1 UNK         0.3000 
    160 H160        4.1725  -19.6462  -43.9350 H         1 UNK         0.0600 
    161 H161        4.9125  -18.9892  -46.2182 H         1 UNK         0.0600 
    162 H162        4.8070  -17.2852  -45.7867 H         1 UNK         0.0600 
    163 H163        5.9915  -18.3266  -44.9996 H         1 UNK         0.0600 
    164 H164        3.9481  -16.6882  -43.4629 H         1 UNK         0.3000 
    165 H165        3.6810  -17.1780  -39.9835 H         1 UNK         0.0600 
    166 H166        5.5587  -15.5714  -39.8013 H         1 UNK         0.0600 
    167 H167        6.1735  -17.1610  -40.2241 H         1 UNK         0.0600 
    168 H168        6.0528  -15.9144  -41.4601 H         1 UNK         0.0600 
    169 H169        3.8331  -14.7765  -41.4545 H         1 UNK         0.3000 
    170 H170        0.5073  -14.6604  -42.7003 H         1 UNK         0.0600 
    171 H171        0.2944  -14.1100  -40.2683 H         1 UNK         0.0600 
    172 H172        1.7648  -13.1458  -40.3627 H         1 UNK         0.0600 
    173 H173        0.3318  -12.6729  -41.2752 H         1 UNK         0.0600 
    174 H174        2.0904  -12.5416  -42.8980 H         1 UNK         0.3000 
    175 H175        4.5993  -12.6980  -44.7158 H         1 UNK         0.0600 
    176 H176        2.3902  -13.2821  -46.7565 H         1 UNK         0.0600 
    177 H177        3.8790  -12.3998  -47.0777 H         1 UNK         0.0600 
    178 H178        3.9453  -14.1040  -46.6650 H         1 UNK         0.0600 
    179 H179        2.1002  -11.3043  -45.3906 H         1 UNK         0.3000 
    180 H180        2.6038   -8.7555  -42.9282 H         1 UNK         0.0600 
    181 H181        2.6421   -8.8135  -45.9929 H         1 UNK         0.0600 
    182 H182        3.8828   -8.1128  -44.9606 H         1 UNK         0.0600 
    183 H183        2.2710   -7.4143  -44.9875 H         1 UNK         0.0600 
    184 H184        0.6090   -9.6922  -44.9101 H         1 UNK         0.3000 
    185 H185       -1.7293  -10.6567  -42.4480 H         1 UNK         0.0600 
    186 H186       -3.1873   -8.8773  -43.3821 H         1 UNK         0.0600 
    187 H187       -2.0114   -8.1858  -42.2761 H         1 UNK         0.0600 
    188 H188       -1.7802   -8.0200  -44.0124 H         1 UNK         0.0600 
    189 H189       -1.8375  -10.1121  -45.3014 H         1 UNK         0.3000 
    190 H190       -2.3634  -19.9349  -46.0374 H         1 UNK         0.3000 
    191 H191       -4.7847  -20.2301  -47.4634 H         1 UNK         0.0600 
    192 H192       -4.3193  -19.4100  -44.5456 H         1 UNK         0.0600 
    193 H193       -5.7805  -19.1042  -45.4779 H         1 UNK         0.0600 
    194 H194       -4.2723  -18.3286  -45.9333 H         1 UNK         0.0600 
    195 H195       -3.4533  -22.1323  -44.7716 H         1 UNK         0.3000 
    196 H196       -5.8585  -23.6712  -44.2878 H         1 UNK         0.0600 
    197 H197       -4.3577  -24.9988  -42.8175 H         1 UNK         0.0600 
    198 H198       -4.1494  -23.2787  -42.5248 H         1 UNK         0.0600 
    199 H199       -2.9495  -24.1659  -43.4626 H         1 UNK         0.0600 
    200 H200       -3.2063  -23.9256  -46.5586 H         1 UNK         0.3000 
    201 H201       -3.5254  -26.7401  -47.1772 H         1 UNK         0.0600 
    202 H202       -1.3478  -25.4928  -47.4047 H         1 UNK         0.0600 
    203 H203       -2.0442  -24.5286  -48.7042 H         1 UNK         0.0600 
    204 H204       -1.8374  -26.2604  -48.9002 H         1 UNK         0.0600 
    205 H205       -3.7506  -27.2803  -49.6471 H         1 UNK         0.3000 
    206 H206       -5.8041  -25.7859  -51.0714 H         1 UNK         0.0600 
    207 H207       -7.1591  -27.2403  -49.5240 H         1 UNK         0.0600 
    208 H208       -7.3269  -27.7760  -51.1863 H         1 UNK         0.0600 
    209 H209       -6.2813  -28.6628  -50.0829 H         1 UNK         0.0600 
    210 H210       -6.2236  -26.9170  -53.1785 H         1 UNK         0.3000 
    211 H211       -5.5580  -27.5845  -55.1707 H         1 UNK         0.0600 
    212 H212       -5.6073  -29.8420  -54.0853 H         1 UNK         0.0600 
    213 H213       -3.8923  -29.7159  -53.7176 H         1 UNK         0.0600 
    214 H214       -4.4439  -29.7741  -55.3918 H         1 UNK         0.0600 
    215 H215       -2.6130  -28.8368  -55.3604 H         1 UNK         0.3000 
    216 H216       -1.4319  -26.6060  -56.6066 H         1 UNK         0.0600 
    217 H217        0.5694  -28.0985  -56.7608 H         1 UNK         0.0600 
    218 H218       -0.9023  -28.9543  -57.1902 H         1 UNK         0.0600 
    219 H219       -0.1609  -29.2111  -55.6098 H         1 UNK         0.0600 
    220 H220       -1.3402  -27.5455  -53.2337 H         1 UNK         0.3000 
    221 H221        1.0235  -25.9943  -52.5289 H         1 UNK         0.0600 
    222 H222       -1.1317  -27.3482  -50.8337 H         1 UNK         0.0600 
    223 H223        0.4422  -28.0139  -51.2552 H         1 UNK         0.0600 
    224 H224        0.3380  -26.6131  -50.2019 H         1 UNK         0.0600 
    225 H225       -2.1890  -25.1116  -53.2996 H         1 UNK         0.3000 
    226 H226       -1.7717  -22.3929  -52.2018 H         1 UNK         0.0600 
    227 H227       -3.2949  -23.5763  -50.5908 H         1 UNK         0.0600 
    228 H228       -4.1219  -22.2899  -51.4483 H         1 UNK         0.0600 
    229 H229       -4.3878  -23.9673  -51.9177 H         1 UNK         0.0600 
    230 H230       -1.1115  -23.3404  -54.7244 H         1 UNK         0.3000 
    231 H231       -3.1484  -23.1297  -56.6768 H         1 UNK         0.0600 
    232 H232       -1.2135  -22.9807  -58.2705 H         1 UNK         0.0600 
    233 H233       -1.0020  -24.2708  -57.1006 H         1 UNK         0.0600 
    234 H234       -0.1140  -22.7595  -56.9140 H         1 UNK         0.0600 
    235 H235       -1.2362  -20.6722  -55.0962 H         1 UNK         0.3000 
    236 H236       -2.6322  -18.4922  -56.5882 H         1 UNK         0.0600 
    237 H237       -0.1333  -18.2800  -56.7168 H         1 UNK         0.0600 
    238 H238       -0.8266  -17.0145  -55.7134 H         1 UNK         0.0600 
    239 H239       -0.0248  -18.3883  -54.9603 H         1 UNK         0.0600 
    240 H240       -3.8838  -17.1298  -55.2684 H         1 UNK         0.3000 
    241 H241       -3.8742  -17.2290  -52.4125 H         1 UNK         0.0600 
    242 H242       -5.6152  -14.1461  -52.6497 H         1 UNK         0.3800 
    243 H243       -4.8784  -15.3143  -51.5885 H         1 UNK         0.3800 
    244 H244       -6.2747  -18.4842  -53.8551 H         1 UNK         0.0800 
    245 H245       -5.1177  -19.3811  -52.9222 H         1 UNK         0.0800 
    246 H246       -5.5447  -20.1520  -50.6833 H         1 UNK         0.0800 
    247 H247       -6.4191  -19.3233  -49.4237 H         1 UNK         0.0800 
@<TRIPOS>BOND
     1    1    2 1    
     2    1  127 1    
     3    1  128 1    
     4    1  129 1    
     5    2    3 2    
     6    2    4 am   BACKBONE|DICT|INTERRES
     7    4    5 1    
     8    4  130 1    
     9    5    6 1    
    10    5   65 1    
    11    5  131 1    
    12    6    7 1    
    13    6  132 1    
    14    6  133 1    
    15    7    8 1    
    16    8    9 1    
    17    8  134 1    
    18    8  135 1    
    19    9   10 ar   
    20    9   14 ar   
    21   10   11 ar   
    22   10  136 1    
    23   11   12 ar   
    24   11  126 1    
    25   12   13 ar   
    26   12  137 1    
    27   13   14 ar   
    28   13   15 1    
    29   14  138 1    
    30   15   16 1    
    31   15  139 1    
    32   15  140 1    
    33   16   17 1    
    34   17   18 1    
    35   17  141 1    
    36   17  142 1    
    37   18   19 1    
    38   18   67 1    
    39   18  143 1    
    40   19   20 am   BACKBONE|DICT|INTERRES
    41   19  144 1    
    42   20   21 2    
    43   20   22 1    
    44   22   23 1    
    45   22   24 1    
    46   22  145 1    
    47   23  146 1    
    48   23  147 1    
    49   23  148 1    
    50   24   25 am   BACKBONE|DICT|INTERRES
    51   24  149 1    
    52   25   26 2    
    53   25   27 1    
    54   27   28 1    
    55   27   29 1    
    56   27  150 1    
    57   28  151 1    
    58   28  152 1    
    59   28  153 1    
    60   29   30 am   BACKBONE|DICT|INTERRES
    61   29  154 1    
    62   30   31 2    
    63   30   32 1    
    64   32   33 1    
    65   32   34 1    
    66   32  155 1    
    67   33  156 1    
    68   33  157 1    
    69   33  158 1    
    70   34   35 am   BACKBONE|DICT|INTERRES
    71   34  159 1    
    72   35   36 2    
    73   35   37 1    
    74   37   38 1    
    75   37   39 1    
    76   37  160 1    
    77   38  161 1    
    78   38  162 1    
    79   38  163 1    
    80   39   40 am   BACKBONE|DICT|INTERRES
    81   39  164 1    
    82   40   41 2    
    83   40   42 1    
    84   42   43 1    
    85   42   44 1    
    86   42  165 1    
    87   43  166 1    
    88   43  167 1    
    89   43  168 1    
    90   44   45 am   BACKBONE|DICT|INTERRES
    91   44  169 1    
    92   45   46 2    
    93   45   47 1    
    94   47   48 1    
    95   47   49 1    
    96   47  170 1    
    97   48  171 1    
    98   48  172 1    
    99   48  173 1    
   100   49   50 am   BACKBONE|DICT|INTERRES
   101   49  174 1    
   102   50   51 2    
   103   50   52 1    
   104   52   53 1    
   105   52   54 1    
   106   52  175 1    
   107   53  176 1    
   108   53  177 1    
   109   53  178 1    
   110   54   55 am   BACKBONE|DICT|INTERRES
   111   54  179 1    
   112   55   56 2    
   113   55   57 1    
   114   57   58 1    
   115   57   59 1    
   116   57  180 1    
   117   58  181 1    
   118   58  182 1    
   119   58  183 1    
   120   59   60 am   BACKBONE|DICT|INTERRES
   121   59  184 1    
   122   60   61 2    
   123   60   62 1    
   124   62   63 1    
   125   62   64 1    
   126   62  185 1    
   127   63  186 1    
   128   63  187 1    
   129   63  188 1    
   130   64   65 am   BACKBONE|DICT|INTERRES
   131   64  189 1    
   132   65   66 2    
   133   67   68 2    
   134   67   69 am   BACKBONE|DICT|INTERRES
   135   69   70 1    
   136   69  190 1    
   137   70   71 1    
   138   70   72 1    
   139   70  191 1    
   140   71  192 1    
   141   71  193 1    
   142   71  194 1    
   143   72   73 2    
   144   72   74 am   BACKBONE|DICT|INTERRES
   145   74   75 1    
   146   74  195 1    
   147   75   76 1    
   148   75   77 1    
   149   75  196 1    
   150   76  197 1    
   151   76  198 1    
   152   76  199 1    
   153   77   78 2    
   154   77   79 am   BACKBONE|DICT|INTERRES
   155   79   80 1    
   156   79  200 1    
   157   80   81 1    
   158   80   82 1    
   159   80  201 1    
   160   81  202 1    
   161   81  203 1    
   162   81  204 1    
   163   82   83 2    
   164   82   84 am   BACKBONE|DICT|INTERRES
   165   84   85 1    
   166   84  205 1    
   167   85   86 1    
   168   85   87 1    
   169   85  206 1    
   170   86  207 1    
   171   86  208 1    
   172   86  209 1    
   173   87   88 2    
   174   87   89 am   BACKBONE|DICT|INTERRES
   175   89   90 1    
   176   89  210 1    
   177   90   91 1    
   178   90   92 1    
   179   90  211 1    
   180   91  212 1    
   181   91  213 1    
   182   91  214 1    
   183   92   93 2    
   184   92   94 am   BACKBONE|DICT|INTERRES
   185   94   95 1    
   186   94  215 1    
   187   95   96 1    
   188   95   97 1    
   189   95  216 1    
   190   96  217 1    
   191   96  218 1    
   192   96  219 1    
   193   97   98 2    
   194   97   99 am   BACKBONE|DICT|INTERRES
   195   99  100 1    
   196   99  220 1    
   197  100  101 1    
   198  100  102 1    
   199  100  221 1    
   200  101  222 1    
   201  101  223 1    
   202  101  224 1    
   203  102  103 2    
   204  102  104 am   BACKBONE|DICT|INTERRES
   205  104  105 1    
   206  104  225 1    
   207  105  106 1    
   208  105  107 1    
   209  105  226 1    
   210  106  227 1    
   211  106  228 1    
   212  106  229 1    
   213  107  108 2    
   214  107  109 am   BACKBONE|DICT|INTERRES
   215  109  110 1    
   216  109  230 1    
   217  110  111 1    
   218  110  112 1    
   219  110  231 1    
   220  111  232 1    
   221  111  233 1    
   222  111  234 1    
   223  112  113 2    
   224  112  114 am   BACKBONE|DICT|INTERRES
   225  114  115 1    
   226  114  235 1    
   227  115  116 1    
   228  115  117 1    
   229  115  236 1    
   230  116  237 1    
   231  116  238 1    
   232  116  239 1    
   233  117  118 2    
   234  117  119 am   BACKBONE|DICT|INTERRES
   235  119  120 1    
   236  119  240 1    
   237  120  121 1    
   238  120  124 1    
   239  120  241 1    
   240  121  122 am   BACKBONE|DICT|INTERRES
   241  121  123 2    
   242  122  242 1    
   243  122  243 1    
   244  124  125 1    
   245  124  244 1    
   246  124  245 1    
   247  125  126 1    
   248  126  246 1    
   249  126  247 1    
@<TRIPOS>SUBSTRUCTURE
     1 UNK         1 GROUP             0       ****    0 ROOT    
