@<TRIPOS>MOLECULE
3R540
247   249    1
SMALL
USER_CHARGES


@<TRIPOS>ATOM
      1 CA         -1.1059  -13.2084  -50.8349 C.3       0 UNK        -0.1800 
      2 C          -1.7440  -13.8899  -49.6327 C.2       0 UNK         0.5000 
      3 O          -1.4735  -15.0633  -49.3805 O.2       0 UNK        -0.5000 
      4 N          -2.5877  -13.1563  -48.8965 N.am      1 UNK        -0.5000 
      5 CA         -3.2690  -13.6262  -47.6860 C.3       1 UNK         0.1400 
      6 C6         -4.4684  -12.7214  -47.2976 C.3       23 UNK        -0.0398 
      7 S7         -5.6834  -12.4888  -48.6412 S.3       23 UNK        -0.2404 
      8 C8         -6.8543  -13.8539  -48.3422 C.3       23 UNK        -0.0205 
      9 C9         -6.2463  -15.2052  -48.6874 C.ar      23 UNK        -0.0193 
     10 C10        -5.9603  -15.5203  -50.0187 C.ar      23 UNK        -0.1150 
     11 C11        -5.3579  -16.7368  -50.3503 C.ar      23 UNK        -0.0193 
     12 C12        -5.0776  -17.6595  -49.3385 C.ar      23 UNK        -0.1150 
     13 C13        -5.3564  -17.3569  -48.0023 C.ar      23 UNK        -0.0193 
     14 C14        -5.9465  -16.1299  -47.6822 C.ar      23 UNK        -0.1150 
     15 C15        -5.0077  -18.3525  -46.9074 C.3       23 UNK        -0.0205 
     16 S16        -3.2102  -18.4245  -46.6279 S.3       23 UNK        -0.2404 
     17 C17        -3.1175  -19.6436  -45.2738 C.3       23 UNK        -0.0398 
     18 CA         -2.6013  -21.0205  -45.7550 C.3       11 UNK         0.1400 
     19 N          -1.1810  -20.9836  -46.1334 N.am      11 UNK        -0.5000 
     20 C          -0.5015  -21.9810  -46.7179 C.2       10 UNK         0.5000 
     21 O          -1.0095  -23.0597  -47.0170 O.2       10 UNK        -0.5000 
     22 CA          1.0051  -21.7658  -46.9484 C.3       10 UNK         0.1400 
     23 CB          1.2708  -20.8627  -48.1616 C.3       10 UNK        -0.1800 
     24 N           1.6554  -21.2117  -45.7615 N.am      10 UNK        -0.5000 
     25 C           1.9305  -21.9208  -44.6577 C.2       9 UNK         0.5000 
     26 O           1.7363  -23.1325  -44.5632 O.2       9 UNK        -0.5000 
     27 CA          2.4904  -21.1522  -43.4441 C.3       9 UNK         0.1400 
     28 CB          4.0244  -21.0986  -43.4957 C.3       9 UNK        -0.1800 
     29 N           1.9602  -19.7933  -43.3261 N.am      9 UNK        -0.5000 
     30 C           0.6731  -19.4963  -43.0991 C.2       8 UNK         0.5000 
     31 O          -0.2003  -20.3409  -42.9059 O.2       8 UNK        -0.5000 
     32 CA          0.2818  -18.0096  -43.1649 C.3       8 UNK         0.1400 
     33 CB          0.5570  -17.3042  -41.8297 C.3       8 UNK        -0.1800 
     34 N           0.9508  -17.2931  -44.2516 N.am      8 UNK        -0.5000 
     35 C           0.8190  -17.5911  -45.5520 C.2       7 UNK         0.5000 
     36 O           0.0930  -18.4883  -45.9712 O.2       7 UNK        -0.5000 
     37 CA          1.6891  -16.8040  -46.5431 C.3       7 UNK         0.1400 
     38 CB          1.0740  -15.4353  -46.8536 C.3       7 UNK        -0.1800 
     39 N           3.0507  -16.6354  -46.0424 N.am      7 UNK        -0.5000 
     40 C           3.9496  -17.6264  -45.9665 C.2       6 UNK         0.5000 
     41 O           3.7428  -18.7705  -46.3710 O.2       6 UNK        -0.5000 
     42 CA          5.2902  -17.2861  -45.2901 C.3       6 UNK         0.1400 
     43 CB          6.2730  -16.6866  -46.3068 C.3       6 UNK        -0.1800 
     44 N           5.1327  -16.3615  -44.1650 N.am      6 UNK        -0.5000 
     45 C           4.5136  -16.6695  -43.0166 C.2       5 UNK         0.5000 
     46 O           4.0346  -17.7772  -42.7752 O.2       5 UNK        -0.5000 
     47 CA          4.3645  -15.5343  -41.9863 C.3       5 UNK         0.1400 
     48 CB          5.6263  -15.4236  -41.1177 C.3       5 UNK        -0.1800 
     49 N           4.0735  -14.2309  -42.5934 N.am      5 UNK        -0.5000 
     50 C           2.9672  -13.9536  -43.2949 C.2       4 UNK         0.5000 
     51 O           2.0936  -14.7861  -43.5483 O.2       4 UNK        -0.5000 
     52 CA          2.8403  -12.5292  -43.8551 C.3       4 UNK         0.1400 
     53 CB          3.4360  -12.4619  -45.2700 C.3       4 UNK        -0.1800 
     54 N           1.4314  -12.1495  -43.9182 N.am      4 UNK        -0.5000 
     55 C           0.7626  -11.5222  -42.9415 C.2       3 UNK         0.5000 
     56 O           1.2906  -11.0861  -41.9177 O.2       3 UNK        -0.5000 
     57 CA         -0.7582  -11.3717  -43.1365 C.3       3 UNK         0.1400 
     58 CB         -1.0813  -10.0899  -43.9193 C.3       3 UNK        -0.1800 
     59 N          -1.3283  -12.5185  -43.8422 N.am      3 UNK        -0.5000 
     60 C          -1.5519  -13.7204  -43.3014 C.2       2 UNK         0.5000 
     61 O          -1.4201  -13.9379  -42.0960 O.2       2 UNK        -0.5000 
     62 CA         -1.9823  -14.8735  -44.2459 C.3       2 UNK         0.1400 
     63 CB         -2.8245  -15.9272  -43.5025 C.3       2 UNK        -0.1800 
     64 N          -2.7111  -14.5040  -45.4687 N.am      2 UNK        -0.5000 
     65 C          -2.2900  -13.7575  -46.4992 C.2       1 UNK         0.5000 
     66 O          -1.2125  -13.1565  -46.5128 O.2       1 UNK        -0.5000 
     67 C          -2.9375  -22.1161  -44.7176 C.2       11 UNK         0.5000 
     68 O          -4.0909  -22.5405  -44.6534 O.2       11 UNK        -0.5000 
     69 N          -1.9425  -22.5639  -43.9396 N.am      12 UNK        -0.5000 
     70 CA         -2.0559  -23.6681  -42.9865 C.3       12 UNK         0.1400 
     71 CB         -0.8391  -23.6511  -42.0485 C.3       12 UNK        -0.1800 
     72 C          -2.2114  -25.0536  -43.6494 C.2       12 UNK         0.5000 
     73 O          -2.6764  -25.9798  -42.9826 O.2       12 UNK        -0.5000 
     74 N          -1.8312  -25.1895  -44.9295 N.am      13 UNK        -0.5000 
     75 CA         -2.0551  -26.3986  -45.7244 C.3       13 UNK         0.1400 
     76 CB         -1.1764  -26.3489  -46.9843 C.3       13 UNK        -0.1800 
     77 C          -3.5374  -26.5326  -46.1169 C.2       13 UNK         0.5000 
     78 O          -4.2269  -25.5212  -46.2579 O.2       13 UNK        -0.5000 
     79 N          -3.9943  -27.7717  -46.3413 N.am      14 UNK        -0.5000 
     80 CA         -5.3819  -28.0970  -46.6976 C.3       14 UNK         0.1400 
     81 CB         -5.5498  -29.6239  -46.7241 C.3       14 UNK        -0.1800 
     82 C          -5.8541  -27.4790  -48.0303 C.2       14 UNK         0.5000 
     83 O          -7.0337  -27.1522  -48.1649 O.2       14 UNK        -0.5000 
     84 N          -4.9207  -27.3121  -48.9760 N.am      15 UNK        -0.5000 
     85 CA         -5.1427  -26.6581  -50.2678 C.3       15 UNK         0.1400 
     86 CB         -4.2504  -27.3441  -51.3136 C.3       15 UNK        -0.1800 
     87 C          -4.8793  -25.1365  -50.2283 C.2       15 UNK         0.5000 
     88 O          -5.1451  -24.4600  -51.2228 O.2       15 UNK        -0.5000 
     89 N          -4.3664  -24.6294  -49.0954 N.am      16 UNK        -0.5000 
     90 CA         -3.9837  -23.2420  -48.8136 C.3       16 UNK         0.1400 
     91 CB         -5.2408  -22.3461  -48.7659 C.3       16 UNK        -0.1800 
     92 C          -2.8952  -22.6890  -49.7629 C.2       16 UNK         0.5000 
     93 O          -2.2700  -23.4460  -50.5092 O.2       16 UNK        -0.5000 
     94 N          -2.6926  -21.3614  -49.7430 N.am      17 UNK        -0.5000 
     95 CA         -1.7914  -20.6526  -50.6606 C.3       17 UNK         0.1400 
     96 CB         -1.5839  -19.2095  -50.1772 C.3       17 UNK        -0.1800 
     97 C          -2.2801  -20.6759  -52.1227 C.2       17 UNK         0.5000 
     98 O          -1.4793  -20.4705  -53.0351 O.2       17 UNK        -0.5000 
     99 N          -3.5692  -20.9841  -52.3311 N.am      18 UNK        -0.5000 
    100 CA        -4.1968  -21.2288  -53.6309 C.3       18 UNK         0.1400 
    101 CB        -5.6990  -21.4662  -53.4231 C.3       18 UNK        -0.1800 
    102 C         -3.5604  -22.3913  -54.4231 C.2       18 UNK         0.5000 
    103 O         -3.6476  -22.3937  -55.6509 O.2       18 UNK        -0.5000 
    104 N         -2.8690  -23.3125  -53.7328 N.am      19 UNK        -0.5000 
    105 CA        -2.0268  -24.3542  -54.3303 C.3       19 UNK         0.1400 
    106 CB        -1.5201  -25.2827  -53.2186 C.3       19 UNK        -0.1800 
    107 C         -0.8317  -23.7928  -55.1306 C.2       19 UNK         0.5000 
    108 O         -0.3753  -24.4406  -56.0726 O.2       19 UNK        -0.5000 
    109 N         -0.3711  -22.5909  -54.7593 N.am      20 UNK        -0.5000 
    110 CA         0.6570  -21.8098  -55.4464 C.3       20 UNK         0.1400 
    111 CB         1.7038  -21.3647  -54.4094 C.3       20 UNK        -0.1800 
    112 C          0.0265  -20.6061  -56.1790 C.2       20 UNK         0.5000 
    113 O          0.6937  -19.5879  -56.3733 O.2       20 UNK        -0.5000 
    114 N         -1.2653  -20.7200  -56.5313 N.am      21 UNK        -0.5000 
    115 CA        -2.1111  -19.7179  -57.1934 C.3       21 UNK         0.1400 
    116 CB        -1.6261  -19.4732  -58.6372 C.3       21 UNK        -0.1800 
    117 C         -2.2722  -18.4053  -56.3944 C.2       21 UNK         0.5000 
    118 O         -2.6014  -17.3717  -56.9786 O.2       21 UNK        -0.5000 
    119 N         -2.0323  -18.4648  -55.0768 N.am      22 UNK        -0.5000 
    120 CA        -1.9492  -17.3183  -54.1618 C.3       22 UNK         0.1400 
    121 C         -0.7180  -16.3908  -54.4201 C.2       22 UNK         0.5000 
    122 N          0.3253  -16.8524  -55.1031 N.am      22 UNK        -0.7600 
    123 O         -0.6886  -15.2430  -53.9868 O.2       22 UNK        -0.5000 
    124 C124       -3.3042  -16.5640  -54.0308 C.3       23 UNK        -0.0398 
    125 S125       -3.6056  -15.9722  -52.3324 S.3       23 UNK        -0.2404 
    126 C126       -4.9859  -17.0320  -51.7960 C.3       23 UNK        -0.0205 
    127 H127       -1.3993  -12.1613  -50.9121 H         1 UNK         0.0600 
    128 H128       -1.4057  -13.7139  -51.7528 H         1 UNK         0.0600 
    129 H129       -0.0196  -13.2534  -50.7594 H         1 UNK         0.0600 
    130 H130       -2.7624  -12.1951  -49.1494 H         1 UNK         0.3000 
    131 H131       -3.6429  -14.6283  -47.8979 H         1 UNK         0.0600 
    132 H132       -4.9906  -13.1199  -46.4263 H         1 UNK         0.0800 
    133 H133       -4.1128  -11.7317  -47.0048 H         1 UNK         0.0800 
    134 H134       -7.7405  -13.6975  -48.9587 H         1 UNK         0.0800 
    135 H135       -7.1953  -13.8271  -47.3061 H         1 UNK         0.0800 
    136 H136       -6.1732  -14.8000  -50.7963 H         1 UNK         0.1150 
    137 H137       -4.6221  -18.6071  -49.5832 H         1 UNK         0.1150 
    138 H138       -6.1602  -15.8895  -46.6502 H         1 UNK         0.1150 
    139 H139       -5.5059  -18.0812  -45.9753 H         1 UNK         0.0800 
    140 H140       -5.3792  -19.3404  -47.1798 H         1 UNK         0.0800 
    141 H141       -4.1065  -19.7294  -44.8195 H         1 UNK         0.0800 
    142 H142       -2.4657  -19.2495  -44.4937 H         1 UNK         0.0800 
    143 H143       -3.1590  -21.2818  -46.6540 H         1 UNK         0.0600 
    144 H144       -0.6983  -20.1014  -45.9657 H         1 UNK         0.3000 
    145 H145        1.4517  -22.7398  -47.1606 H         1 UNK         0.0600 
    146 H146        0.8018  -19.8850  -48.0583 H         1 UNK         0.0600 
    147 H147        2.3396  -20.7044  -48.3075 H         1 UNK         0.0600 
    148 H148        0.8847  -21.3199  -49.0719 H         1 UNK         0.0600 
    149 H149        1.8482  -20.2188  -45.7666 H         1 UNK         0.3000 
    150 H150        2.1996  -21.7009  -42.5458 H         1 UNK         0.0600 
    151 H151        4.4490  -22.1014  -43.5568 H         1 UNK         0.0600 
    152 H152        4.4325  -20.6265  -42.6018 H         1 UNK         0.0600 
    153 H153        4.3787  -20.5380  -44.3610 H         1 UNK         0.0600 
    154 H154        2.6286  -19.0334  -43.4089 H         1 UNK         0.3000 
    155 H155       -0.7901  -17.9659  -43.3575 H         1 UNK         0.0600 
    156 H156        1.6152  -17.3294  -41.5714 H         1 UNK         0.0600 
    157 H157        0.2458  -16.2600  -41.8626 H         1 UNK         0.0600 
    158 H158        0.0091  -17.7823  -41.0170 H         1 UNK         0.0600 
    159 H159        1.5342  -16.5033  -43.9858 H         1 UNK         0.3000 
    160 H160        1.7304  -17.3722  -47.4751 H         1 UNK         0.0600 
    161 H161        1.6503  -14.9015  -47.6090 H         1 UNK         0.0600 
    162 H162        0.0627  -15.5542  -47.2422 H         1 UNK         0.0600 
    163 H163        1.0101  -14.8032  -45.9686 H         1 UNK         0.0600 
    164 H164        3.2825  -15.7388  -45.6432 H         1 UNK         0.3000 
    165 H165        5.7163  -18.2170  -44.9097 H         1 UNK         0.0600 
    166 H166        7.2494  -16.5110  -45.8549 H         1 UNK         0.0600 
    167 H167        6.4231  -17.3631  -47.1493 H         1 UNK         0.0600 
    168 H168        5.9122  -15.7384  -46.7073 H         1 UNK         0.0600 
    169 H169        5.5004  -15.4289  -44.2813 H         1 UNK         0.3000 
    170 H170        3.5269  -15.7905  -41.3344 H         1 UNK         0.0600 
    171 H171        5.8549  -16.3767  -40.6387 H         1 UNK         0.0600 
    172 H172        6.4979  -15.1343  -41.7061 H         1 UNK         0.0600 
    173 H173        5.4960  -14.6867  -40.3250 H         1 UNK         0.0600 
    174 H174        4.7537  -13.5005  -42.4383 H         1 UNK         0.3000 
    175 H175        3.3877  -11.8383  -43.2106 H         1 UNK         0.0600 
    176 H176        2.9275  -13.1380  -45.9580 H         1 UNK         0.0600 
    177 H177        3.3615  -11.4540  -45.6786 H         1 UNK         0.0600 
    178 H178        4.4929  -12.7315  -45.2646 H         1 UNK         0.0600 
    179 H179        0.9038  -12.5234  -44.6937 H         1 UNK         0.3000 
    180 H180       -1.2206  -11.2966  -42.1500 H         1 UNK         0.0600 
    181 H181       -0.6572  -10.1134  -44.9240 H         1 UNK         0.0600 
    182 H182       -0.6797   -9.2114  -43.4125 H         1 UNK         0.0600 
    183 H183       -2.1579   -9.9472  -44.0133 H         1 UNK         0.0600 
    184 H184       -1.3920  -12.4528  -44.8548 H         1 UNK         0.3000 
    185 H185       -1.0565  -15.3533  -44.5636 H         1 UNK         0.0600 
    186 H186       -3.0265  -16.7900  -44.1352 H         1 UNK         0.0600 
    187 H187       -2.3154  -16.2980  -42.6126 H         1 UNK         0.0600 
    188 H188       -3.7822  -15.5164  -43.1811 H         1 UNK         0.0600 
    189 H189       -3.6217  -14.9314  -45.5494 H         1 UNK         0.3000 
    190 H190       -1.0440  -22.1009  -43.9939 H         1 UNK         0.3000 
    191 H191       -2.9487  -23.4975  -42.3814 H         1 UNK         0.0600 
    192 H192        0.0899  -23.8226  -42.5916 H         1 UNK         0.0600 
    193 H193       -0.9212  -24.4286  -41.2880 H         1 UNK         0.0600 
    194 H194       -0.7535  -22.6973  -41.5277 H         1 UNK         0.0600 
    195 H195       -1.5049  -24.3743  -45.4359 H         1 UNK         0.3000 
    196 H196       -1.7637  -27.2665  -45.1290 H         1 UNK         0.0600 
    197 H197       -1.2240  -27.2914  -47.5308 H         1 UNK         0.0600 
    198 H198       -0.1306  -26.1723  -46.7320 H         1 UNK         0.0600 
    199 H199       -1.4934  -25.5611  -47.6689 H         1 UNK         0.0600 
    200 H200       -3.3674  -28.5548  -46.2226 H         1 UNK         0.3000 
    201 H201       -6.0253  -27.6983  -45.9104 H         1 UNK         0.0600 
    202 H202       -5.3132  -30.0645  -45.7553 H         1 UNK         0.0600 
    203 H203       -4.9044  -30.0871  -47.4716 H         1 UNK         0.0600 
    204 H204       -6.5780  -29.9001  -46.9620 H         1 UNK         0.0600 
    205 H205       -3.9796  -27.6201  -48.7800 H         1 UNK         0.3000 
    206 H206       -6.1819  -26.7956  -50.5739 H         1 UNK         0.0600 
    207 H207       -4.4819  -28.4066  -51.3913 H         1 UNK         0.0600 
    208 H208       -4.4001  -26.9096  -52.3028 H         1 UNK         0.0600 
    209 H209       -3.1934  -27.2496  -51.0628 H         1 UNK         0.0600 
    210 H210       -4.2339  -25.2608  -48.3151 H         1 UNK         0.3000 
    211 H211       -3.5452  -23.2623  -47.8164 H         1 UNK         0.0600 
    212 H212       -5.6887  -22.2212  -49.7523 H         1 UNK         0.0600 
    213 H213       -5.0150  -21.3537  -48.3785 H         1 UNK         0.0600 
    214 H214       -5.9985  -22.7745  -48.1094 H         1 UNK         0.0600 
    215 H215       -3.2129  -20.7897  -49.0951 H         1 UNK         0.3000 
    216 H216       -0.8260  -21.1603  -50.6398 H         1 UNK         0.0600 
    217 H217       -0.7906  -18.7227  -50.7458 H         1 UNK         0.0600 
    218 H218       -1.2961  -19.1753  -49.1262 H         1 UNK         0.0600 
    219 H219       -2.4802  -18.6032  -50.2990 H         1 UNK         0.0600 
    220 H220       -4.1458  -21.1599  -51.5225 H         1 UNK         0.3000 
    221 H221       -4.0767  -20.3243  -54.2297 H         1 UNK         0.0600 
    222 H222       -5.8853  -22.3442  -52.8038 H         1 UNK         0.0600 
    223 H223       -6.1716  -20.6092  -52.9429 H         1 UNK         0.0600 
    224 H224       -6.2055  -21.6236  -54.3763 H         1 UNK         0.0600 
    225 H225       -2.8612  -23.2584  -52.7212 H         1 UNK         0.3000 
    226 H226       -2.6474  -24.9362  -55.0145 H         1 UNK         0.0600 
    227 H227       -2.3469  -25.6797  -52.6336 H         1 UNK         0.0600 
    228 H228       -0.9734  -26.1304  -53.6334 H         1 UNK         0.0600 
    229 H229       -0.8505  -24.7613  -52.5332 H         1 UNK         0.0600 
    230 H230       -0.8304  -22.1088  -53.9938 H         1 UNK         0.3000 
    231 H231        1.1600  -22.4172  -56.2011 H         1 UNK         0.0600 
    232 H232        2.5303  -20.8355  -54.8852 H         1 UNK         0.0600 
    233 H233        2.1283  -22.2217  -53.8863 H         1 UNK         0.0600 
    234 H234        1.2709  -20.6975  -53.6628 H         1 UNK         0.0600 
    235 H235       -1.7423  -21.5824  -56.2975 H         1 UNK         0.3000 
    236 H236       -3.1087  -20.1550  -57.2519 H         1 UNK         0.0600 
    237 H237       -2.3313  -18.8503  -59.1886 H         1 UNK         0.0600 
    238 H238       -1.5289  -20.4108  -59.1845 H         1 UNK         0.0600 
    239 H239       -0.6592  -18.9695  -58.6595 H         1 UNK         0.0600 
    240 H240       -1.7534  -19.3499  -54.6678 H         1 UNK         0.3000 
    241 H241       -1.7344  -17.7740  -53.1952 H         1 UNK         0.0600 
    242 H242        0.3356  -17.7929  -55.4833 H         1 UNK         0.3800 
    243 H243        1.1153  -16.2472  -55.2591 H         1 UNK         0.3800 
    244 H244       -4.1317  -17.2164  -54.3126 H         1 UNK         0.0800 
    245 H245       -3.3527  -15.7195  -54.7202 H         1 UNK         0.0800 
    246 H246       -5.8514  -16.8596  -52.4373 H         1 UNK         0.0800 
    247 H247       -4.7061  -18.0798  -51.9177 H         1 UNK         0.0800 
@<TRIPOS>BOND
     1    1    2 1    
     2    1  127 1    
     3    1  128 1    
     4    1  129 1    
     5    2    3 2    
     6    2    4 am   BACKBONE|DICT|INTERRES
     7    4    5 1    
     8    4  130 1    
     9    5    6 1    
    10    5   65 1    
    11    5  131 1    
    12    6    7 1    
    13    6  132 1    
    14    6  133 1    
    15    7    8 1    
    16    8    9 1    
    17    8  134 1    
    18    8  135 1    
    19    9   10 ar   
    20    9   14 ar   
    21   10   11 ar   
    22   10  136 1    
    23   11   12 ar   
    24   11  126 1    
    25   12   13 ar   
    26   12  137 1    
    27   13   14 ar   
    28   13   15 1    
    29   14  138 1    
    30   15   16 1    
    31   15  139 1    
    32   15  140 1    
    33   16   17 1    
    34   17   18 1    
    35   17  141 1    
    36   17  142 1    
    37   18   19 1    
    38   18   67 1    
    39   18  143 1    
    40   19   20 am   BACKBONE|DICT|INTERRES
    41   19  144 1    
    42   20   21 2    
    43   20   22 1    
    44   22   23 1    
    45   22   24 1    
    46   22  145 1    
    47   23  146 1    
    48   23  147 1    
    49   23  148 1    
    50   24   25 am   BACKBONE|DICT|INTERRES
    51   24  149 1    
    52   25   26 2    
    53   25   27 1    
    54   27   28 1    
    55   27   29 1    
    56   27  150 1    
    57   28  151 1    
    58   28  152 1    
    59   28  153 1    
    60   29   30 am   BACKBONE|DICT|INTERRES
    61   29  154 1    
    62   30   31 2    
    63   30   32 1    
    64   32   33 1    
    65   32   34 1    
    66   32  155 1    
    67   33  156 1    
    68   33  157 1    
    69   33  158 1    
    70   34   35 am   BACKBONE|DICT|INTERRES
    71   34  159 1    
    72   35   36 2    
    73   35   37 1    
    74   37   38 1    
    75   37   39 1    
    76   37  160 1    
    77   38  161 1    
    78   38  162 1    
    79   38  163 1    
    80   39   40 am   BACKBONE|DICT|INTERRES
    81   39  164 1    
    82   40   41 2    
    83   40   42 1    
    84   42   43 1    
    85   42   44 1    
    86   42  165 1    
    87   43  166 1    
    88   43  167 1    
    89   43  168 1    
    90   44   45 am   BACKBONE|DICT|INTERRES
    91   44  169 1    
    92   45   46 2    
    93   45   47 1    
    94   47   48 1    
    95   47   49 1    
    96   47  170 1    
    97   48  171 1    
    98   48  172 1    
    99   48  173 1    
   100   49   50 am   BACKBONE|DICT|INTERRES
   101   49  174 1    
   102   50   51 2    
   103   50   52 1    
   104   52   53 1    
   105   52   54 1    
   106   52  175 1    
   107   53  176 1    
   108   53  177 1    
   109   53  178 1    
   110   54   55 am   BACKBONE|DICT|INTERRES
   111   54  179 1    
   112   55   56 2    
   113   55   57 1    
   114   57   58 1    
   115   57   59 1    
   116   57  180 1    
   117   58  181 1    
   118   58  182 1    
   119   58  183 1    
   120   59   60 am   BACKBONE|DICT|INTERRES
   121   59  184 1    
   122   60   61 2    
   123   60   62 1    
   124   62   63 1    
   125   62   64 1    
   126   62  185 1    
   127   63  186 1    
   128   63  187 1    
   129   63  188 1    
   130   64   65 am   BACKBONE|DICT|INTERRES
   131   64  189 1    
   132   65   66 2    
   133   67   68 2    
   134   67   69 am   BACKBONE|DICT|INTERRES
   135   69   70 1    
   136   69  190 1    
   137   70   71 1    
   138   70   72 1    
   139   70  191 1    
   140   71  192 1    
   141   71  193 1    
   142   71  194 1    
   143   72   73 2    
   144   72   74 am   BACKBONE|DICT|INTERRES
   145   74   75 1    
   146   74  195 1    
   147   75   76 1    
   148   75   77 1    
   149   75  196 1    
   150   76  197 1    
   151   76  198 1    
   152   76  199 1    
   153   77   78 2    
   154   77   79 am   BACKBONE|DICT|INTERRES
   155   79   80 1    
   156   79  200 1    
   157   80   81 1    
   158   80   82 1    
   159   80  201 1    
   160   81  202 1    
   161   81  203 1    
   162   81  204 1    
   163   82   83 2    
   164   82   84 am   BACKBONE|DICT|INTERRES
   165   84   85 1    
   166   84  205 1    
   167   85   86 1    
   168   85   87 1    
   169   85  206 1    
   170   86  207 1    
   171   86  208 1    
   172   86  209 1    
   173   87   88 2    
   174   87   89 am   BACKBONE|DICT|INTERRES
   175   89   90 1    
   176   89  210 1    
   177   90   91 1    
   178   90   92 1    
   179   90  211 1    
   180   91  212 1    
   181   91  213 1    
   182   91  214 1    
   183   92   93 2    
   184   92   94 am   BACKBONE|DICT|INTERRES
   185   94   95 1    
   186   94  215 1    
   187   95   96 1    
   188   95   97 1    
   189   95  216 1    
   190   96  217 1    
   191   96  218 1    
   192   96  219 1    
   193   97   98 2    
   194   97   99 am   BACKBONE|DICT|INTERRES
   195   99  100 1    
   196   99  220 1    
   197  100  101 1    
   198  100  102 1    
   199  100  221 1    
   200  101  222 1    
   201  101  223 1    
   202  101  224 1    
   203  102  103 2    
   204  102  104 am   BACKBONE|DICT|INTERRES
   205  104  105 1    
   206  104  225 1    
   207  105  106 1    
   208  105  107 1    
   209  105  226 1    
   210  106  227 1    
   211  106  228 1    
   212  106  229 1    
   213  107  108 2    
   214  107  109 am   BACKBONE|DICT|INTERRES
   215  109  110 1    
   216  109  230 1    
   217  110  111 1    
   218  110  112 1    
   219  110  231 1    
   220  111  232 1    
   221  111  233 1    
   222  111  234 1    
   223  112  113 2    
   224  112  114 am   BACKBONE|DICT|INTERRES
   225  114  115 1    
   226  114  235 1    
   227  115  116 1    
   228  115  117 1    
   229  115  236 1    
   230  116  237 1    
   231  116  238 1    
   232  116  239 1    
   233  117  118 2    
   234  117  119 am   BACKBONE|DICT|INTERRES
   235  119  120 1    
   236  119  240 1    
   237  120  121 1    
   238  120  124 1    
   239  120  241 1    
   240  121  122 am   BACKBONE|DICT|INTERRES
   241  121  123 2    
   242  122  242 1    
   243  122  243 1    
   244  124  125 1    
   245  124  244 1    
   246  124  245 1    
   247  125  126 1    
   248  126  246 1    
   249  126  247 1    
@<TRIPOS>SUBSTRUCTURE
     1 UNK         1 GROUP             0       ****    0 ROOT    
