@<TRIPOS>MOLECULE
3R540
247   249    1
SMALL
USER_CHARGES


@<TRIPOS>ATOM
      1 CA         -4.1651  -12.7878  -49.6177 C.3       0 UNK        -0.1800 
      2 C          -3.0617  -12.7693  -48.5705 C.2       0 UNK         0.5000 
      3 O          -3.3029  -12.3646  -47.4335 O.2       0 UNK        -0.5000 
      4 N          -1.8569  -13.2276  -48.9375 N.am      1 UNK        -0.5000 
      5 CA         -0.6663  -13.2969  -48.0751 C.3       1 UNK         0.1400 
      6 C6          0.6044  -13.7042  -48.8649 C.3       23 UNK        -0.0398 
      7 S7          0.4277  -15.2760  -49.7791 S.3       23 UNK        -0.2404 
      8 C8          2.1655  -15.6975  -50.1159 C.3       23 UNK        -0.0205 
      9 C9          2.2607  -17.0856  -50.7282 C.ar      23 UNK        -0.0193 
     10 C10         1.9847  -17.2693  -52.0853 C.ar      23 UNK        -0.1150 
     11 C11         1.9930  -18.5487  -52.6476 C.ar      23 UNK        -0.0193 
     12 C12         2.2921  -19.6491  -51.8356 C.ar      23 UNK        -0.1150 
     13 C13         2.5801  -19.4795  -50.4780 C.ar      23 UNK        -0.0193 
     14 C14         2.5767  -18.1920  -49.9341 C.ar      23 UNK        -0.1150 
     15 C15         2.8458  -20.6901  -49.5936 C.3       23 UNK        -0.0205 
     16 S16         1.3048  -21.2563  -48.8120 S.3       23 UNK        -0.2404 
     17 C17         1.8064  -22.8411  -48.0581 C.3       23 UNK        -0.0398 
     18 CA          0.8221  -23.4666  -47.0272 C.3       11 UNK         0.1400 
     19 N           0.9547  -22.9174  -45.6722 N.am      11 UNK        -0.5000 
     20 C           0.5491  -23.5781  -44.5748 C.2       10 UNK         0.5000 
     21 O           0.0735  -24.7132  -44.6052 O.2       10 UNK        -0.5000 
     22 CA          0.6663  -22.8645  -43.2164 C.3       10 UNK         0.1400 
     23 CB          2.0927  -22.9774  -42.6580 C.3       10 UNK        -0.1800 
     24 N           0.2635  -21.4619  -43.2682 N.am      10 UNK        -0.5000 
     25 C          -0.9784  -21.0298  -43.5301 C.2       9 UNK         0.5000 
     26 O          -1.9400  -21.7748  -43.7205 O.2       9 UNK        -0.5000 
     27 CA         -1.1631  -19.5036  -43.6389 C.3       9 UNK         0.1400 
     28 CB         -1.3264  -18.8733  -42.2481 C.3       9 UNK        -0.1800 
     29 N          -0.0562  -18.8574  -44.3480 N.am      9 UNK        -0.5000 
     30 C           0.2733  -19.1214  -45.6206 C.2       8 UNK         0.5000 
     31 O          -0.3669  -19.8816  -46.3406 O.2       8 UNK        -0.5000 
     32 CA          1.5585  -18.4801  -46.1623 C.3       8 UNK         0.1400 
     33 CB          1.3087  -17.0460  -46.6347 C.3       8 UNK        -0.1800 
     34 N           2.6295  -18.4957  -45.1722 N.am      8 UNK        -0.5000 
     35 C           3.2893  -19.6017  -44.8032 C.2       7 UNK         0.5000 
     36 O           3.1035  -20.7106  -45.3057 O.2       7 UNK        -0.5000 
     37 CA          4.2940  -19.4415  -43.6475 C.3       7 UNK         0.1400 
     38 CB          5.6648  -18.9993  -44.1803 C.3       7 UNK        -0.1800 
     39 N           3.8339  -18.4849  -42.6371 N.am      7 UNK        -0.5000 
     40 C           2.7740  -18.6830  -41.8401 C.2       6 UNK         0.5000 
     41 O           2.1041  -19.7144  -41.8448 O.2       6 UNK        -0.5000 
     42 CA          2.3675  -17.5194  -40.9177 C.3       6 UNK         0.1400 
     43 CB          3.1290  -17.5951  -39.5862 C.3       6 UNK        -0.1800 
     44 N           2.5793  -16.2031  -41.5258 N.am      6 UNK        -0.5000 
     45 C           1.9065  -15.7381  -42.5865 C.2       5 UNK         0.5000 
     46 O           1.0434  -16.3825  -43.1860 O.2       5 UNK        -0.5000 
     47 CA          2.3145  -14.3480  -43.0932 C.3       5 UNK         0.1400 
     48 CB          3.1336  -14.4586  -44.3888 C.3       5 UNK        -0.1800 
     49 N           1.1408  -13.5152  -43.3426 N.am      5 UNK        -0.5000 
     50 C           0.6433  -12.6360  -42.4644 C.2       4 UNK         0.5000 
     51 O           1.0721  -12.5004  -41.3175 O.2       4 UNK        -0.5000 
     52 CA         -0.5014  -11.7331  -42.9481 C.3       4 UNK         0.1400 
     53 CB          0.0027  -10.7352  -44.0048 C.3       4 UNK        -0.1800 
     54 N          -1.6061  -12.5048  -43.5131 N.am      4 UNK        -0.5000 
     55 C          -2.8406  -12.5657  -42.9925 C.2       3 UNK         0.5000 
     56 O          -3.1568  -12.0372  -41.9255 O.2       3 UNK        -0.5000 
     57 CA         -3.9248  -13.3119  -43.7980 C.3       3 UNK         0.1400 
     58 CB         -4.9116  -12.3131  -44.4229 C.3       3 UNK        -0.1800 
     59 N          -3.3681  -14.1522  -44.8577 N.am      3 UNK        -0.5000 
     60 C          -2.8586  -15.3741  -44.6494 C.2       2 UNK         0.5000 
     61 O          -2.9049  -15.9480  -43.5623 O.2       2 UNK        -0.5000 
     62 CA         -2.1697  -16.0737  -45.8374 C.3       2 UNK         0.1400 
     63 CB         -3.0768  -17.1620  -46.4303 C.3       2 UNK        -0.1800 
     64 N          -1.7559  -15.1744  -46.9165 N.am      2 UNK        -0.5000 
     65 C          -0.8659  -14.1760  -46.8198 C.2       1 UNK         0.5000 
     66 O          -0.2579  -13.9022  -45.7844 O.2       1 UNK        -0.5000 
     67 C          -0.6563  -23.4933  -47.4793 C.2       11 UNK         0.5000 
     68 O          -1.1198  -24.5177  -47.9831 O.2       11 UNK        -0.5000 
     69 N          -1.3922  -22.3992  -47.2295 N.am      12 UNK        -0.5000 
     70 CA         -2.7996  -22.2081  -47.5911 C.3       12 UNK         0.1400 
     71 CB         -3.1941  -20.7503  -47.3270 C.3       12 UNK        -0.1800 
     72 C          -3.7789  -23.1737  -46.8975 C.2       12 UNK         0.5000 
     73 O          -4.8989  -23.3398  -47.3785 O.2       12 UNK        -0.5000 
     74 N          -3.3413  -23.8382  -45.8194 N.am      13 UNK        -0.5000 
     75 CA         -4.0625  -24.9389  -45.1774 C.3       13 UNK         0.1400 
     76 CB         -3.3236  -25.3471  -43.8948 C.3       13 UNK        -0.1800 
     77 C          -4.2565  -26.1583  -46.1058 C.2       13 UNK         0.5000 
     78 O          -5.2366  -26.8860  -45.9426 O.2       13 UNK        -0.5000 
     79 N          -3.3414  -26.3420  -47.0686 N.am      14 UNK        -0.5000 
     80 CA         -3.4213  -27.3524  -48.1231 C.3       14 UNK         0.1400 
     81 CB         -2.1152  -28.1621  -48.1370 C.3       14 UNK        -0.1800 
     82 C          -3.6636  -26.7074  -49.4997 C.2       14 UNK         0.5000 
     83 O          -4.4164  -27.2576  -50.3032 O.2       14 UNK        -0.5000 
     84 N          -3.0250  -25.5568  -49.7521 N.am      15 UNK        -0.5000 
     85 CA         -2.9944  -24.8640  -51.0431 C.3       15 UNK         0.1400 
     86 CB         -1.6472  -24.1339  -51.1557 C.3       15 UNK        -0.1800 
     87 C          -4.1838  -23.9084  -51.2908 C.2       15 UNK         0.5000 
     88 O          -4.1723  -23.1937  -52.2926 O.2       15 UNK        -0.5000 
     89 N          -5.1797  -23.9289  -50.3948 N.am      16 UNK        -0.5000 
     90 CA         -6.4186  -23.1430  -50.3582 C.3       16 UNK         0.1400 
     91 CB         -7.1784  -23.1657  -51.6995 C.3       16 UNK        -0.1800 
     92 C          -6.2114  -21.7046  -49.8502 C.2       16 UNK         0.5000 
     93 O          -5.2218  -21.0496  -50.1889 O.2       16 UNK        -0.5000 
     94 N          -7.1747  -21.2523  -49.0343 N.am      17 UNK        -0.5000 
     95 CA         -7.2080  -19.9566  -48.3552 C.3       17 UNK         0.1400 
     96 CB         -8.4912  -19.8658  -47.5156 C.3       17 UNK        -0.1800 
     97 C          -7.1176  -18.7675  -49.3252 C.2       17 UNK         0.5000 
     98 O          -7.8123  -18.7598  -50.3441 O.2       17 UNK        -0.5000 
     99 N          -6.2583  -17.7970  -48.9845 N.am      18 UNK        -0.5000 
    100 CA        -5.9294  -16.5542  -49.6998 C.3       18 UNK         0.1400 
    101 CB        -7.1648  -15.6448  -49.8402 C.3       18 UNK        -0.1800 
    102 C         -5.2261  -16.7467  -51.0598 C.2       18 UNK         0.5000 
    103 O         -4.3174  -15.9783  -51.3740 O.2       18 UNK        -0.5000 
    104 N         -5.6466  -17.7538  -51.8340 N.am      19 UNK        -0.5000 
    105 CA        -5.0846  -18.1311  -53.1276 C.3       19 UNK         0.1400 
    106 CB        -6.0000  -19.1712  -53.7945 C.3       19 UNK        -0.1800 
    107 C         -3.6479  -18.6633  -53.0043 C.2       19 UNK         0.5000 
    108 O         -2.7641  -18.1822  -53.7130 O.2       19 UNK        -0.5000 
    109 N         -3.4531  -19.6395  -52.1032 N.am      20 UNK        -0.5000 
    110 CA        -2.1821  -20.2870  -51.7597 C.3       20 UNK         0.1400 
    111 CB        -1.2589  -19.2840  -51.0396 C.3       20 UNK        -0.1800 
    112 C         -1.4831  -21.0145  -52.9353 C.2       20 UNK         0.5000 
    113 O         -0.2877  -21.2922  -52.8546 O.2       20 UNK        -0.5000 
    114 N         -2.2446  -21.3509  -53.9865 N.am      21 UNK        -0.5000 
    115 CA        -1.8191  -21.9967  -55.2304 C.3       21 UNK         0.1400 
    116 CB        -1.3642  -23.4524  -54.9787 C.3       21 UNK        -0.1800 
    117 C         -0.8107  -21.1369  -56.0254 C.2       21 UNK         0.5000 
    118 O         -1.1662  -20.0288  -56.4291 O.2       21 UNK        -0.5000 
    119 N          0.3913  -21.6728  -56.2835 N.am      22 UNK        -0.5000 
    120 CA         1.4383  -21.1131  -57.1643 C.3       22 UNK         0.1400 
    121 C          1.0705  -21.1159  -58.6826 C.2       22 UNK         0.5000 
    122 N          0.0729  -21.8733  -59.1235 N.am      22 UNK        -0.7600 
    123 O          1.7168  -20.4491  -59.4868 O.2       22 UNK        -0.5000 
    124 C124        1.9978  -19.7374  -56.6966 C.3       23 UNK        -0.0398 
    125 S125        2.7568  -19.7877  -55.0377 S.3       23 UNK        -0.2404 
    126 C126        1.6002  -18.7318  -54.1091 C.3       23 UNK        -0.0205 
    127 H127       -4.4810  -11.7704  -49.8472 H         1 UNK         0.0600 
    128 H128       -5.0277  -13.3369  -49.2414 H         1 UNK         0.0600 
    129 H129       -3.8378  -13.2619  -50.5434 H         1 UNK         0.0600 
    130 H130       -1.7245  -13.5709  -49.8789 H         1 UNK         0.3000 
    131 H131       -0.4988  -12.2842  -47.7022 H         1 UNK         0.0600 
    132 H132        1.4647  -13.7674  -48.1956 H         1 UNK         0.0800 
    133 H133        0.8487  -12.9238  -49.5868 H         1 UNK         0.0800 
    134 H134        2.5948  -14.9595  -50.7950 H         1 UNK         0.0800 
    135 H135        2.7468  -15.6481  -49.1945 H         1 UNK         0.0800 
    136 H136        1.7243  -16.4145  -52.6936 H         1 UNK         0.1150 
    137 H137        2.2651  -20.6447  -52.2557 H         1 UNK         0.1150 
    138 H138        2.7893  -18.0557  -48.8852 H         1 UNK         0.1150 
    139 H139        3.2746  -21.5002  -50.1855 H         1 UNK         0.0800 
    140 H140        3.5761  -20.4429  -48.8215 H         1 UNK         0.0800 
    141 H141        2.7880  -22.7153  -47.5987 H         1 UNK         0.0800 
    142 H142        1.9546  -23.5458  -48.8779 H         1 UNK         0.0800 
    143 H143        1.1228  -24.5147  -46.9556 H         1 UNK         0.0600 
    144 H144        1.3664  -21.9955  -45.5831 H         1 UNK         0.3000 
    145 H145       -0.0055  -23.3718  -42.5207 H         1 UNK         0.0600 
    146 H146        2.1607  -22.5441  -41.6600 H         1 UNK         0.0600 
    147 H147        2.8175  -22.4691  -43.2932 H         1 UNK         0.0600 
    148 H148        2.3997  -24.0211  -42.5806 H         1 UNK         0.0600 
    149 H149        0.9795  -20.7755  -43.0505 H         1 UNK         0.3000 
    150 H150       -2.0753  -19.3151  -44.2074 H         1 UNK         0.0600 
    151 H151       -2.2229  -19.2509  -41.7552 H         1 UNK         0.0600 
    152 H152       -1.4204  -17.7895  -42.3112 H         1 UNK         0.0600 
    153 H153       -0.4798  -19.0958  -41.5997 H         1 UNK         0.0600 
    154 H154        0.4806  -18.1666  -43.8328 H         1 UNK         0.3000 
    155 H155        1.8838  -19.0657  -47.0219 H         1 UNK         0.0600 
    156 H156        0.5412  -17.0285  -47.4085 H         1 UNK         0.0600 
    157 H157        2.2107  -16.6015  -47.0524 H         1 UNK         0.0600 
    158 H158        0.9715  -16.4083  -45.8205 H         1 UNK         0.0600 
    159 H159        2.8072  -17.6349  -44.6779 H         1 UNK         0.3000 
    160 H160        4.4100  -20.4161  -43.1685 H         1 UNK         0.0600 
    161 H161        5.6174  -18.0176  -44.6532 H         1 UNK         0.0600 
    162 H162        6.0395  -19.7042  -44.9238 H         1 UNK         0.0600 
    163 H163        6.4024  -18.9514  -43.3790 H         1 UNK         0.0600 
    164 H164        4.3385  -17.6140  -42.5645 H         1 UNK         0.3000 
    165 H165        1.3015  -17.6229  -40.7055 H         1 UNK         0.0600 
    166 H166        2.7892  -16.8252  -38.8933 H         1 UNK         0.0600 
    167 H167        2.9709  -18.5594  -39.1011 H         1 UNK         0.0600 
    168 H168        4.2034  -17.4707  -39.7272 H         1 UNK         0.0600 
    169 H169        3.2763  -15.6154  -41.0911 H         1 UNK         0.3000 
    170 H170        2.9522  -13.8745  -42.3435 H         1 UNK         0.0600 
    171 H171        2.5328  -14.8268  -45.2189 H         1 UNK         0.0600 
    172 H172        3.5321  -13.4867  -44.6801 H         1 UNK         0.0600 
    173 H173        3.9818  -15.1332  -44.2662 H         1 UNK         0.0600 
    174 H174        0.6896  -13.6331  -44.2471 H         1 UNK         0.3000 
    175 H175       -0.8388  -11.1526  -42.0869 H         1 UNK         0.0600 
    176 H176        0.3377  -11.2379  -44.9131 H         1 UNK         0.0600 
    177 H177       -0.7820  -10.0322  -44.2846 H         1 UNK         0.0600 
    178 H178        0.8412  -10.1512  -43.6232 H         1 UNK         0.0600 
    179 H179       -1.4062  -13.0133  -44.3666 H         1 UNK         0.3000 
    180 H180       -4.4816  -13.9398  -43.0991 H         1 UNK         0.0600 
    181 H181       -5.6857  -12.8255  -44.9944 H         1 UNK         0.0600 
    182 H182       -4.4077  -11.6138  -45.0908 H         1 UNK         0.0600 
    183 H183       -5.4120  -11.7252  -43.6525 H         1 UNK         0.0600 
    184 H184       -3.2967  -13.7305  -45.7772 H         1 UNK         0.3000 
    185 H185       -1.2772  -16.5513  -45.4360 H         1 UNK         0.0600 
    186 H186       -3.9779  -16.7354  -46.8713 H         1 UNK         0.0600 
    187 H187       -2.5551  -17.7268  -47.2030 H         1 UNK         0.0600 
    188 H188       -3.3904  -17.8730  -45.6653 H         1 UNK         0.0600 
    189 H189       -2.2018  -15.3113  -47.8114 H         1 UNK         0.3000 
    190 H190       -0.9296  -21.5854  -46.8274 H         1 UNK         0.3000 
    191 H191       -2.8902  -22.3858  -48.6638 H         1 UNK         0.0600 
    192 H192       -2.5774  -20.0683  -47.9122 H         1 UNK         0.0600 
    193 H193       -3.0884  -20.4894  -46.2736 H         1 UNK         0.0600 
    194 H194       -4.2277  -20.5691  -47.6118 H         1 UNK         0.0600 
    195 H195       -2.4255  -23.6140  -45.4544 H         1 UNK         0.3000 
    196 H196       -5.0525  -24.5709  -44.9006 H         1 UNK         0.0600 
    197 H197       -3.1873  -24.4956  -43.2275 H         1 UNK         0.0600 
    198 H198       -2.3401  -25.7634  -44.1137 H         1 UNK         0.0600 
    199 H199       -3.8848  -26.1050  -43.3469 H         1 UNK         0.0600 
    200 H200       -2.5676  -25.6895  -47.1294 H         1 UNK         0.3000 
    201 H201       -4.2450  -28.0437  -47.9339 H         1 UNK         0.0600 
    202 H202       -1.9608  -28.6733  -47.1867 H         1 UNK         0.0600 
    203 H203       -1.2476  -27.5262  -48.3191 H         1 UNK         0.0600 
    204 H204       -2.1353  -28.9243  -48.9171 H         1 UNK         0.0600 
    205 H205       -2.3881  -25.1882  -49.0490 H         1 UNK         0.3000 
    206 H206       -3.0268  -25.6130  -51.8370 H         1 UNK         0.0600 
    207 H207       -1.5797  -23.2909  -50.4687 H         1 UNK         0.0600 
    208 H208       -0.8129  -24.8033  -50.9455 H         1 UNK         0.0600 
    209 H209       -1.4982  -23.7517  -52.1622 H         1 UNK         0.0600 
    210 H210       -5.0374  -24.5146  -49.5840 H         1 UNK         0.3000 
    211 H211       -7.0430  -23.6595  -49.6274 H         1 UNK         0.0600 
    212 H212       -6.6708  -22.5827  -52.4682 H         1 UNK         0.0600 
    213 H213       -8.1760  -22.7406  -51.5847 H         1 UNK         0.0600 
    214 H214       -7.2987  -24.1835  -52.0706 H         1 UNK         0.0600 
    215 H215       -7.9580  -21.8589  -48.8431 H         1 UNK         0.3000 
    216 H216       -6.3600  -19.9209  -47.6717 H         1 UNK         0.0600 
    217 H217       -8.5403  -18.9183  -46.9772 H         1 UNK         0.0600 
    218 H218       -8.5352  -20.6623  -46.7725 H         1 UNK         0.0600 
    219 H219       -9.3845  -19.9359  -48.1377 H         1 UNK         0.0600 
    220 H220       -5.7284  -17.9350  -48.1362 H         1 UNK         0.3000 
    221 H221       -5.2161  -16.0314  -49.0607 H         1 UNK         0.0600 
    222 H222       -7.9334  -16.0930  -50.4702 H         1 UNK         0.0600 
    223 H223       -7.6095  -15.4316  -48.8682 H         1 UNK         0.0600 
    224 H224       -6.8955  -14.6890  -50.2912 H         1 UNK         0.0600 
    225 H225       -6.4237  -18.3094  -51.4860 H         1 UNK         0.3000 
    226 H226       -5.0618  -17.2403  -53.7589 H         1 UNK         0.0600 
    227 H227       -6.9977  -18.7655  -53.9632 H         1 UNK         0.0600 
    228 H228       -5.6045  -19.4756  -54.7643 H         1 UNK         0.0600 
    229 H229       -6.1046  -20.0693  -53.1839 H         1 UNK         0.0600 
    230 H230       -4.2501  -19.9802  -51.5718 H         1 UNK         0.3000 
    231 H231       -2.4366  -21.0657  -51.0401 H         1 UNK         0.0600 
    232 H232       -0.3695  -19.7797  -50.6557 H         1 UNK         0.0600 
    233 H233       -1.7601  -18.8217  -50.1893 H         1 UNK         0.0600 
    234 H234       -0.9238  -18.4890  -51.7060 H         1 UNK         0.0600 
    235 H235       -3.2220  -21.1041  -53.9360 H         1 UNK         0.3000 
    236 H236       -2.7130  -22.0490  -55.8535 H         1 UNK         0.0600 
    237 H237       -1.1482  -23.9656  -55.9165 H         1 UNK         0.0600 
    238 H238       -0.4710  -23.5070  -54.3559 H         1 UNK         0.0600 
    239 H239       -2.1502  -24.0215  -54.4821 H         1 UNK         0.0600 
    240 H240        0.5973  -22.5798  -55.8907 H         1 UNK         0.3000 
    241 H241        2.2647  -21.8215  -57.0984 H         1 UNK         0.0600 
    242 H242       -0.1479  -21.8765  -60.1072 H         1 UNK         0.3800 
    243 H243       -0.4585  -22.4476  -58.4898 H         1 UNK         0.3800 
    244 H244        1.2224  -18.9718  -56.7364 H         1 UNK         0.0800 
    245 H245        2.7804  -19.3961  -57.3759 H         1 UNK         0.0800 
    246 H246        1.5407  -17.7635  -54.6081 H         1 UNK         0.0800 
    247 H247        0.5998  -19.1613  -54.1539 H         1 UNK         0.0800 
@<TRIPOS>BOND
     1    1    2 1    
     2    1  127 1    
     3    1  128 1    
     4    1  129 1    
     5    2    3 2    
     6    2    4 am   BACKBONE|DICT|INTERRES
     7    4    5 1    
     8    4  130 1    
     9    5    6 1    
    10    5   65 1    
    11    5  131 1    
    12    6    7 1    
    13    6  132 1    
    14    6  133 1    
    15    7    8 1    
    16    8    9 1    
    17    8  134 1    
    18    8  135 1    
    19    9   10 ar   
    20    9   14 ar   
    21   10   11 ar   
    22   10  136 1    
    23   11   12 ar   
    24   11  126 1    
    25   12   13 ar   
    26   12  137 1    
    27   13   14 ar   
    28   13   15 1    
    29   14  138 1    
    30   15   16 1    
    31   15  139 1    
    32   15  140 1    
    33   16   17 1    
    34   17   18 1    
    35   17  141 1    
    36   17  142 1    
    37   18   19 1    
    38   18   67 1    
    39   18  143 1    
    40   19   20 am   BACKBONE|DICT|INTERRES
    41   19  144 1    
    42   20   21 2    
    43   20   22 1    
    44   22   23 1    
    45   22   24 1    
    46   22  145 1    
    47   23  146 1    
    48   23  147 1    
    49   23  148 1    
    50   24   25 am   BACKBONE|DICT|INTERRES
    51   24  149 1    
    52   25   26 2    
    53   25   27 1    
    54   27   28 1    
    55   27   29 1    
    56   27  150 1    
    57   28  151 1    
    58   28  152 1    
    59   28  153 1    
    60   29   30 am   BACKBONE|DICT|INTERRES
    61   29  154 1    
    62   30   31 2    
    63   30   32 1    
    64   32   33 1    
    65   32   34 1    
    66   32  155 1    
    67   33  156 1    
    68   33  157 1    
    69   33  158 1    
    70   34   35 am   BACKBONE|DICT|INTERRES
    71   34  159 1    
    72   35   36 2    
    73   35   37 1    
    74   37   38 1    
    75   37   39 1    
    76   37  160 1    
    77   38  161 1    
    78   38  162 1    
    79   38  163 1    
    80   39   40 am   BACKBONE|DICT|INTERRES
    81   39  164 1    
    82   40   41 2    
    83   40   42 1    
    84   42   43 1    
    85   42   44 1    
    86   42  165 1    
    87   43  166 1    
    88   43  167 1    
    89   43  168 1    
    90   44   45 am   BACKBONE|DICT|INTERRES
    91   44  169 1    
    92   45   46 2    
    93   45   47 1    
    94   47   48 1    
    95   47   49 1    
    96   47  170 1    
    97   48  171 1    
    98   48  172 1    
    99   48  173 1    
   100   49   50 am   BACKBONE|DICT|INTERRES
   101   49  174 1    
   102   50   51 2    
   103   50   52 1    
   104   52   53 1    
   105   52   54 1    
   106   52  175 1    
   107   53  176 1    
   108   53  177 1    
   109   53  178 1    
   110   54   55 am   BACKBONE|DICT|INTERRES
   111   54  179 1    
   112   55   56 2    
   113   55   57 1    
   114   57   58 1    
   115   57   59 1    
   116   57  180 1    
   117   58  181 1    
   118   58  182 1    
   119   58  183 1    
   120   59   60 am   BACKBONE|DICT|INTERRES
   121   59  184 1    
   122   60   61 2    
   123   60   62 1    
   124   62   63 1    
   125   62   64 1    
   126   62  185 1    
   127   63  186 1    
   128   63  187 1    
   129   63  188 1    
   130   64   65 am   BACKBONE|DICT|INTERRES
   131   64  189 1    
   132   65   66 2    
   133   67   68 2    
   134   67   69 am   BACKBONE|DICT|INTERRES
   135   69   70 1    
   136   69  190 1    
   137   70   71 1    
   138   70   72 1    
   139   70  191 1    
   140   71  192 1    
   141   71  193 1    
   142   71  194 1    
   143   72   73 2    
   144   72   74 am   BACKBONE|DICT|INTERRES
   145   74   75 1    
   146   74  195 1    
   147   75   76 1    
   148   75   77 1    
   149   75  196 1    
   150   76  197 1    
   151   76  198 1    
   152   76  199 1    
   153   77   78 2    
   154   77   79 am   BACKBONE|DICT|INTERRES
   155   79   80 1    
   156   79  200 1    
   157   80   81 1    
   158   80   82 1    
   159   80  201 1    
   160   81  202 1    
   161   81  203 1    
   162   81  204 1    
   163   82   83 2    
   164   82   84 am   BACKBONE|DICT|INTERRES
   165   84   85 1    
   166   84  205 1    
   167   85   86 1    
   168   85   87 1    
   169   85  206 1    
   170   86  207 1    
   171   86  208 1    
   172   86  209 1    
   173   87   88 2    
   174   87   89 am   BACKBONE|DICT|INTERRES
   175   89   90 1    
   176   89  210 1    
   177   90   91 1    
   178   90   92 1    
   179   90  211 1    
   180   91  212 1    
   181   91  213 1    
   182   91  214 1    
   183   92   93 2    
   184   92   94 am   BACKBONE|DICT|INTERRES
   185   94   95 1    
   186   94  215 1    
   187   95   96 1    
   188   95   97 1    
   189   95  216 1    
   190   96  217 1    
   191   96  218 1    
   192   96  219 1    
   193   97   98 2    
   194   97   99 am   BACKBONE|DICT|INTERRES
   195   99  100 1    
   196   99  220 1    
   197  100  101 1    
   198  100  102 1    
   199  100  221 1    
   200  101  222 1    
   201  101  223 1    
   202  101  224 1    
   203  102  103 2    
   204  102  104 am   BACKBONE|DICT|INTERRES
   205  104  105 1    
   206  104  225 1    
   207  105  106 1    
   208  105  107 1    
   209  105  226 1    
   210  106  227 1    
   211  106  228 1    
   212  106  229 1    
   213  107  108 2    
   214  107  109 am   BACKBONE|DICT|INTERRES
   215  109  110 1    
   216  109  230 1    
   217  110  111 1    
   218  110  112 1    
   219  110  231 1    
   220  111  232 1    
   221  111  233 1    
   222  111  234 1    
   223  112  113 2    
   224  112  114 am   BACKBONE|DICT|INTERRES
   225  114  115 1    
   226  114  235 1    
   227  115  116 1    
   228  115  117 1    
   229  115  236 1    
   230  116  237 1    
   231  116  238 1    
   232  116  239 1    
   233  117  118 2    
   234  117  119 am   BACKBONE|DICT|INTERRES
   235  119  120 1    
   236  119  240 1    
   237  120  121 1    
   238  120  124 1    
   239  120  241 1    
   240  121  122 am   BACKBONE|DICT|INTERRES
   241  121  123 2    
   242  122  242 1    
   243  122  243 1    
   244  124  125 1    
   245  124  244 1    
   246  124  245 1    
   247  125  126 1    
   248  126  246 1    
   249  126  247 1    
@<TRIPOS>SUBSTRUCTURE
     1 UNK         1 GROUP             0       ****    0 ROOT    
