@<TRIPOS>MOLECULE
3R540
247   249    1
SMALL
USER_CHARGES


@<TRIPOS>ATOM
      1 CA          7.6082  -13.2453  -49.4844 C.3       0 UNK        -0.1800 
      2 C           6.6440  -13.3423  -48.3111 C.2       0 UNK         0.5000 
      3 O           6.9250  -14.0453  -47.3399 O.2       0 UNK        -0.5000 
      4 N           5.5161  -12.6254  -48.3819 N.am      1 UNK        -0.5000 
      5 CA          4.4323  -12.6093  -47.3879 C.3       1 UNK         0.1400 
      6 C6          3.0740  -12.2081  -48.0244 C.3       23 UNK        -0.0398 
      7 S7          2.6125  -13.2623  -49.4418 S.3       23 UNK        -0.2404 
      8 C8          1.3485  -14.3297  -48.6915 C.3       23 UNK        -0.0205 
      9 C9          0.9355  -15.4372  -49.6449 C.ar      23 UNK        -0.0193 
     10 C10        -0.2104  -15.3028  -50.4351 C.ar      23 UNK        -0.1150 
     11 C11        -0.5836  -16.3223  -51.3158 C.ar      23 UNK        -0.0193 
     12 C12         0.1929  -17.4806  -51.3979 C.ar      23 UNK        -0.1150 
     13 C13         1.3444  -17.6214  -50.6207 C.ar      23 UNK        -0.0193 
     14 C14         1.7082  -16.5984  -49.7411 C.ar      23 UNK        -0.1150 
     15 C15         2.2079  -18.8664  -50.7530 C.3       23 UNK        -0.0205 
     16 S16         2.0456  -19.9693  -49.3182 S.3       23 UNK        -0.2404 
     17 C17         0.2854  -20.4324  -49.4228 C.3       23 UNK        -0.0398 
     18 CA         -0.0343  -21.6427  -48.5211 C.3       11 UNK         0.1400 
     19 N           0.1064  -21.3345  -47.0945 N.am      11 UNK        -0.5000 
     20 C           0.1105  -22.2551  -46.1214 C.2       10 UNK         0.5000 
     21 O           0.0461  -23.4666  -46.3308 O.2       10 UNK        -0.5000 
     22 CA          0.1350  -21.7376  -44.6715 C.3       10 UNK         0.1400 
     23 CB          1.5589  -21.3509  -44.2455 C.3       10 UNK        -0.1800 
     24 N          -0.7717  -20.6066  -44.4673 N.am      10 UNK        -0.5000 
     25 C          -2.1053  -20.6786  -44.5849 C.2       9 UNK         0.5000 
     26 O          -2.7109  -21.7245  -44.8157 O.2       9 UNK        -0.5000 
     27 CA         -2.8945  -19.3611  -44.4736 C.3       9 UNK         0.1400 
     28 CB         -3.1510  -18.9969  -43.0041 C.3       9 UNK        -0.1800 
     29 N          -2.2342  -18.2454  -45.1515 N.am      9 UNK        -0.5000 
     30 C          -2.0073  -18.1821  -46.4714 C.2       8 UNK         0.5000 
     31 O          -2.3768  -19.0418  -47.2687 O.2       8 UNK        -0.5000 
     32 CA         -1.1844  -16.9854  -46.9795 C.3       8 UNK         0.1400 
     33 CB         -2.0694  -15.7426  -47.1570 C.3       8 UNK        -0.1800 
     34 N          -0.0581  -16.6754  -46.0969 N.am      8 UNK        -0.5000 
     35 C           0.9863  -17.4939  -45.9041 C.2       7 UNK         0.5000 
     36 O           1.1132  -18.5810  -46.4639 O.2       7 UNK        -0.5000 
     37 CA          2.0328  -17.0503  -44.8665 C.3       7 UNK         0.1400 
     38 CB          3.0081  -16.0263  -45.4683 C.3       7 UNK        -0.1800 
     39 N           1.4206  -16.4992  -43.6567 N.am      7 UNK        -0.5000 
     40 C           0.6525  -17.2032  -42.8132 C.2       6 UNK         0.5000 
     41 O           0.4200  -18.4045  -42.9450 O.2       6 UNK        -0.5000 
     42 CA         -0.0059  -16.4313  -41.6557 C.3       6 UNK         0.1400 
     43 CB          0.9782  -16.2412  -40.4933 C.3       6 UNK        -0.1800 
     44 N          -0.5377  -15.1285  -42.0555 N.am      6 UNK        -0.5000 
     45 C          -1.4990  -14.9198  -42.9627 C.2       5 UNK         0.5000 
     46 O          -2.0443  -15.8278  -43.5887 O.2       5 UNK        -0.5000 
     47 CA         -1.9062  -13.4602  -43.2532 C.3       5 UNK         0.1400 
     48 CB         -2.9785  -12.9723  -42.2610 C.3       5 UNK        -0.1800 
     49 N          -0.7774  -12.5221  -43.3450 N.am      5 UNK        -0.5000 
     50 C           0.0608  -12.1178  -42.3810 C.2       4 UNK         0.5000 
     51 O          -0.0377  -12.4358  -41.1935 O.2       4 UNK        -0.5000 
     52 CA          1.2478  -11.2506  -42.8392 C.3       4 UNK         0.1400 
     53 CB          1.0638   -9.7939  -42.3887 C.3       4 UNK        -0.1800 
     54 N           2.5341  -11.7478  -42.3457 N.am      4 UNK        -0.5000 
     55 C           3.0073  -12.9916  -42.5021 C.2       3 UNK         0.5000 
     56 O           2.3990  -13.8934  -43.0818 O.2       3 UNK        -0.5000 
     57 CA          4.4400  -13.2345  -41.9985 C.3       3 UNK         0.1400 
     58 CB          4.7278  -14.7186  -41.7097 C.3       3 UNK        -0.1800 
     59 N           5.3624  -12.7651  -43.0260 N.am      3 UNK        -0.5000 
     60 C           5.7783  -11.4996  -43.1624 C.2       2 UNK         0.5000 
     61 O           5.5577  -10.6118  -42.3375 O.2       2 UNK        -0.5000 
     62 CA          6.5239  -11.1659  -44.4669 C.3       2 UNK         0.1400 
     63 CB          8.0259  -11.4553  -44.3266 C.3       2 UNK        -0.1800 
     64 N           5.9963  -11.9005  -45.6198 N.am      2 UNK        -0.5000 
     65 C           4.7841  -11.7254  -46.1649 C.2       1 UNK         0.5000 
     66 O           3.9737  -10.8964  -45.7473 O.2       1 UNK        -0.5000 
     67 C          -1.4186  -22.2378  -48.8503 C.2       11 UNK         0.5000 
     68 O          -1.4901  -23.1897  -49.6271 O.2       11 UNK        -0.5000 
     69 N          -2.4826  -21.7208  -48.2189 N.am      12 UNK        -0.5000 
     70 CA         -3.8385  -22.2597  -48.3209 C.3       12 UNK         0.1400 
     71 CB         -4.8400  -21.3143  -47.6405 C.3       12 UNK        -0.1800 
     72 C          -3.9523  -23.6818  -47.7462 C.2       12 UNK         0.5000 
     73 O          -4.5822  -24.5356  -48.3683 O.2       12 UNK        -0.5000 
     74 N          -3.3100  -23.9273  -46.5955 N.am      13 UNK        -0.5000 
     75 CA         -3.2163  -25.2441  -45.9640 C.3       13 UNK         0.1400 
     76 CB         -2.5960  -25.1101  -44.5656 C.3       13 UNK        -0.1800 
     77 C          -2.4365  -26.2567  -46.8227 C.2       13 UNK         0.5000 
     78 O          -2.8794  -27.3972  -46.9600 O.2       13 UNK        -0.5000 
     79 N          -1.3270  -25.8145  -47.4332 N.am      14 UNK        -0.5000 
     80 CA         -0.5343  -26.5958  -48.3887 C.3       14 UNK         0.1400 
     81 CB          0.7611  -25.8409  -48.7214 C.3       14 UNK        -0.1800 
     82 C          -1.3135  -26.9442  -49.6739 C.2       14 UNK         0.5000 
     83 O          -1.1440  -28.0384  -50.2119 O.2       14 UNK        -0.5000 
     84 N          -2.1907  -26.0302  -50.1080 N.am      15 UNK        -0.5000 
     85 CA         -3.1422  -26.2060  -51.2074 C.3       15 UNK         0.1400 
     86 CB         -3.4705  -24.8227  -51.7936 C.3       15 UNK        -0.1800 
     87 C          -4.4278  -26.9617  -50.7968 C.2       15 UNK         0.5000 
     88 O          -5.3595  -27.0380  -51.5992 O.2       15 UNK        -0.5000 
     89 N          -4.4779  -27.4911  -49.5635 N.am      16 UNK        -0.5000 
     90 CA         -5.5666  -28.2758  -48.9673 C.3       16 UNK         0.1400 
     91 CB         -5.6987  -29.6385  -49.6786 C.3       16 UNK        -0.1800 
     92 C          -6.9079  -27.5157  -48.8799 C.2       16 UNK         0.5000 
     93 O          -7.9712  -28.1358  -48.9343 O.2       16 UNK        -0.5000 
     94 N          -6.8286  -26.1824  -48.7600 N.am      17 UNK        -0.5000 
     95 CA         -7.9247  -25.2107  -48.7148 C.3       17 UNK         0.1400 
     96 CB         -8.7913  -25.4159  -47.4553 C.3       17 UNK        -0.1800 
     97 C          -8.7648  -25.1322  -50.0091 C.2       17 UNK         0.5000 
     98 O          -9.8462  -24.5417  -49.9894 O.2       17 UNK        -0.5000 
     99 N          -8.2589  -25.6904  -51.1199 N.am      18 UNK        -0.5000 
    100 CA        -8.8900  -25.6150  -52.4413 C.3       18 UNK         0.1400 
    101 CB        -8.2928  -26.7027  -53.3466 C.3       18 UNK        -0.1800 
    102 C         -8.7304  -24.2254  -53.0892 C.2       18 UNK         0.5000 
    103 O         -9.5545  -23.8359  -53.9173 O.2       18 UNK        -0.5000 
    104 N         -7.6793  -23.5067  -52.6858 N.am      19 UNK        -0.5000 
    105 CA        -7.3202  -22.1510  -53.0747 C.3       19 UNK         0.1400 
    106 CB        -6.7317  -22.1486  -54.4998 C.3       19 UNK        -0.1800 
    107 C         -6.2980  -21.6391  -52.0472 C.2       19 UNK         0.5000 
    108 O         -5.8571  -22.4081  -51.1904 O.2       19 UNK        -0.5000 
    109 N         -5.9100  -20.3639  -52.1656 N.am      20 UNK        -0.5000 
    110 CA        -4.8409  -19.7500  -51.3671 C.3       20 UNK         0.1400 
    111 CB        -5.1163  -18.2413  -51.2521 C.3       20 UNK        -0.1800 
    112 C         -3.4314  -19.9972  -51.9486 C.2       20 UNK         0.5000 
    113 O         -2.4519  -19.5741  -51.3393 O.2       20 UNK        -0.5000 
    114 N         -3.3669  -20.6293  -53.1314 N.am      21 UNK        -0.5000 
    115 CA        -2.2017  -20.8381  -54.0054 C.3       21 UNK         0.1400 
    116 CB        -0.9790  -21.3962  -53.2482 C.3       21 UNK        -0.1800 
    117 C         -1.8498  -19.6063  -54.8705 C.2       21 UNK         0.5000 
    118 O         -0.8753  -19.6586  -55.6217 O.2       21 UNK        -0.5000 
    119 N         -2.6702  -18.5494  -54.7959 N.am      22 UNK        -0.5000 
    120 CA        -2.6216  -17.3590  -55.6662 C.3       22 UNK         0.1400 
    121 C         -3.6281  -17.4263  -56.8548 C.2       22 UNK         0.5000 
    122 N         -4.3949  -18.4968  -57.0280 N.am      22 UNK        -0.7600 
    123 O         -3.7051  -16.4955  -57.6521 O.2       22 UNK        -0.5000 
    124 C124       -2.7930  -16.0480  -54.8508 C.3       23 UNK        -0.0398 
    125 S125       -1.3039  -15.6578  -53.8757 S.3       23 UNK        -0.2404 
    126 C126       -1.8040  -16.1729  -52.2071 C.3       23 UNK        -0.0205 
    127 H127        7.2303  -12.5857  -50.2659 H         1 UNK         0.0600 
    128 H128        8.5704  -12.8591  -49.1483 H         1 UNK         0.0600 
    129 H129        7.7683  -14.2316  -49.9199 H         1 UNK         0.0600 
    130 H130        5.3531  -12.0542  -49.1990 H         1 UNK         0.3000 
    131 H131        4.3162  -13.6244  -47.0022 H         1 UNK         0.0600 
    132 H132        2.2753  -12.2442  -47.2812 H         1 UNK         0.0800 
    133 H133        3.1107  -11.1756  -48.3762 H         1 UNK         0.0800 
    134 H134        1.7372  -14.7690  -47.7744 H         1 UNK         0.0800 
    135 H135        0.4856  -13.7255  -48.4081 H         1 UNK         0.0800 
    136 H136       -0.8034  -14.4012  -50.3741 H         1 UNK         0.1150 
    137 H137       -0.0954  -18.2647  -52.0839 H         1 UNK         0.1150 
    138 H138        2.5979  -16.7044  -49.1363 H         1 UNK         0.1150 
    139 H139        1.9596  -19.4171  -51.6617 H         1 UNK         0.0800 
    140 H140        3.2528  -18.5692  -50.8526 H         1 UNK         0.0800 
    141 H141        0.0599  -20.6638  -50.4637 H         1 UNK         0.0800 
    142 H142       -0.3324  -19.5731  -49.1556 H         1 UNK         0.0800 
    143 H143        0.6946  -22.4228  -48.7518 H         1 UNK         0.0600 
    144 H144        0.2250  -20.3557  -46.8507 H         1 UNK         0.3000 
    145 H145       -0.1994  -22.5513  -44.0247 H         1 UNK         0.0600 
    146 H146        1.5877  -21.0469  -43.1990 H         1 UNK         0.0600 
    147 H147        2.2417  -22.1937  -44.3592 H         1 UNK         0.0600 
    148 H148        1.9516  -20.5282  -44.8426 H         1 UNK         0.0600 
    149 H149       -0.3480  -19.7187  -44.2160 H         1 UNK         0.3000 
    150 H150       -3.8617  -19.5134  -44.9563 H         1 UNK         0.0600 
    151 H151       -3.6809  -19.7999  -42.4904 H         1 UNK         0.0600 
    152 H152       -3.7622  -18.0979  -42.9217 H         1 UNK         0.0600 
    153 H153       -2.2214  -18.8192  -42.4638 H         1 UNK         0.0600 
    154 H154       -1.9462  -17.4642  -44.5686 H         1 UNK         0.3000 
    155 H155       -0.7798  -17.2549  -47.9577 H         1 UNK         0.0600 
    156 H156       -1.5008  -14.9051  -47.5591 H         1 UNK         0.0600 
    157 H157       -2.5171  -15.4238  -46.2158 H         1 UNK         0.0600 
    158 H158       -2.8829  -15.9452  -47.8548 H         1 UNK         0.0600 
    159 H159       -0.1207  -15.8312  -45.5489 H         1 UNK         0.3000 
    160 H160        2.6059  -17.9353  -44.5819 H         1 UNK         0.0600 
    161 H161        2.5299  -15.0594  -45.6242 H         1 UNK         0.0600 
    162 H162        3.3976  -16.3665  -46.4290 H         1 UNK         0.0600 
    163 H163        3.8627  -15.8676  -44.8118 H         1 UNK         0.0600 
    164 H164        1.6076  -15.5187  -43.4542 H         1 UNK         0.3000 
    165 H165       -0.8433  -17.0323  -41.2960 H         1 UNK         0.0600 
    166 H166        1.7969  -15.5777  -40.7698 H         1 UNK         0.0600 
    167 H167        0.4808  -15.8120  -39.6234 H         1 UNK         0.0600 
    168 H168        1.4120  -17.1932  -40.1846 H         1 UNK         0.0600 
    169 H169       -0.1487  -14.3101  -41.5967 H         1 UNK         0.3000 
    170 H170       -2.3627  -13.4617  -44.2443 H         1 UNK         0.0600 
    171 H171       -3.8605  -13.6129  -42.3000 H         1 UNK         0.0600 
    172 H172       -2.6202  -12.9796  -41.2315 H         1 UNK         0.0600 
    173 H173       -3.3024  -11.9587  -42.4972 H         1 UNK         0.0600 
    174 H174       -0.5777  -12.2106  -44.2853 H         1 UNK         0.3000 
    175 H175        1.2976  -11.2672  -43.9300 H         1 UNK         0.0600 
    176 H176        1.8647   -9.1591  -42.7687 H         1 UNK         0.0600 
    177 H177        0.1227   -9.3858  -42.7596 H         1 UNK         0.0600 
    178 H178        1.0535   -9.7082  -41.3013 H         1 UNK         0.0600 
    179 H179        3.1295  -11.0681  -41.8935 H         1 UNK         0.3000 
    180 H180        4.5882  -12.6754  -41.0721 H         1 UNK         0.0600 
    181 H181        4.5759  -15.3468  -42.5875 H         1 UNK         0.0600 
    182 H182        4.0786  -15.0936  -40.9190 H         1 UNK         0.0600 
    183 H183        5.7555  -14.8596  -41.3750 H         1 UNK         0.0600 
    184 H184        5.5645  -13.4124  -43.7735 H         1 UNK         0.3000 
    185 H185        6.3970  -10.0983  -44.6584 H         1 UNK         0.0600 
    186 H186        8.5706  -11.1519  -45.2209 H         1 UNK         0.0600 
    187 H187        8.4523  -10.9073  -43.4852 H         1 UNK         0.0600 
    188 H188        8.2185  -12.5159  -44.1603 H         1 UNK         0.0600 
    189 H189        6.5934  -12.6115  -46.0311 H         1 UNK         0.3000 
    190 H190       -2.3622  -20.8850  -47.6523 H         1 UNK         0.3000 
    191 H191       -4.0815  -22.3113  -49.3816 H         1 UNK         0.0600 
    192 H192       -4.7542  -20.2973  -48.0221 H         1 UNK         0.0600 
    193 H193       -5.8638  -21.6450  -47.8192 H         1 UNK         0.0600 
    194 H194       -4.6920  -21.2757  -46.5617 H         1 UNK         0.0600 
    195 H195       -2.8664  -23.1538  -46.1080 H         1 UNK         0.3000 
    196 H196       -4.2326  -25.6260  -45.8459 H         1 UNK         0.0600 
    197 H197       -2.5491  -26.0781  -44.0654 H         1 UNK         0.0600 
    198 H198       -3.1874  -24.4460  -43.9350 H         1 UNK         0.0600 
    199 H199       -1.5819  -24.7134  -44.6081 H         1 UNK         0.0600 
    200 H200       -0.9963  -24.8768  -47.2235 H         1 UNK         0.3000 
    201 H201       -0.2631  -27.5353  -47.9028 H         1 UNK         0.0600 
    202 H202        1.3403  -25.6346  -47.8211 H         1 UNK         0.0600 
    203 H203        0.5590  -24.8901  -49.2139 H         1 UNK         0.0600 
    204 H204        1.3936  -26.4274  -49.3888 H         1 UNK         0.0600 
    205 H205       -2.2167  -25.1305  -49.6395 H         1 UNK         0.3000 
    206 H206       -2.6665  -26.7971  -51.9922 H         1 UNK         0.0600 
    207 H207       -4.1615  -24.8948  -52.6343 H         1 UNK         0.0600 
    208 H208       -3.9279  -24.1765  -51.0455 H         1 UNK         0.0600 
    209 H209       -2.5711  -24.3246  -52.1553 H         1 UNK         0.0600 
    210 H210       -3.6863  -27.3350  -48.9516 H         1 UNK         0.3000 
    211 H211       -5.2680  -28.4714  -47.9368 H         1 UNK         0.0600 
    212 H212       -6.0602  -29.5276  -50.7014 H         1 UNK         0.0600 
    213 H213       -6.3983  -30.2896  -49.1533 H         1 UNK         0.0600 
    214 H214       -4.7410  -30.1578  -49.7154 H         1 UNK         0.0600 
    215 H215       -5.9004  -25.7629  -48.7201 H         1 UNK         0.3000 
    216 H216       -7.4434  -24.2359  -48.6218 H         1 UNK         0.0600 
    217 H217       -8.1766  -25.4492  -46.5557 H         1 UNK         0.0600 
    218 H218       -9.3665  -26.3407  -47.5044 H         1 UNK         0.0600 
    219 H219       -9.5012  -24.5976  -47.3299 H         1 UNK         0.0600 
    220 H220       -7.3642  -26.1636  -51.0689 H         1 UNK         0.3000 
    221 H221       -9.9582  -25.8127  -52.3301 H         1 UNK         0.0600 
    222 H222       -7.2298  -26.5375  -53.5263 H         1 UNK         0.0600 
    223 H223       -8.4083  -27.6926  -52.9047 H         1 UNK         0.0600 
    224 H224       -8.7903  -26.7182  -54.3171 H         1 UNK         0.0600 
    225 H225       -7.0749  -23.8837  -51.9650 H         1 UNK         0.3000 
    226 H226       -8.2073  -21.5164  -53.0311 H         1 UNK         0.0600 
    227 H227       -7.4473  -22.5344  -55.2258 H         1 UNK         0.0600 
    228 H228       -6.4687  -21.1404  -54.8209 H         1 UNK         0.0600 
    229 H229       -5.8325  -22.7629  -54.5628 H         1 UNK         0.0600 
    230 H230       -6.3400  -19.7807  -52.8696 H         1 UNK         0.3000 
    231 H231       -4.8535  -20.1704  -50.3615 H         1 UNK         0.0600 
    232 H232       -6.0908  -18.0529  -50.8015 H         1 UNK         0.0600 
    233 H233       -5.0950  -17.7496  -52.2253 H         1 UNK         0.0600 
    234 H234       -4.3716  -17.7540  -50.6209 H         1 UNK         0.0600 
    235 H235       -4.2427  -20.9541  -53.5126 H         1 UNK         0.3000 
    236 H236       -2.5143  -21.6104  -54.7095 H         1 UNK         0.0600 
    237 H237       -0.2565  -21.8242  -53.9436 H         1 UNK         0.0600 
    238 H238       -0.4617  -20.6145  -52.6939 H         1 UNK         0.0600 
    239 H239       -1.2627  -22.1811  -52.5469 H         1 UNK         0.0600 
    240 H240       -3.4473  -18.5984  -54.1566 H         1 UNK         0.3000 
    241 H241       -1.6428  -17.3133  -56.1473 H         1 UNK         0.0600 
    242 H242       -4.3281  -19.2882  -56.4108 H         1 UNK         0.3800 
    243 H243       -5.0332  -18.5236  -57.8080 H         1 UNK         0.3800 
    244 H244       -2.9549  -15.1938  -55.5105 H         1 UNK         0.0800 
    245 H245       -3.6711  -16.0980  -54.2051 H         1 UNK         0.0800 
    246 H246       -2.3337  -17.1230  -52.2598 H         1 UNK         0.0800 
    247 H247       -2.5042  -15.4468  -51.7914 H         1 UNK         0.0800 
@<TRIPOS>BOND
     1    1    2 1    
     2    1  127 1    
     3    1  128 1    
     4    1  129 1    
     5    2    3 2    
     6    2    4 am   BACKBONE|DICT|INTERRES
     7    4    5 1    
     8    4  130 1    
     9    5    6 1    
    10    5   65 1    
    11    5  131 1    
    12    6    7 1    
    13    6  132 1    
    14    6  133 1    
    15    7    8 1    
    16    8    9 1    
    17    8  134 1    
    18    8  135 1    
    19    9   10 ar   
    20    9   14 ar   
    21   10   11 ar   
    22   10  136 1    
    23   11   12 ar   
    24   11  126 1    
    25   12   13 ar   
    26   12  137 1    
    27   13   14 ar   
    28   13   15 1    
    29   14  138 1    
    30   15   16 1    
    31   15  139 1    
    32   15  140 1    
    33   16   17 1    
    34   17   18 1    
    35   17  141 1    
    36   17  142 1    
    37   18   19 1    
    38   18   67 1    
    39   18  143 1    
    40   19   20 am   BACKBONE|DICT|INTERRES
    41   19  144 1    
    42   20   21 2    
    43   20   22 1    
    44   22   23 1    
    45   22   24 1    
    46   22  145 1    
    47   23  146 1    
    48   23  147 1    
    49   23  148 1    
    50   24   25 am   BACKBONE|DICT|INTERRES
    51   24  149 1    
    52   25   26 2    
    53   25   27 1    
    54   27   28 1    
    55   27   29 1    
    56   27  150 1    
    57   28  151 1    
    58   28  152 1    
    59   28  153 1    
    60   29   30 am   BACKBONE|DICT|INTERRES
    61   29  154 1    
    62   30   31 2    
    63   30   32 1    
    64   32   33 1    
    65   32   34 1    
    66   32  155 1    
    67   33  156 1    
    68   33  157 1    
    69   33  158 1    
    70   34   35 am   BACKBONE|DICT|INTERRES
    71   34  159 1    
    72   35   36 2    
    73   35   37 1    
    74   37   38 1    
    75   37   39 1    
    76   37  160 1    
    77   38  161 1    
    78   38  162 1    
    79   38  163 1    
    80   39   40 am   BACKBONE|DICT|INTERRES
    81   39  164 1    
    82   40   41 2    
    83   40   42 1    
    84   42   43 1    
    85   42   44 1    
    86   42  165 1    
    87   43  166 1    
    88   43  167 1    
    89   43  168 1    
    90   44   45 am   BACKBONE|DICT|INTERRES
    91   44  169 1    
    92   45   46 2    
    93   45   47 1    
    94   47   48 1    
    95   47   49 1    
    96   47  170 1    
    97   48  171 1    
    98   48  172 1    
    99   48  173 1    
   100   49   50 am   BACKBONE|DICT|INTERRES
   101   49  174 1    
   102   50   51 2    
   103   50   52 1    
   104   52   53 1    
   105   52   54 1    
   106   52  175 1    
   107   53  176 1    
   108   53  177 1    
   109   53  178 1    
   110   54   55 am   BACKBONE|DICT|INTERRES
   111   54  179 1    
   112   55   56 2    
   113   55   57 1    
   114   57   58 1    
   115   57   59 1    
   116   57  180 1    
   117   58  181 1    
   118   58  182 1    
   119   58  183 1    
   120   59   60 am   BACKBONE|DICT|INTERRES
   121   59  184 1    
   122   60   61 2    
   123   60   62 1    
   124   62   63 1    
   125   62   64 1    
   126   62  185 1    
   127   63  186 1    
   128   63  187 1    
   129   63  188 1    
   130   64   65 am   BACKBONE|DICT|INTERRES
   131   64  189 1    
   132   65   66 2    
   133   67   68 2    
   134   67   69 am   BACKBONE|DICT|INTERRES
   135   69   70 1    
   136   69  190 1    
   137   70   71 1    
   138   70   72 1    
   139   70  191 1    
   140   71  192 1    
   141   71  193 1    
   142   71  194 1    
   143   72   73 2    
   144   72   74 am   BACKBONE|DICT|INTERRES
   145   74   75 1    
   146   74  195 1    
   147   75   76 1    
   148   75   77 1    
   149   75  196 1    
   150   76  197 1    
   151   76  198 1    
   152   76  199 1    
   153   77   78 2    
   154   77   79 am   BACKBONE|DICT|INTERRES
   155   79   80 1    
   156   79  200 1    
   157   80   81 1    
   158   80   82 1    
   159   80  201 1    
   160   81  202 1    
   161   81  203 1    
   162   81  204 1    
   163   82   83 2    
   164   82   84 am   BACKBONE|DICT|INTERRES
   165   84   85 1    
   166   84  205 1    
   167   85   86 1    
   168   85   87 1    
   169   85  206 1    
   170   86  207 1    
   171   86  208 1    
   172   86  209 1    
   173   87   88 2    
   174   87   89 am   BACKBONE|DICT|INTERRES
   175   89   90 1    
   176   89  210 1    
   177   90   91 1    
   178   90   92 1    
   179   90  211 1    
   180   91  212 1    
   181   91  213 1    
   182   91  214 1    
   183   92   93 2    
   184   92   94 am   BACKBONE|DICT|INTERRES
   185   94   95 1    
   186   94  215 1    
   187   95   96 1    
   188   95   97 1    
   189   95  216 1    
   190   96  217 1    
   191   96  218 1    
   192   96  219 1    
   193   97   98 2    
   194   97   99 am   BACKBONE|DICT|INTERRES
   195   99  100 1    
   196   99  220 1    
   197  100  101 1    
   198  100  102 1    
   199  100  221 1    
   200  101  222 1    
   201  101  223 1    
   202  101  224 1    
   203  102  103 2    
   204  102  104 am   BACKBONE|DICT|INTERRES
   205  104  105 1    
   206  104  225 1    
   207  105  106 1    
   208  105  107 1    
   209  105  226 1    
   210  106  227 1    
   211  106  228 1    
   212  106  229 1    
   213  107  108 2    
   214  107  109 am   BACKBONE|DICT|INTERRES
   215  109  110 1    
   216  109  230 1    
   217  110  111 1    
   218  110  112 1    
   219  110  231 1    
   220  111  232 1    
   221  111  233 1    
   222  111  234 1    
   223  112  113 2    
   224  112  114 am   BACKBONE|DICT|INTERRES
   225  114  115 1    
   226  114  235 1    
   227  115  116 1    
   228  115  117 1    
   229  115  236 1    
   230  116  237 1    
   231  116  238 1    
   232  116  239 1    
   233  117  118 2    
   234  117  119 am   BACKBONE|DICT|INTERRES
   235  119  120 1    
   236  119  240 1    
   237  120  121 1    
   238  120  124 1    
   239  120  241 1    
   240  121  122 am   BACKBONE|DICT|INTERRES
   241  121  123 2    
   242  122  242 1    
   243  122  243 1    
   244  124  125 1    
   245  124  244 1    
   246  124  245 1    
   247  125  126 1    
   248  126  246 1    
   249  126  247 1    
@<TRIPOS>SUBSTRUCTURE
     1 UNK         1 GROUP             0       ****    0 ROOT    
