@<TRIPOS>MOLECULE
3R540
247   249    1
SMALL
USER_CHARGES


@<TRIPOS>ATOM
      1 CA         -3.2768  -14.1466  -51.0298 C.3       0 UNK        -0.1800 
      2 C          -2.0060  -13.3673  -51.3388 C.2       0 UNK         0.5000 
      3 O          -1.6174  -13.2581  -52.5018 O.2       0 UNK        -0.5000 
      4 N          -1.3555  -12.8285  -50.3045 N.am      1 UNK        -0.5000 
      5 CA         -0.1049  -12.0756  -50.3839 C.3       1 UNK         0.1400 
      6 C6          1.1423  -12.9782  -50.6040 C.3       23 UNK        -0.0398 
      7 S7          1.3191  -14.3275  -49.3810 S.3       23 UNK        -0.2404 
      8 C8          0.8156  -15.7589  -50.3843 C.3       23 UNK        -0.0205 
      9 C9          0.2688  -16.8890  -49.5283 C.ar      23 UNK        -0.0193 
     10 C10        -1.0847  -16.9059  -49.1805 C.ar      23 UNK        -0.1150 
     11 C11        -1.6214  -17.9767  -48.4610 C.ar      23 UNK        -0.0193 
     12 C12        -0.7893  -19.0349  -48.0861 C.ar      23 UNK        -0.1150 
     13 C13         0.5664  -19.0300  -48.4272 C.ar      23 UNK        -0.0193 
     14 C14         1.0937  -17.9470  -49.1369 C.ar      23 UNK        -0.1150 
     15 C15         1.4350  -20.2367  -48.1118 C.3       23 UNK        -0.0205 
     16 S16         1.4928  -20.6186  -46.3326 S.3       23 UNK        -0.2404 
     17 C17         2.1310  -22.3284  -46.4015 C.3       23 UNK        -0.0398 
     18 CA          1.0852  -23.4609  -46.2178 C.3       11 UNK         0.1400 
     19 N           0.7453  -23.7198  -44.8150 N.am      11 UNK        -0.5000 
     20 C           0.2579  -24.8981  -44.3961 C.2       10 UNK         0.5000 
     21 O           0.0431  -25.8484  -45.1493 O.2       10 UNK        -0.5000 
     22 CA         -0.0732  -25.0460  -42.9008 C.3       10 UNK         0.1400 
     23 CB          1.1744  -25.4750  -42.1145 C.3       10 UNK        -0.1800 
     24 N          -0.6412  -23.8464  -42.2867 N.am      10 UNK        -0.5000 
     25 C          -1.7755  -23.2419  -42.6638 C.2       9 UNK         0.5000 
     26 O          -2.4433  -23.5948  -43.6379 O.2       9 UNK        -0.5000 
     27 CA         -2.2561  -22.0444  -41.8148 C.3       9 UNK         0.1400 
     28 CB         -1.3926  -21.7624  -40.5637 C.3       9 UNK        -0.1800 
     29 N          -2.4066  -20.8226  -42.6100 N.am      9 UNK        -0.5000 
     30 C          -1.4612  -20.2156  -43.3416 C.2       8 UNK         0.5000 
     31 O          -0.3187  -20.6579  -43.4786 O.2       8 UNK        -0.5000 
     32 CA         -1.8999  -18.9256  -44.0682 C.3       8 UNK         0.1400 
     33 CB         -2.6882  -17.9580  -43.1572 C.3       8 UNK        -0.1800 
     34 N          -0.7986  -18.2353  -44.7467 N.am      8 UNK        -0.5000 
     35 C           0.2267  -17.5756  -44.1900 C.2       7 UNK         0.5000 
     36 O           0.3833  -17.4252  -42.9753 O.2       7 UNK        -0.5000 
     37 CA          1.1952  -16.9203  -45.1956 C.3       7 UNK         0.1400 
     38 CB          0.5027  -15.7544  -45.9194 C.3       7 UNK        -0.1800 
     39 N           2.4160  -16.4044  -44.5823 N.am      7 UNK        -0.5000 
     40 C           3.4043  -17.1368  -44.0547 C.2       6 UNK         0.5000 
     41 O           3.4182  -18.3676  -44.0349 O.2       6 UNK        -0.5000 
     42 CA          4.5921  -16.3598  -43.4620 C.3       6 UNK         0.1400 
     43 CB          5.6165  -16.0331  -44.5608 C.3       6 UNK        -0.1800 
     44 N           4.1618  -15.1113  -42.8303 N.am      6 UNK        -0.5000 
     45 C           4.0058  -14.9361  -41.5110 C.2       5 UNK         0.5000 
     46 O           4.2240  -15.8134  -40.6742 O.2       5 UNK        -0.5000 
     47 CA          3.5483  -13.5428  -41.0319 C.3       5 UNK         0.1400 
     48 CB          4.7618  -12.6930  -40.6243 C.3       5 UNK        -0.1800 
     49 N           2.7756  -12.8106  -42.0356 N.am      5 UNK        -0.5000 
     50 C           1.5060  -13.0830  -42.3649 C.2       4 UNK         0.5000 
     51 O           0.8234  -13.9358  -41.7982 O.2       4 UNK        -0.5000 
     52 CA          0.8926  -12.2757  -43.5274 C.3       4 UNK         0.1400 
     53 CB          0.0424  -11.1169  -42.9853 C.3       4 UNK        -0.1800 
     54 N           1.8560  -11.7381  -44.4942 N.am      4 UNK        -0.5000 
     55 C           2.7400  -12.4380  -45.2159 C.2       3 UNK         0.5000 
     56 O           2.9298  -13.6449  -45.0622 O.2       3 UNK        -0.5000 
     57 CA          3.5441  -11.6526  -46.2747 C.3       3 UNK         0.1400 
     58 CB          4.4974  -12.5577  -47.0761 C.3       3 UNK        -0.1800 
     59 N           2.6799  -10.9382  -47.2173 N.am      3 UNK        -0.5000 
     60 C           2.0054   -9.8058  -46.9738 C.2       2 UNK         0.5000 
     61 O           2.0354   -9.2219  -45.8892 O.2       2 UNK        -0.5000 
     62 CA          1.1535   -9.2241  -48.1204 C.3       2 UNK         0.1400 
     63 CB          1.8340   -7.9805  -48.7135 C.3       2 UNK        -0.1800 
     64 N           0.8883  -10.1767  -49.2029 N.am      2 UNK        -0.5000 
     65 C           0.0174  -11.1919  -49.1291 C.2       1 UNK         0.5000 
     66 O          -0.6652  -11.4377  -48.1301 O.2       1 UNK        -0.5000 
     67 C          -0.1803  -23.3092  -47.0902 C.2       11 UNK         0.5000 
     68 O          -0.1834  -23.7734  -48.2297 O.2       11 UNK        -0.5000 
     69 N          -1.2472  -22.7191  -46.5272 N.am      12 UNK        -0.5000 
     70 CA         -2.5592  -22.6241  -47.1685 C.3       12 UNK         0.1400 
     71 CB         -3.4662  -21.6486  -46.4078 C.3       12 UNK        -0.1800 
     72 C          -3.2320  -23.9971  -47.2929 C.2       12 UNK         0.5000 
     73 O          -3.8140  -24.2855  -48.3365 O.2       12 UNK        -0.5000 
     74 N          -3.1050  -24.8306  -46.2506 N.am      13 UNK        -0.5000 
     75 CA         -3.5757  -26.2154  -46.2377 C.3       13 UNK         0.1400 
     76 CB         -3.4167  -26.8056  -44.8287 C.3       13 UNK        -0.1800 
     77 C          -2.8648  -27.0857  -47.2910 C.2       13 UNK         0.5000 
     78 O          -3.5344  -27.8216  -48.0159 O.2       13 UNK        -0.5000 
     79 N          -1.5350  -26.9446  -47.3974 N.am      14 UNK        -0.5000 
     80 CA         -0.7035  -27.6075  -48.4065 C.3       14 UNK         0.1400 
     81 CB          0.7791  -27.3649  -48.0864 C.3       14 UNK        -0.1800 
     82 C          -1.0292  -27.1618  -49.8460 C.2       14 UNK         0.5000 
     83 O          -1.0422  -27.9938  -50.7535 O.2       14 UNK        -0.5000 
     84 N          -1.3183  -25.8657  -50.0213 N.am      15 UNK        -0.5000 
     85 CA         -1.7472  -25.2570  -51.2827 C.3       15 UNK         0.1400 
     86 CB         -1.5099  -23.7414  -51.1891 C.3       15 UNK        -0.1800 
     87 C          -3.2214  -25.5379  -51.6434 C.2       15 UNK         0.5000 
     88 O          -3.6481  -25.1735  -52.7413 O.2       15 UNK        -0.5000 
     89 N          -3.9834  -26.1203  -50.7034 N.am      16 UNK        -0.5000 
     90 CA         -5.4341  -26.3411  -50.7374 C.3       16 UNK         0.1400 
     91 CB         -5.7885  -27.4331  -51.7670 C.3       16 UNK        -0.1800 
     92 C          -6.2226  -25.0304  -50.9541 C.2       16 UNK         0.5000 
     93 O          -7.2328  -25.0238  -51.6603 O.2       16 UNK        -0.5000 
     94 N          -5.6985  -23.9327  -50.3870 N.am      17 UNK        -0.5000 
     95 CA         -6.0580  -22.5191  -50.5500 C.3       17 UNK         0.1400 
     96 CB         -7.4843  -22.2424  -50.0399 C.3       17 UNK        -0.1800 
     97 C          -5.8638  -21.9682  -51.9782 C.2       17 UNK         0.5000 
     98 O          -5.3160  -20.8773  -52.1373 O.2       17 UNK        -0.5000 
     99 N          -6.3223  -22.7209  -52.9837 N.am      18 UNK        -0.5000 
    100 CA        -6.4001  -22.3467  -54.3921 C.3       18 UNK         0.1400 
    101 CB        -7.1219  -23.4600  -55.1660 C.3       18 UNK        -0.1800 
    102 C         -5.0469  -22.0266  -55.0462 C.2       18 UNK         0.5000 
    103 O         -4.9591  -21.0353  -55.7712 O.2       18 UNK        -0.5000 
    104 N         -4.0148  -22.8432  -54.7827 N.am      19 UNK        -0.5000 
    105 CA        -2.6969  -22.6926  -55.4140 C.3       19 UNK         0.1400 
    106 CB        -1.8866  -23.9876  -55.2529 C.3       19 UNK        -0.1800 
    107 C         -1.9033  -21.4762  -54.8976 C.2       19 UNK         0.5000 
    108 O         -1.0375  -20.9721  -55.6135 O.2       19 UNK        -0.5000 
    109 N         -2.2245  -21.0199  -53.6809 N.am      20 UNK        -0.5000 
    110 CA        -1.6583  -19.8249  -53.0532 C.3       20 UNK         0.1400 
    111 CB        -1.3571  -20.1484  -51.5828 C.3       20 UNK        -0.1800 
    112 C         -2.5846  -18.5972  -53.1881 C.2       20 UNK         0.5000 
    113 O         -2.1840  -17.4991  -52.8020 O.2       20 UNK        -0.5000 
    114 N         -3.7888  -18.8008  -53.7467 N.am      21 UNK        -0.5000 
    115 CA        -4.8585  -17.8243  -53.9732 C.3       21 UNK         0.1400 
    116 CB        -4.4329  -16.7917  -55.0378 C.3       21 UNK        -0.1800 
    117 C         -5.3788  -17.1757  -52.6723 C.2       21 UNK         0.5000 
    118 O         -5.6645  -15.9767  -52.6526 O.2       21 UNK        -0.5000 
    119 N         -5.4824  -17.9784  -51.6058 N.am      22 UNK        -0.5000 
    120 CA        -5.9272  -17.5485  -50.2712 C.3       22 UNK         0.1400 
    121 C         -7.4196  -17.1164  -50.2403 C.2       22 UNK         0.5000 
    122 N         -7.7607  -16.0942  -49.4671 N.am      22 UNK        -0.7600 
    123 O         -8.2781  -17.7283  -50.8725 O.2       22 UNK        -0.5000 
    124 C124       -5.6624  -18.6242  -49.1855 C.3       23 UNK        -0.0398 
    125 S125       -3.9488  -19.2408  -49.1856 S.3       23 UNK        -0.2404 
    126 C126       -3.1070  -18.0141  -48.1407 C.3       23 UNK        -0.0205 
    127 H127       -4.1267  -13.7040  -51.5489 H         1 UNK         0.0600 
    128 H128       -3.1731  -15.1784  -51.3670 H         1 UNK         0.0600 
    129 H129       -3.4976  -14.1592  -49.9623 H         1 UNK         0.0600 
    130 H130       -1.7189  -12.9013  -49.3621 H         1 UNK         0.3000 
    131 H131       -0.1841  -11.3918  -51.2319 H         1 UNK         0.0600 
    132 H132        2.0566  -12.3833  -50.5877 H         1 UNK         0.0800 
    133 H133        1.1060  -13.4045  -51.6071 H         1 UNK         0.0800 
    134 H134        0.0518  -15.4650  -51.1053 H         1 UNK         0.0800 
    135 H135        1.6686  -16.1022  -50.9713 H         1 UNK         0.0800 
    136 H136       -1.7251  -16.0959  -49.4970 H         1 UNK         0.1150 
    137 H137       -1.2021  -19.8865  -47.5662 H         1 UNK         0.1150 
    138 H138        2.1363  -17.9444  -49.4219 H         1 UNK         0.1150 
    139 H139        1.0344  -21.0896  -48.6614 H         1 UNK         0.0800 
    140 H140        2.4542  -20.0881  -48.4716 H         1 UNK         0.0800 
    141 H141        2.6449  -22.4683  -47.3538 H         1 UNK         0.0800 
    142 H142        2.9119  -22.4247  -45.6461 H         1 UNK         0.0800 
    143 H143        1.5823  -24.3636  -46.5809 H         1 UNK         0.0600 
    144 H144        0.8521  -22.9556  -44.1609 H         1 UNK         0.3000 
    145 H145       -0.8179  -25.8393  -42.8108 H         1 UNK         0.0600 
    146 H146        0.9315  -25.6874  -41.0732 H         1 UNK         0.0600 
    147 H147        1.6094  -26.3822  -42.5363 H         1 UNK         0.0600 
    148 H148        1.9451  -24.7034  -42.1298 H         1 UNK         0.0600 
    149 H149       -0.1450  -23.4713  -41.4917 H         1 UNK         0.3000 
    150 H150       -3.2558  -22.3098  -41.4681 H         1 UNK         0.0600 
    151 H151       -1.3466  -22.6331  -39.9083 H         1 UNK         0.0600 
    152 H152       -1.8171  -20.9476  -39.9769 H         1 UNK         0.0600 
    153 H153       -0.3712  -21.4803  -40.8219 H         1 UNK         0.0600 
    154 H154       -3.3300  -20.4141  -42.5932 H         1 UNK         0.3000 
    155 H155       -2.5783  -19.2344  -44.8597 H         1 UNK         0.0600 
    156 H156       -2.9044  -17.0213  -43.6712 H         1 UNK         0.0600 
    157 H157       -2.1401  -17.7195  -42.2452 H         1 UNK         0.0600 
    158 H158       -3.6464  -18.3835  -42.8585 H         1 UNK         0.0600 
    159 H159       -0.7950  -18.3239  -45.7528 H         1 UNK         0.3000 
    160 H160        1.4843  -17.6681  -45.9353 H         1 UNK         0.0600 
    161 H161        0.1581  -14.9964  -45.2168 H         1 UNK         0.0600 
    162 H162       -0.3640  -16.0925  -46.4866 H         1 UNK         0.0600 
    163 H163        1.1804  -15.2734  -46.6233 H         1 UNK         0.0600 
    164 H164        2.5224  -15.3946  -44.5972 H         1 UNK         0.3000 
    165 H165        5.0815  -17.0058  -42.7301 H         1 UNK         0.0600 
    166 H166        5.1869  -15.3986  -45.3371 H         1 UNK         0.0600 
    167 H167        6.4848  -15.5183  -44.1495 H         1 UNK         0.0600 
    168 H168        5.9752  -16.9436  -45.0425 H         1 UNK         0.0600 
    169 H169        3.9005  -14.3601  -43.4587 H         1 UNK         0.3000 
    170 H170        2.9221  -13.6863  -40.1486 H         1 UNK         0.0600 
    171 H171        5.3491  -13.1948  -39.8540 H         1 UNK         0.0600 
    172 H172        5.4237  -12.5040  -41.4704 H         1 UNK         0.0600 
    173 H173        4.4511  -11.7302  -40.2181 H         1 UNK         0.0600 
    174 H174        3.2565  -12.0832  -42.5437 H         1 UNK         0.3000 
    175 H175        0.2318  -12.9508  -44.0729 H         1 UNK         0.0600 
    176 H176        0.6543  -10.3823  -42.4603 H         1 UNK         0.0600 
    177 H177       -0.4826  -10.6026  -43.7906 H         1 UNK         0.0600 
    178 H178       -0.7125  -11.4775  -42.2852 H         1 UNK         0.0600 
    179 H179        1.7801  -10.7473  -44.7040 H         1 UNK         0.3000 
    180 H180        4.1523  -10.9216  -45.7383 H         1 UNK         0.0600 
    181 H181        3.9537  -13.3260  -47.6280 H         1 UNK         0.0600 
    182 H182        5.2039  -13.0637  -46.4171 H         1 UNK         0.0600 
    183 H183        5.0822  -11.9803  -47.7922 H         1 UNK         0.0600 
    184 H184        2.5652  -11.3665  -48.1232 H         1 UNK         0.3000 
    185 H185        0.1985   -8.9154  -47.6897 H         1 UNK         0.0600 
    186 H186        2.0175   -7.2296  -47.9437 H         1 UNK         0.0600 
    187 H187        2.7948   -8.2252  -49.1682 H         1 UNK         0.0600 
    188 H188        1.2095   -7.5142  -49.4759 H         1 UNK         0.0600 
    189 H189        1.4025  -10.0282  -50.0597 H         1 UNK         0.3000 
    190 H190       -1.1758  -22.4069  -45.5691 H         1 UNK         0.3000 
    191 H191       -2.4188  -22.2306  -48.1776 H         1 UNK         0.0600 
    192 H192       -4.4701  -21.6357  -46.8349 H         1 UNK         0.0600 
    193 H193       -3.0837  -20.6349  -46.4788 H         1 UNK         0.0600 
    194 H194       -3.5607  -21.9084  -45.3539 H         1 UNK         0.0600 
    195 H195       -2.6616  -24.4869  -45.4042 H         1 UNK         0.3000 
    196 H196       -4.6403  -26.2036  -46.4805 H         1 UNK         0.0600 
    197 H197       -3.8173  -27.8190  -44.7842 H         1 UNK         0.0600 
    198 H198       -3.9525  -26.2101  -44.0891 H         1 UNK         0.0600 
    199 H199       -2.3716  -26.8536  -44.5246 H         1 UNK         0.0600 
    200 H200       -1.0510  -26.3575  -46.7247 H         1 UNK         0.3000 
    201 H201       -0.8938  -28.6807  -48.3411 H         1 UNK         0.0600 
    202 H202        1.0351  -27.7400  -47.0953 H         1 UNK         0.0600 
    203 H203        1.0289  -26.3042  -48.1174 H         1 UNK         0.0600 
    204 H204        1.4225  -27.8754  -48.8040 H         1 UNK         0.0600 
    205 H205       -1.2143  -25.2340  -49.2340 H         1 UNK         0.3000 
    206 H206       -1.1310  -25.6536  -52.0919 H         1 UNK         0.0600 
    207 H207       -0.4576  -23.5157  -51.0165 H         1 UNK         0.0600 
    208 H208       -1.8014  -23.2368  -52.1079 H         1 UNK         0.0600 
    209 H209       -2.0858  -23.2939  -50.3789 H         1 UNK         0.0600 
    210 H210       -3.5380  -26.3482  -49.8241 H         1 UNK         0.3000 
    211 H211       -5.7130  -26.7081  -49.7487 H         1 UNK         0.0600 
    212 H212       -5.5838  -27.1085  -52.7878 H         1 UNK         0.0600 
    213 H213       -6.8458  -27.6947  -51.7122 H         1 UNK         0.0600 
    214 H214       -5.2195  -28.3447  -51.5844 H         1 UNK         0.0600 
    215 H215       -4.8896  -24.0868  -49.7865 H         1 UNK         0.3000 
    216 H216       -5.3675  -21.9673  -49.9102 H         1 UNK         0.0600 
    217 H217       -8.2351  -22.8005  -50.5994 H         1 UNK         0.0600 
    218 H218       -7.7371  -21.1859  -50.1335 H         1 UNK         0.0600 
    219 H219       -7.5829  -22.5098  -48.9879 H         1 UNK         0.0600 
    220 H220       -6.7409  -23.6118  -52.7272 H         1 UNK         0.3000 
    221 H221       -7.0111  -21.4437  -54.4509 H         1 UNK         0.0600 
    222 H222       -6.5865  -24.4081  -55.0978 H         1 UNK         0.0600 
    223 H223       -8.1297  -23.6174  -54.7813 H         1 UNK         0.0600 
    224 H224       -7.2136  -23.2078  -56.2233 H         1 UNK         0.0600 
    225 H225       -4.1392  -23.6303  -54.1538 H         1 UNK         0.3000 
    226 H226       -2.8561  -22.5399  -56.4838 H         1 UNK         0.0600 
    227 H227       -2.4402  -24.8501  -55.6241 H         1 UNK         0.0600 
    228 H228       -0.9538  -23.9334  -55.8155 H         1 UNK         0.0600 
    229 H229       -1.6257  -24.1791  -54.2138 H         1 UNK         0.0600 
    230 H230       -2.9662  -21.4838  -53.1753 H         1 UNK         0.3000 
    231 H231       -0.7144  -19.5571  -53.5320 H         1 UNK         0.0600 
    232 H232       -2.2320  -20.5494  -51.0727 H         1 UNK         0.0600 
    233 H233       -0.5572  -20.8836  -51.4982 H         1 UNK         0.0600 
    234 H234       -1.0339  -19.2590  -51.0428 H         1 UNK         0.0600 
    235 H235       -4.0155  -19.7457  -54.0243 H         1 UNK         0.3000 
    236 H236       -5.6972  -18.3896  -54.3819 H         1 UNK         0.0600 
    237 H237       -4.0885  -17.2834  -55.9476 H         1 UNK         0.0600 
    238 H238       -5.2686  -16.1480  -55.3145 H         1 UNK         0.0600 
    239 H239       -3.6295  -16.1478  -54.6783 H         1 UNK         0.0600 
    240 H240       -5.2585  -18.9635  -51.7116 H         1 UNK         0.3000 
    241 H241       -5.3267  -16.6728  -50.0174 H         1 UNK         0.0600 
    242 H242       -7.0778  -15.5786  -48.9339 H         1 UNK         0.3800 
    243 H243       -8.7289  -15.8152  -49.4270 H         1 UNK         0.3800 
    244 H244       -5.8974  -18.2376  -48.1923 H         1 UNK         0.0800 
    245 H245       -6.3168  -19.4823  -49.3380 H         1 UNK         0.0800 
    246 H246       -3.2611  -18.2566  -47.0893 H         1 UNK         0.0800 
    247 H247       -3.5492  -17.0297  -48.2996 H         1 UNK         0.0800 
@<TRIPOS>BOND
     1    1    2 1    
     2    1  127 1    
     3    1  128 1    
     4    1  129 1    
     5    2    3 2    
     6    2    4 am   BACKBONE|DICT|INTERRES
     7    4    5 1    
     8    4  130 1    
     9    5    6 1    
    10    5   65 1    
    11    5  131 1    
    12    6    7 1    
    13    6  132 1    
    14    6  133 1    
    15    7    8 1    
    16    8    9 1    
    17    8  134 1    
    18    8  135 1    
    19    9   10 ar   
    20    9   14 ar   
    21   10   11 ar   
    22   10  136 1    
    23   11   12 ar   
    24   11  126 1    
    25   12   13 ar   
    26   12  137 1    
    27   13   14 ar   
    28   13   15 1    
    29   14  138 1    
    30   15   16 1    
    31   15  139 1    
    32   15  140 1    
    33   16   17 1    
    34   17   18 1    
    35   17  141 1    
    36   17  142 1    
    37   18   19 1    
    38   18   67 1    
    39   18  143 1    
    40   19   20 am   BACKBONE|DICT|INTERRES
    41   19  144 1    
    42   20   21 2    
    43   20   22 1    
    44   22   23 1    
    45   22   24 1    
    46   22  145 1    
    47   23  146 1    
    48   23  147 1    
    49   23  148 1    
    50   24   25 am   BACKBONE|DICT|INTERRES
    51   24  149 1    
    52   25   26 2    
    53   25   27 1    
    54   27   28 1    
    55   27   29 1    
    56   27  150 1    
    57   28  151 1    
    58   28  152 1    
    59   28  153 1    
    60   29   30 am   BACKBONE|DICT|INTERRES
    61   29  154 1    
    62   30   31 2    
    63   30   32 1    
    64   32   33 1    
    65   32   34 1    
    66   32  155 1    
    67   33  156 1    
    68   33  157 1    
    69   33  158 1    
    70   34   35 am   BACKBONE|DICT|INTERRES
    71   34  159 1    
    72   35   36 2    
    73   35   37 1    
    74   37   38 1    
    75   37   39 1    
    76   37  160 1    
    77   38  161 1    
    78   38  162 1    
    79   38  163 1    
    80   39   40 am   BACKBONE|DICT|INTERRES
    81   39  164 1    
    82   40   41 2    
    83   40   42 1    
    84   42   43 1    
    85   42   44 1    
    86   42  165 1    
    87   43  166 1    
    88   43  167 1    
    89   43  168 1    
    90   44   45 am   BACKBONE|DICT|INTERRES
    91   44  169 1    
    92   45   46 2    
    93   45   47 1    
    94   47   48 1    
    95   47   49 1    
    96   47  170 1    
    97   48  171 1    
    98   48  172 1    
    99   48  173 1    
   100   49   50 am   BACKBONE|DICT|INTERRES
   101   49  174 1    
   102   50   51 2    
   103   50   52 1    
   104   52   53 1    
   105   52   54 1    
   106   52  175 1    
   107   53  176 1    
   108   53  177 1    
   109   53  178 1    
   110   54   55 am   BACKBONE|DICT|INTERRES
   111   54  179 1    
   112   55   56 2    
   113   55   57 1    
   114   57   58 1    
   115   57   59 1    
   116   57  180 1    
   117   58  181 1    
   118   58  182 1    
   119   58  183 1    
   120   59   60 am   BACKBONE|DICT|INTERRES
   121   59  184 1    
   122   60   61 2    
   123   60   62 1    
   124   62   63 1    
   125   62   64 1    
   126   62  185 1    
   127   63  186 1    
   128   63  187 1    
   129   63  188 1    
   130   64   65 am   BACKBONE|DICT|INTERRES
   131   64  189 1    
   132   65   66 2    
   133   67   68 2    
   134   67   69 am   BACKBONE|DICT|INTERRES
   135   69   70 1    
   136   69  190 1    
   137   70   71 1    
   138   70   72 1    
   139   70  191 1    
   140   71  192 1    
   141   71  193 1    
   142   71  194 1    
   143   72   73 2    
   144   72   74 am   BACKBONE|DICT|INTERRES
   145   74   75 1    
   146   74  195 1    
   147   75   76 1    
   148   75   77 1    
   149   75  196 1    
   150   76  197 1    
   151   76  198 1    
   152   76  199 1    
   153   77   78 2    
   154   77   79 am   BACKBONE|DICT|INTERRES
   155   79   80 1    
   156   79  200 1    
   157   80   81 1    
   158   80   82 1    
   159   80  201 1    
   160   81  202 1    
   161   81  203 1    
   162   81  204 1    
   163   82   83 2    
   164   82   84 am   BACKBONE|DICT|INTERRES
   165   84   85 1    
   166   84  205 1    
   167   85   86 1    
   168   85   87 1    
   169   85  206 1    
   170   86  207 1    
   171   86  208 1    
   172   86  209 1    
   173   87   88 2    
   174   87   89 am   BACKBONE|DICT|INTERRES
   175   89   90 1    
   176   89  210 1    
   177   90   91 1    
   178   90   92 1    
   179   90  211 1    
   180   91  212 1    
   181   91  213 1    
   182   91  214 1    
   183   92   93 2    
   184   92   94 am   BACKBONE|DICT|INTERRES
   185   94   95 1    
   186   94  215 1    
   187   95   96 1    
   188   95   97 1    
   189   95  216 1    
   190   96  217 1    
   191   96  218 1    
   192   96  219 1    
   193   97   98 2    
   194   97   99 am   BACKBONE|DICT|INTERRES
   195   99  100 1    
   196   99  220 1    
   197  100  101 1    
   198  100  102 1    
   199  100  221 1    
   200  101  222 1    
   201  101  223 1    
   202  101  224 1    
   203  102  103 2    
   204  102  104 am   BACKBONE|DICT|INTERRES
   205  104  105 1    
   206  104  225 1    
   207  105  106 1    
   208  105  107 1    
   209  105  226 1    
   210  106  227 1    
   211  106  228 1    
   212  106  229 1    
   213  107  108 2    
   214  107  109 am   BACKBONE|DICT|INTERRES
   215  109  110 1    
   216  109  230 1    
   217  110  111 1    
   218  110  112 1    
   219  110  231 1    
   220  111  232 1    
   221  111  233 1    
   222  111  234 1    
   223  112  113 2    
   224  112  114 am   BACKBONE|DICT|INTERRES
   225  114  115 1    
   226  114  235 1    
   227  115  116 1    
   228  115  117 1    
   229  115  236 1    
   230  116  237 1    
   231  116  238 1    
   232  116  239 1    
   233  117  118 2    
   234  117  119 am   BACKBONE|DICT|INTERRES
   235  119  120 1    
   236  119  240 1    
   237  120  121 1    
   238  120  124 1    
   239  120  241 1    
   240  121  122 am   BACKBONE|DICT|INTERRES
   241  121  123 2    
   242  122  242 1    
   243  122  243 1    
   244  124  125 1    
   245  124  244 1    
   246  124  245 1    
   247  125  126 1    
   248  126  246 1    
   249  126  247 1    
@<TRIPOS>SUBSTRUCTURE
     1 UNK         1 GROUP             0       ****    0 ROOT    
