@<TRIPOS>MOLECULE
3R540
247   249    1
SMALL
USER_CHARGES


@<TRIPOS>ATOM
      1 CA         -3.7305   -9.2626  -47.2954 C.3       0 UNK        -0.1800 
      2 C          -2.3744   -9.4533  -47.9597 C.2       0 UNK         0.5000 
      3 O          -1.4023   -8.8089  -47.5662 O.2       0 UNK        -0.5000 
      4 N          -2.3053  -10.3354  -48.9644 N.am      1 UNK        -0.5000 
      5 CA         -1.0832  -10.6724  -49.7064 C.3       1 UNK         0.1400 
      6 C6         -1.4045  -11.2933  -51.0915 C.3       23 UNK        -0.0398 
      7 S7         -2.4542  -12.7920  -51.0297 S.3       23 UNK        -0.2404 
      8 C8         -1.1954  -14.1030  -51.1413 C.3       23 UNK        -0.0205 
      9 C9         -1.8217  -15.4858  -51.0763 C.ar      23 UNK        -0.0193 
     10 C10        -1.9245  -16.2652  -52.2328 C.ar      23 UNK        -0.1150 
     11 C11        -2.4812  -17.5449  -52.1742 C.ar      23 UNK        -0.0193 
     12 C12        -2.9471  -18.0365  -50.9533 C.ar      23 UNK        -0.1150 
     13 C13        -2.8508  -17.2703  -49.7901 C.ar      23 UNK        -0.0193 
     14 C14        -2.2807  -15.9950  -49.8556 C.ar      23 UNK        -0.1150 
     15 C15        -3.3731  -17.8297  -48.4758 C.3       23 UNK        -0.0205 
     16 S16        -2.1655  -18.9552  -47.7120 S.3       23 UNK        -0.2404 
     17 C17        -3.1576  -19.7035  -46.3742 C.3       23 UNK        -0.0398 
     18 CA         -2.7884  -21.1902  -46.1407 C.3       11 UNK         0.1400 
     19 N          -1.4427  -21.3352  -45.5735 N.am      11 UNK        -0.5000 
     20 C          -0.7489  -22.4787  -45.4936 C.2       10 UNK         0.5000 
     21 O          -1.1590  -23.5638  -45.9037 O.2       10 UNK        -0.5000 
     22 CA          0.6103  -22.4089  -44.7727 C.3       10 UNK         0.1400 
     23 CB          1.6952  -21.8340  -45.6955 C.3       10 UNK        -0.1800 
     24 N           0.5497  -21.6398  -43.5260 N.am      10 UNK        -0.5000 
     25 C          -0.2047  -21.9807  -42.4705 C.2       9 UNK         0.5000 
     26 O          -0.9065  -22.9896  -42.4372 O.2       9 UNK        -0.5000 
     27 CA         -0.2242  -21.0202  -41.2700 C.3       9 UNK         0.1400 
     28 CB          1.0217  -21.2173  -40.3942 C.3       9 UNK        -0.1800 
     29 N          -0.3339  -19.6205  -41.6754 N.am      9 UNK        -0.5000 
     30 C          -1.3948  -19.0878  -42.2995 C.2       8 UNK         0.5000 
     31 O          -2.4311  -19.7069  -42.5390 O.2       8 UNK        -0.5000 
     32 CA         -1.2521  -17.6345  -42.7916 C.3       8 UNK         0.1400 
     33 CB         -1.5260  -16.6402  -41.6552 C.3       8 UNK        -0.1800 
     34 N           0.0605  -17.3647  -43.3833 N.am      8 UNK        -0.5000 
     35 C           0.5413  -18.0065  -44.4587 C.2       7 UNK         0.5000 
     36 O          -0.0831  -18.8681  -45.0737 O.2       7 UNK        -0.5000 
     37 CA          1.9747  -17.6703  -44.8933 C.3       7 UNK         0.1400 
     38 CB          1.9976  -16.3987  -45.7426 C.3       7 UNK        -0.1800 
     39 N           2.8708  -17.5128  -43.7508 N.am      7 UNK        -0.5000 
     40 C           3.2812  -18.5306  -42.9831 C.2       6 UNK         0.5000 
     41 O           2.9759  -19.7072  -43.1833 O.2       6 UNK        -0.5000 
     42 CA          4.1365  -18.1585  -41.7596 C.3       6 UNK         0.1400 
     43 CB          5.5780  -17.8312  -42.1780 C.3       6 UNK        -0.1800 
     44 N           3.5784  -17.0302  -41.0126 N.am      6 UNK        -0.5000 
     45 C           2.3975  -17.0515  -40.3788 C.2       5 UNK         0.5000 
     46 O           1.6586  -18.0335  -40.3445 O.2       5 UNK        -0.5000 
     47 CA          1.9475  -15.7543  -39.6851 C.3       5 UNK         0.1400 
     48 CB          2.4262  -15.7352  -38.2258 C.3       5 UNK        -0.1800 
     49 N           2.3936  -14.5308  -40.3520 N.am      5 UNK        -0.5000 
     50 C           2.0909  -14.1612  -41.6042 C.2       4 UNK         0.5000 
     51 O           1.4261  -14.8554  -42.3795 O.2       4 UNK        -0.5000 
     52 CA          2.5908  -12.7650  -42.0396 C.3       4 UNK         0.1400 
     53 CB          3.8534  -12.2947  -41.2810 C.3       4 UNK        -0.1800 
     54 N           2.8020  -12.6440  -43.4828 N.am      4 UNK        -0.5000 
     55 C           3.6419  -13.3486  -44.2505 C.2       3 UNK         0.5000 
     56 O           4.3322  -14.2855  -43.8417 O.2       3 UNK        -0.5000 
     57 CA          3.6914  -12.9266  -45.7348 C.3       3 UNK         0.1400 
     58 CB          4.8718  -13.5622  -46.4913 C.3       3 UNK        -0.1800 
     59 N           2.4498  -13.2590  -46.4330 N.am      3 UNK        -0.5000 
     60 C           1.2811  -12.6185  -46.3089 C.2       2 UNK         0.5000 
     61 O           1.1197  -11.6083  -45.6194 O.2       2 UNK        -0.5000 
     62 CA          0.0858  -13.2361  -47.0583 C.3       2 UNK         0.1400 
     63 CB         -0.9062  -13.8777  -46.0735 C.3       2 UNK        -0.1800 
     64 N          -0.6296  -12.2607  -47.8775 N.am      2 UNK        -0.5000 
     65 C          -0.1143  -11.5725  -48.9067 C.2       1 UNK         0.5000 
     66 O           1.0600  -11.6607  -49.2687 O.2       1 UNK        -0.5000 
     67 C          -3.8817  -21.9067  -45.3150 C.2       11 UNK         0.5000 
     68 O          -4.9505  -22.1853  -45.8606 O.2       11 UNK        -0.5000 
     69 N          -3.6160  -22.1903  -44.0328 N.am      12 UNK        -0.5000 
     70 CA         -4.4797  -22.9991  -43.1750 C.3       12 UNK         0.1400 
     71 CB         -4.3342  -22.5375  -41.7164 C.3       12 UNK        -0.1800 
     72 C          -4.1598  -24.4987  -43.3122 C.2       12 UNK         0.5000 
     73 O          -5.0834  -25.3115  -43.3677 O.2       12 UNK        -0.5000 
     74 N          -2.8635  -24.8390  -43.3547 N.am      13 UNK        -0.5000 
     75 CA         -2.3493  -26.2073  -43.4330 C.3       13 UNK         0.1400 
     76 CB         -0.8336  -26.1954  -43.1817 C.3       13 UNK        -0.1800 
     77 C          -2.6665  -26.9146  -44.7622 C.2       13 UNK         0.5000 
     78 O          -2.9605  -28.1111  -44.7511 O.2       13 UNK        -0.5000 
     79 N          -2.6099  -26.1722  -45.8725 N.am      14 UNK        -0.5000 
     80 CA         -2.9651  -26.6359  -47.2087 C.3       14 UNK         0.1400 
     81 CB         -1.6844  -26.8693  -48.0259 C.3       14 UNK        -0.1800 
     82 C          -3.8529  -25.5793  -47.8726 C.2       14 UNK         0.5000 
     83 O          -3.6417  -24.3849  -47.6529 O.2       14 UNK        -0.5000 
     84 N          -4.8122  -26.0337  -48.6902 N.am      15 UNK        -0.5000 
     85 CA         -5.7659  -25.2030  -49.4293 C.3       15 UNK         0.1400 
     86 CB         -6.7040  -26.1109  -50.2405 C.3       15 UNK        -0.1800 
     87 C          -5.0479  -24.1919  -50.3398 C.2       15 UNK         0.5000 
     88 O          -4.4012  -24.5982  -51.3080 O.2       15 UNK        -0.5000 
     89 N          -5.1092  -22.9085  -49.9551 N.am      16 UNK        -0.5000 
     90 CA         -4.4036  -21.7751  -50.5647 C.3       16 UNK         0.1400 
     91 CB         -5.0066  -21.4580  -51.9482 C.3       16 UNK        -0.1800 
     92 C          -2.8715  -21.9754  -50.6133 C.2       16 UNK         0.5000 
     93 O          -2.2300  -21.5772  -51.5853 O.2       16 UNK        -0.5000 
     94 N          -2.3246  -22.6572  -49.5937 N.am      17 UNK        -0.5000 
     95 CA         -0.9240  -23.0735  -49.4525 C.3       17 UNK         0.1400 
     96 CB         -0.0064  -21.8481  -49.2608 C.3       17 UNK        -0.1800 
     97 C          -0.4424  -24.0095  -50.5845 C.2       17 UNK         0.5000 
     98 O           0.7585  -24.0795  -50.8485 O.2       17 UNK        -0.5000 
     99 N          -1.3928  -24.6922  -51.2457 N.am      18 UNK        -0.5000 
    100 CA        -1.2344  -25.5000  -52.4595 C.3       18 UNK         0.1400 
    101 CB        -0.3292  -26.7232  -52.2041 C.3       18 UNK        -0.1800 
    102 C         -0.8024  -24.6746  -53.6944 C.2       18 UNK         0.5000 
    103 O         -0.2789  -25.2425  -54.6541 O.2       18 UNK        -0.5000 
    104 N         -1.0479  -23.3575  -53.6639 N.am      19 UNK        -0.5000 
    105 CA        -0.7060  -22.3922  -54.7072 C.3       19 UNK         0.1400 
    106 CB         0.2869  -21.3696  -54.1247 C.3       19 UNK        -0.1800 
    107 C         -1.9811  -21.7240  -55.2537 C.2       19 UNK         0.5000 
    108 O         -1.9648  -20.5357  -55.5731 O.2       19 UNK        -0.5000 
    109 N         -3.0657  -22.5065  -55.3632 N.am      20 UNK        -0.5000 
    110 CA        -4.4406  -22.1018  -55.6926 C.3       20 UNK         0.1400 
    111 CB        -5.3425  -23.3440  -55.6109 C.3       20 UNK        -0.1800 
    112 C         -4.6563  -21.3537  -57.0282 C.2       20 UNK         0.5000 
    113 O         -5.7605  -20.8617  -57.2685 O.2       20 UNK        -0.5000 
    114 N         -3.6059  -21.2235  -57.8497 N.am      21 UNK        -0.5000 
    115 CA        -3.5349  -20.3694  -59.0391 C.3       21 UNK         0.1400 
    116 CB        -2.1612  -20.5613  -59.6999 C.3       21 UNK        -0.1800 
    117 C         -3.7967  -18.8710  -58.7597 C.2       21 UNK         0.5000 
    118 O         -4.1401  -18.1401  -59.6899 O.2       21 UNK        -0.5000 
    119 N         -3.6693  -18.4466  -57.4934 N.am      22 UNK        -0.5000 
    120 CA        -4.1503  -17.1519  -56.9820 C.3       22 UNK         0.1400 
    121 C         -5.6941  -16.9352  -57.0683 C.2       22 UNK         0.5000 
    122 N         -6.5118  -17.9697  -57.2350 N.am      22 UNK        -0.7600 
    123 O         -6.1566  -15.7999  -56.9933 O.2       22 UNK        -0.5000 
    124 C124       -3.6265  -16.8667  -55.5484 C.3       23 UNK        -0.0398 
    125 S125       -4.1151  -18.1415  -54.3280 S.3       23 UNK        -0.2404 
    126 C126       -2.5641  -18.4134  -53.4167 C.3       23 UNK        -0.0205 
    127 H127       -3.6672   -9.5101  -46.2358 H         1 UNK         0.0600 
    128 H128       -4.0499   -8.2244  -47.3858 H         1 UNK         0.0600 
    129 H129       -4.4958   -9.8942  -47.7472 H         1 UNK         0.0600 
    130 H130       -3.1359  -10.8349  -49.2515 H         1 UNK         0.3000 
    131 H131       -0.5451   -9.7404  -49.8933 H         1 UNK         0.0600 
    132 H132       -1.9312  -10.5541  -51.6963 H         1 UNK         0.0800 
    133 H133       -0.4865  -11.5081  -51.6418 H         1 UNK         0.0800 
    134 H134       -0.4756  -14.0053  -50.3290 H         1 UNK         0.0800 
    135 H135       -0.6315  -13.9822  -52.0676 H         1 UNK         0.0800 
    136 H136       -1.5657  -15.8811  -53.1773 H         1 UNK         0.1150 
    137 H137       -3.3782  -19.0243  -50.9064 H         1 UNK         0.1150 
    138 H138       -2.1986  -15.3948  -48.9603 H         1 UNK         0.1150 
    139 H139       -3.6040  -17.0217  -47.7798 H         1 UNK         0.0800 
    140 H140       -4.3088  -18.3601  -48.6586 H         1 UNK         0.0800 
    141 H141       -4.2128  -19.6083  -46.6365 H         1 UNK         0.0800 
    142 H142       -3.0160  -19.1231  -45.4609 H         1 UNK         0.0800 
    143 H143       -2.7813  -21.6885  -47.1101 H         1 UNK         0.0600 
    144 H144       -0.9985  -20.4751  -45.2572 H         1 UNK         0.3000 
    145 H145        0.8993  -23.4293  -44.5134 H         1 UNK         0.0600 
    146 H146        2.6648  -21.8097  -45.1981 H         1 UNK         0.0600 
    147 H147        1.8041  -22.4453  -46.5920 H         1 UNK         0.0600 
    148 H148        1.4592  -20.8206  -46.0190 H         1 UNK         0.0600 
    149 H149        1.1191  -20.8031  -43.4746 H         1 UNK         0.3000 
    150 H150       -1.1019  -21.2622  -40.6670 H         1 UNK         0.0600 
    151 H151        1.1219  -22.2583  -40.0847 H         1 UNK         0.0600 
    152 H152        0.9646  -20.6134  -39.4885 H         1 UNK         0.0600 
    153 H153        1.9347  -20.9409  -40.9226 H         1 UNK         0.0600 
    154 H154        0.4605  -19.0249  -41.4585 H         1 UNK         0.3000 
    155 H155       -2.0000  -17.4723  -43.5706 H         1 UNK         0.0600 
    156 H156       -0.8470  -16.7935  -40.8178 H         1 UNK         0.0600 
    157 H157       -2.5420  -16.7557  -41.2759 H         1 UNK         0.0600 
    158 H158       -1.4184  -15.6095  -41.9939 H         1 UNK         0.0600 
    159 H159        0.6244  -16.6414  -42.9483 H         1 UNK         0.3000 
    160 H160        2.3399  -18.4947  -45.5095 H         1 UNK         0.0600 
    161 H161        2.9935  -16.2185  -46.1457 H         1 UNK         0.0600 
    162 H162        1.7089  -15.5346  -45.1460 H         1 UNK         0.0600 
    163 H163        1.3082  -16.4731  -46.5848 H         1 UNK         0.0600 
    164 H164        3.1378  -16.5694  -43.5012 H         1 UNK         0.3000 
    165 H165        4.1611  -19.0248  -41.0950 H         1 UNK         0.0600 
    166 H166        6.2095  -17.6519  -41.3078 H         1 UNK         0.0600 
    167 H167        6.0200  -18.6585  -42.7348 H         1 UNK         0.0600 
    168 H168        5.6232  -16.9455  -42.8135 H         1 UNK         0.0600 
    169 H169        4.1115  -16.1730  -41.0095 H         1 UNK         0.3000 
    170 H170        0.8570  -15.7430  -39.6807 H         1 UNK         0.0600 
    171 H171        2.0880  -16.6246  -37.6922 H         1 UNK         0.0600 
    172 H172        3.5145  -15.7064  -38.1591 H         1 UNK         0.0600 
    173 H173        2.0330  -14.8698  -37.6920 H         1 UNK         0.0600 
    174 H174        2.9464  -13.8981  -39.7922 H         1 UNK         0.3000 
    175 H175        1.7835  -12.0720  -41.7991 H         1 UNK         0.0600 
    176 H176        4.6759  -13.0039  -41.3830 H         1 UNK         0.0600 
    177 H177        4.1997  -11.3323  -41.6582 H         1 UNK         0.0600 
    178 H178        3.6573  -12.1603  -40.2168 H         1 UNK         0.0600 
    179 H179        2.2054  -11.9747  -43.9590 H         1 UNK         0.3000 
    180 H180        3.8280  -11.8434  -45.7632 H         1 UNK         0.0600 
    181 H181        4.7988  -14.6496  -46.5222 H         1 UNK         0.0600 
    182 H182        5.8198  -13.3117  -46.0136 H         1 UNK         0.0600 
    183 H183        4.9221  -13.2002  -47.5184 H         1 UNK         0.0600 
    184 H184        2.4895  -14.0769  -47.0224 H         1 UNK         0.3000 
    185 H185        0.4537  -14.0176  -47.7264 H         1 UNK         0.0600 
    186 H186       -1.3595  -13.1321  -45.4190 H         1 UNK         0.0600 
    187 H187       -1.7088  -14.3936  -46.6008 H         1 UNK         0.0600 
    188 H188       -0.4166  -14.6128  -45.4349 H         1 UNK         0.0600 
    189 H189       -1.5984  -12.1017  -47.6456 H         1 UNK         0.3000 
    190 H190       -2.7336  -21.8899  -43.6407 H         1 UNK         0.3000 
    191 H191       -5.5224  -22.8508  -43.4640 H         1 UNK         0.0600 
    192 H192       -3.3170  -22.6654  -41.3467 H         1 UNK         0.0600 
    193 H193       -4.9948  -23.1058  -41.0607 H         1 UNK         0.0600 
    194 H194       -4.5962  -21.4846  -41.6101 H         1 UNK         0.0600 
    195 H195       -2.1654  -24.1087  -43.2421 H         1 UNK         0.3000 
    196 H196       -2.8194  -26.7836  -42.6335 H         1 UNK         0.0600 
    197 H197       -0.4216  -27.2046  -43.2199 H         1 UNK         0.0600 
    198 H198       -0.6000  -25.7861  -42.1987 H         1 UNK         0.0600 
    199 H199       -0.3092  -25.5967  -43.9272 H         1 UNK         0.0600 
    200 H200       -2.3660  -25.1864  -45.8077 H         1 UNK         0.3000 
    201 H201       -3.5287  -27.5697  -47.1546 H         1 UNK         0.0600 
    202 H202       -1.0873  -27.6732  -47.5954 H         1 UNK         0.0600 
    203 H203       -1.0612  -25.9760  -48.0605 H         1 UNK         0.0600 
    204 H204       -1.9179  -27.1502  -49.0536 H         1 UNK         0.0600 
    205 H205       -4.8916  -27.0292  -48.8372 H         1 UNK         0.3000 
    206 H206       -6.3686  -24.6583  -48.6997 H         1 UNK         0.0600 
    207 H207       -6.1543  -26.7235  -50.9564 H         1 UNK         0.0600 
    208 H208       -7.2674  -26.7795  -49.5894 H         1 UNK         0.0600 
    209 H209       -7.4280  -25.5198  -50.8029 H         1 UNK         0.0600 
    210 H210       -5.6186  -22.6946  -49.1084 H         1 UNK         0.3000 
    211 H211       -4.5786  -20.9157  -49.9161 H         1 UNK         0.0600 
    212 H212       -4.8214  -22.2645  -52.6572 H         1 UNK         0.0600 
    213 H213       -4.5791  -20.5486  -52.3692 H         1 UNK         0.0600 
    214 H214       -6.0842  -21.3078  -51.8853 H         1 UNK         0.0600 
    215 H215       -2.9452  -23.0258  -48.8772 H         1 UNK         0.3000 
    216 H216       -0.8761  -23.6632  -48.5381 H         1 UNK         0.0600 
    217 H217        0.0229  -21.2189  -50.1508 H         1 UNK         0.0600 
    218 H218        1.0172  -22.1528  -49.0419 H         1 UNK         0.0600 
    219 H219       -0.3413  -21.2336  -48.4262 H         1 UNK         0.0600 
    220 H220       -2.3585  -24.5423  -50.9731 H         1 UNK         0.3000 
    221 H221       -2.2310  -25.8777  -52.6920 H         1 UNK         0.0600 
    222 H222        0.7115  -26.4358  -52.0538 H         1 UNK         0.0600 
    223 H223       -0.6549  -27.2789  -51.3249 H         1 UNK         0.0600 
    224 H224       -0.3563  -27.4119  -53.0491 H         1 UNK         0.0600 
    225 H225       -1.4954  -22.9568  -52.8442 H         1 UNK         0.3000 
    226 H226       -0.2253  -22.8889  -55.5519 H         1 UNK         0.0600 
    227 H227        1.1766  -21.8642  -53.7345 H         1 UNK         0.0600 
    228 H228        0.6165  -20.6614  -54.8857 H         1 UNK         0.0600 
    229 H229       -0.1596  -20.7963  -53.3110 H         1 UNK         0.0600 
    230 H230       -2.9528  -23.4736  -55.0978 H         1 UNK         0.3000 
    231 H231       -4.7551  -21.4051  -54.9141 H         1 UNK         0.0600 
    232 H232       -5.2897  -23.8084  -54.6258 H         1 UNK         0.0600 
    233 H233       -5.0591  -24.0926  -56.3516 H         1 UNK         0.0600 
    234 H234       -6.3876  -23.0860  -55.7877 H         1 UNK         0.0600 
    235 H235       -2.7320  -21.6213  -57.5388 H         1 UNK         0.3000 
    236 H236       -4.3044  -20.7086  -59.7352 H         1 UNK         0.0600 
    237 H237       -2.0767  -19.9641  -60.6088 H         1 UNK         0.0600 
    238 H238       -1.3511  -20.2621  -59.0334 H         1 UNK         0.0600 
    239 H239       -1.9994  -21.6021  -59.9808 H         1 UNK         0.0600 
    240 H240       -3.3483  -19.1048  -56.7939 H         1 UNK         0.3000 
    241 H241       -3.7172  -16.3893  -57.6319 H         1 UNK         0.0600 
    242 H242       -7.5045  -17.8085  -57.2934 H         1 UNK         0.3800 
    243 H243       -6.1577  -18.9199  -57.2775 H         1 UNK         0.3800 
    244 H244       -2.5396  -16.7897  -55.5813 H         1 UNK         0.0800 
    245 H245       -3.9744  -15.8952  -55.1929 H         1 UNK         0.0800 
    246 H246       -2.5156  -19.4632  -53.1284 H         1 UNK         0.0800 
    247 H247       -1.6981  -18.2491  -54.0589 H         1 UNK         0.0800 
@<TRIPOS>BOND
     1    1    2 1    
     2    1  127 1    
     3    1  128 1    
     4    1  129 1    
     5    2    3 2    
     6    2    4 am   BACKBONE|DICT|INTERRES
     7    4    5 1    
     8    4  130 1    
     9    5    6 1    
    10    5   65 1    
    11    5  131 1    
    12    6    7 1    
    13    6  132 1    
    14    6  133 1    
    15    7    8 1    
    16    8    9 1    
    17    8  134 1    
    18    8  135 1    
    19    9   10 ar   
    20    9   14 ar   
    21   10   11 ar   
    22   10  136 1    
    23   11   12 ar   
    24   11  126 1    
    25   12   13 ar   
    26   12  137 1    
    27   13   14 ar   
    28   13   15 1    
    29   14  138 1    
    30   15   16 1    
    31   15  139 1    
    32   15  140 1    
    33   16   17 1    
    34   17   18 1    
    35   17  141 1    
    36   17  142 1    
    37   18   19 1    
    38   18   67 1    
    39   18  143 1    
    40   19   20 am   BACKBONE|DICT|INTERRES
    41   19  144 1    
    42   20   21 2    
    43   20   22 1    
    44   22   23 1    
    45   22   24 1    
    46   22  145 1    
    47   23  146 1    
    48   23  147 1    
    49   23  148 1    
    50   24   25 am   BACKBONE|DICT|INTERRES
    51   24  149 1    
    52   25   26 2    
    53   25   27 1    
    54   27   28 1    
    55   27   29 1    
    56   27  150 1    
    57   28  151 1    
    58   28  152 1    
    59   28  153 1    
    60   29   30 am   BACKBONE|DICT|INTERRES
    61   29  154 1    
    62   30   31 2    
    63   30   32 1    
    64   32   33 1    
    65   32   34 1    
    66   32  155 1    
    67   33  156 1    
    68   33  157 1    
    69   33  158 1    
    70   34   35 am   BACKBONE|DICT|INTERRES
    71   34  159 1    
    72   35   36 2    
    73   35   37 1    
    74   37   38 1    
    75   37   39 1    
    76   37  160 1    
    77   38  161 1    
    78   38  162 1    
    79   38  163 1    
    80   39   40 am   BACKBONE|DICT|INTERRES
    81   39  164 1    
    82   40   41 2    
    83   40   42 1    
    84   42   43 1    
    85   42   44 1    
    86   42  165 1    
    87   43  166 1    
    88   43  167 1    
    89   43  168 1    
    90   44   45 am   BACKBONE|DICT|INTERRES
    91   44  169 1    
    92   45   46 2    
    93   45   47 1    
    94   47   48 1    
    95   47   49 1    
    96   47  170 1    
    97   48  171 1    
    98   48  172 1    
    99   48  173 1    
   100   49   50 am   BACKBONE|DICT|INTERRES
   101   49  174 1    
   102   50   51 2    
   103   50   52 1    
   104   52   53 1    
   105   52   54 1    
   106   52  175 1    
   107   53  176 1    
   108   53  177 1    
   109   53  178 1    
   110   54   55 am   BACKBONE|DICT|INTERRES
   111   54  179 1    
   112   55   56 2    
   113   55   57 1    
   114   57   58 1    
   115   57   59 1    
   116   57  180 1    
   117   58  181 1    
   118   58  182 1    
   119   58  183 1    
   120   59   60 am   BACKBONE|DICT|INTERRES
   121   59  184 1    
   122   60   61 2    
   123   60   62 1    
   124   62   63 1    
   125   62   64 1    
   126   62  185 1    
   127   63  186 1    
   128   63  187 1    
   129   63  188 1    
   130   64   65 am   BACKBONE|DICT|INTERRES
   131   64  189 1    
   132   65   66 2    
   133   67   68 2    
   134   67   69 am   BACKBONE|DICT|INTERRES
   135   69   70 1    
   136   69  190 1    
   137   70   71 1    
   138   70   72 1    
   139   70  191 1    
   140   71  192 1    
   141   71  193 1    
   142   71  194 1    
   143   72   73 2    
   144   72   74 am   BACKBONE|DICT|INTERRES
   145   74   75 1    
   146   74  195 1    
   147   75   76 1    
   148   75   77 1    
   149   75  196 1    
   150   76  197 1    
   151   76  198 1    
   152   76  199 1    
   153   77   78 2    
   154   77   79 am   BACKBONE|DICT|INTERRES
   155   79   80 1    
   156   79  200 1    
   157   80   81 1    
   158   80   82 1    
   159   80  201 1    
   160   81  202 1    
   161   81  203 1    
   162   81  204 1    
   163   82   83 2    
   164   82   84 am   BACKBONE|DICT|INTERRES
   165   84   85 1    
   166   84  205 1    
   167   85   86 1    
   168   85   87 1    
   169   85  206 1    
   170   86  207 1    
   171   86  208 1    
   172   86  209 1    
   173   87   88 2    
   174   87   89 am   BACKBONE|DICT|INTERRES
   175   89   90 1    
   176   89  210 1    
   177   90   91 1    
   178   90   92 1    
   179   90  211 1    
   180   91  212 1    
   181   91  213 1    
   182   91  214 1    
   183   92   93 2    
   184   92   94 am   BACKBONE|DICT|INTERRES
   185   94   95 1    
   186   94  215 1    
   187   95   96 1    
   188   95   97 1    
   189   95  216 1    
   190   96  217 1    
   191   96  218 1    
   192   96  219 1    
   193   97   98 2    
   194   97   99 am   BACKBONE|DICT|INTERRES
   195   99  100 1    
   196   99  220 1    
   197  100  101 1    
   198  100  102 1    
   199  100  221 1    
   200  101  222 1    
   201  101  223 1    
   202  101  224 1    
   203  102  103 2    
   204  102  104 am   BACKBONE|DICT|INTERRES
   205  104  105 1    
   206  104  225 1    
   207  105  106 1    
   208  105  107 1    
   209  105  226 1    
   210  106  227 1    
   211  106  228 1    
   212  106  229 1    
   213  107  108 2    
   214  107  109 am   BACKBONE|DICT|INTERRES
   215  109  110 1    
   216  109  230 1    
   217  110  111 1    
   218  110  112 1    
   219  110  231 1    
   220  111  232 1    
   221  111  233 1    
   222  111  234 1    
   223  112  113 2    
   224  112  114 am   BACKBONE|DICT|INTERRES
   225  114  115 1    
   226  114  235 1    
   227  115  116 1    
   228  115  117 1    
   229  115  236 1    
   230  116  237 1    
   231  116  238 1    
   232  116  239 1    
   233  117  118 2    
   234  117  119 am   BACKBONE|DICT|INTERRES
   235  119  120 1    
   236  119  240 1    
   237  120  121 1    
   238  120  124 1    
   239  120  241 1    
   240  121  122 am   BACKBONE|DICT|INTERRES
   241  121  123 2    
   242  122  242 1    
   243  122  243 1    
   244  124  125 1    
   245  124  244 1    
   246  124  245 1    
   247  125  126 1    
   248  126  246 1    
   249  126  247 1    
@<TRIPOS>SUBSTRUCTURE
     1 UNK         1 GROUP             0       ****    0 ROOT    
