@<TRIPOS>MOLECULE
3R540
247   249    1
SMALL
USER_CHARGES


@<TRIPOS>ATOM
      1 CA          0.1611  -12.1381  -45.3424 C.3       0 UNK        -0.1800 
      2 C          -0.5771  -13.4663  -45.2841 C.2       0 UNK         0.5000 
      3 O          -0.7516  -14.0275  -44.2019 O.2       0 UNK        -0.5000 
      4 N          -1.0191  -13.9525  -46.4523 N.am      1 UNK        -0.5000 
      5 CA         -1.6873  -15.2426  -46.6896 C.3       1 UNK         0.1400 
      6 C6         -2.0376  -15.4233  -48.1886 C.3       23 UNK        -0.0398 
      7 S7         -0.5589  -15.5045  -49.2558 S.3       23 UNK        -0.2404 
      8 C8         -1.0512  -16.8238  -50.4100 C.3       23 UNK        -0.0205 
      9 C9          0.0833  -17.2522  -51.3259 C.ar      23 UNK        -0.0193 
     10 C10        -0.0066  -17.0589  -52.7072 C.ar      23 UNK        -0.1150 
     11 C11         1.0242  -17.4694  -53.5586 C.ar      23 UNK        -0.0193 
     12 C12         2.1548  -18.0846  -53.0015 C.ar      23 UNK        -0.1150 
     13 C13         2.2575  -18.2872  -51.6221 C.ar      23 UNK        -0.0193 
     14 C14         1.2157  -17.8691  -50.7904 C.ar      23 UNK        -0.1150 
     15 C15         3.5140  -18.9196  -51.0389 C.3       23 UNK        -0.0205 
     16 S16         3.2612  -20.6596  -50.5637 S.3       23 UNK        -0.2404 
     17 C17         2.8509  -20.4796  -48.7947 C.3       23 UNK        -0.0398 
     18 CA          1.8977  -21.5626  -48.2376 C.3       11 UNK         0.1400 
     19 N           1.8518  -21.5016  -46.7748 N.am      11 UNK        -0.5000 
     20 C           1.3486  -22.4493  -45.9728 C.2       10 UNK         0.5000 
     21 O           0.9324  -23.5372  -46.3705 O.2       10 UNK        -0.5000 
     22 CA          1.2653  -22.1053  -44.4732 C.3       10 UNK         0.1400 
     23 CB          2.6007  -22.3965  -43.7727 C.3       10 UNK        -0.1800 
     24 N           0.8784  -20.7116  -44.2387 N.am      10 UNK        -0.5000 
     25 C          -0.3159  -20.1957  -44.5629 C.2       9 UNK         0.5000 
     26 O          -1.2390  -20.8695  -45.0194 O.2       9 UNK        -0.5000 
     27 CA         -0.4932  -18.6724  -44.4079 C.3       9 UNK         0.1400 
     28 CB         -0.8751  -18.2958  -42.9704 C.3       9 UNK        -0.1800 
     29 N           0.6957  -17.9185  -44.8063 N.am      9 UNK        -0.5000 
     30 C           1.1810  -17.8706  -46.0540 C.2       8 UNK         0.5000 
     31 O           0.6516  -18.4281  -47.0109 O.2       8 UNK        -0.5000 
     32 CA          2.5018  -17.1152  -46.2639 C.3       8 UNK         0.1400 
     33 CB          2.2585  -15.6057  -46.3749 C.3       8 UNK        -0.1800 
     34 N           3.4528  -17.3873  -45.1885 N.am      8 UNK        -0.5000 
     35 C           4.0612  -18.5675  -45.0071 C.2       7 UNK         0.5000 
     36 O           3.9077  -19.5365  -45.7506 O.2       7 UNK        -0.5000 
     37 CA          4.9552  -18.6958  -43.7609 C.3       7 UNK         0.1400 
     38 CB          6.3523  -18.1192  -44.0331 C.3       7 UNK        -0.1800 
     39 N           4.3761  -18.0380  -42.5882 N.am      7 UNK        -0.5000 
     40 C           3.2572  -18.4453  -41.9729 C.2       6 UNK         0.5000 
     41 O           2.6109  -19.4344  -42.3144 O.2       6 UNK        -0.5000 
     42 CA          2.7504  -17.5763  -40.8089 C.3       6 UNK         0.1400 
     43 CB          3.4457  -17.9702  -39.4973 C.3       6 UNK        -0.1800 
     44 N           2.9143  -16.1377  -41.0350 N.am      6 UNK        -0.5000 
     45 C           2.3302  -15.4520  -42.0259 C.2       5 UNK         0.5000 
     46 O           1.6492  -15.9717  -42.9113 O.2       5 UNK        -0.5000 
     47 CA          2.5349  -13.9345  -42.0266 C.3       5 UNK         0.1400 
     48 CB          3.2751  -13.4586  -43.2861 C.3       5 UNK        -0.1800 
     49 N           1.2166  -13.3162  -41.9602 N.am      5 UNK        -0.5000 
     50 C           0.8640  -12.3764  -41.0764 C.2       4 UNK         0.5000 
     51 O           1.6608  -11.8153  -40.3222 O.2       4 UNK        -0.5000 
     52 CA         -0.6301  -12.0059  -40.9868 C.3       4 UNK         0.1400 
     53 CB         -0.9298  -10.7515  -41.8214 C.3       4 UNK        -0.1800 
     54 N          -1.5703  -13.0652  -41.3666 N.am      4 UNK        -0.5000 
     55 C          -1.6633  -14.2811  -40.8051 C.2       3 UNK         0.5000 
     56 O          -0.8869  -14.7016  -39.9468 O.2       3 UNK        -0.5000 
     57 CA         -2.8500  -15.1617  -41.2363 C.3       3 UNK         0.1400 
     58 CB         -3.9306  -15.0588  -40.1331 C.3       3 UNK        -0.1800 
     59 N          -3.3401  -14.7722  -42.5706 N.am      3 UNK        -0.5000 
     60 C          -4.5401  -15.0161  -43.1235 C.2       2 UNK         0.5000 
     61 O          -5.4435  -15.6570  -42.5867 O.2       2 UNK        -0.5000 
     62 CA         -4.7898  -14.4403  -44.5314 C.3       2 UNK         0.1400 
     63 CB         -5.3762  -13.0234  -44.4331 C.3       2 UNK        -0.1800 
     64 N          -3.5960  -14.4020  -45.3737 N.am      2 UNK        -0.5000 
     65 C          -2.9497  -15.4824  -45.8325 C.2       1 UNK         0.5000 
     66 O          -3.3162  -16.6369  -45.6145 O.2       1 UNK        -0.5000 
     67 C           0.4826  -21.5015  -48.8606 C.2       11 UNK         0.5000 
     68 O           0.2284  -22.2015  -49.8390 O.2       11 UNK        -0.5000 
     69 N          -0.4199  -20.7052  -48.2667 N.am      12 UNK        -0.5000 
     70 CA         -1.8329  -20.6149  -48.6378 C.3       12 UNK         0.1400 
     71 CB         -2.4969  -19.4416  -47.8944 C.3       12 UNK        -0.1800 
     72 C          -2.6019  -21.9153  -48.3499 C.2       12 UNK         0.5000 
     73 O          -3.4111  -22.3353  -49.1772 O.2       12 UNK        -0.5000 
     74 N          -2.3239  -22.5194  -47.1868 N.am      13 UNK        -0.5000 
     75 CA         -2.9350  -23.7344  -46.6448 C.3       13 UNK         0.1400 
     76 CB         -2.6716  -24.9416  -47.5726 C.3       13 UNK        -0.1800 
     77 C          -4.4310  -23.5548  -46.3021 C.2       13 UNK         0.5000 
     78 O          -4.9414  -22.4302  -46.2766 O.2       13 UNK        -0.5000 
     79 N          -5.1035  -24.6743  -45.9997 N.am      14 UNK        -0.5000 
     80 CA         -6.5194  -24.7438  -45.6353 C.3       14 UNK         0.1400 
     81 CB         -6.8918  -26.2029  -45.3317 C.3       14 UNK        -0.1800 
     82 C          -7.4267  -24.1698  -46.7375 C.2       14 UNK         0.5000 
     83 O          -7.2833  -24.5496  -47.9016 O.2       14 UNK        -0.5000 
     84 N          -8.3073  -23.2356  -46.3508 N.am      15 UNK        -0.5000 
     85 CA         -9.2503  -22.4965  -47.2036 C.3       15 UNK         0.1400 
     86 CB        -10.3398  -23.4481  -47.7413 C.3       15 UNK        -0.1800 
     87 C          -8.5828  -21.6775  -48.3343 C.2       15 UNK         0.5000 
     88 O          -9.2553  -21.3263  -49.3050 O.2       15 UNK        -0.5000 
     89 N          -7.2748  -21.4035  -48.1981 N.am      16 UNK        -0.5000 
     90 CA         -6.3869  -20.7935  -49.1923 C.3       16 UNK         0.1400 
     91 CB         -6.7652  -19.3199  -49.4474 C.3       16 UNK        -0.1800 
     92 C          -6.2680  -21.6215  -50.4940 C.2       16 UNK         0.5000 
     93 O          -6.0301  -21.0547  -51.5610 O.2       16 UNK        -0.5000 
     94 N          -6.4320  -22.9500  -50.3987 N.am      17 UNK        -0.5000 
     95 CA         -6.4436  -23.8681  -51.5399 C.3       17 UNK         0.1400 
     96 CB         -6.8612  -25.2659  -51.0606 C.3       17 UNK        -0.1800 
     97 C          -5.1112  -23.9417  -52.3095 C.2       17 UNK         0.5000 
     98 O          -5.1290  -24.1189  -53.5281 O.2       17 UNK        -0.5000 
     99 N          -3.9847  -23.7908  -51.6015 N.am      18 UNK        -0.5000 
    100 CA        -2.6430  -23.8194  -52.1823 C.3       18 UNK         0.1400 
    101 CB        -1.6724  -24.4910  -51.2012 C.3       18 UNK        -0.1800 
    102 C         -2.1548  -22.4248  -52.6182 C.2       18 UNK         0.5000 
    103 O         -1.1721  -22.3468  -53.3551 O.2       18 UNK        -0.5000 
    104 N         -2.8692  -21.3510  -52.2422 N.am      19 UNK        -0.5000 
    105 CA        -2.6163  -19.9906  -52.7337 C.3       19 UNK         0.1400 
    106 CB        -3.4624  -18.9748  -51.9512 C.3       19 UNK        -0.1800 
    107 C         -2.9059  -19.8569  -54.2406 C.2       19 UNK         0.5000 
    108 O         -2.2219  -19.1010  -54.9289 O.2       19 UNK        -0.5000 
    109 N         -3.8968  -20.6204  -54.7248 N.am      20 UNK        -0.5000 
    110 CA        -4.2438  -20.7389  -56.1405 C.3       20 UNK         0.1400 
    111 CB        -5.6058  -21.4381  -56.2657 C.3       20 UNK        -0.1800 
    112 C         -3.1705  -21.4906  -56.9513 C.2       20 UNK         0.5000 
    113 O         -2.9598  -21.1680  -58.1210 O.2       20 UNK        -0.5000 
    114 N         -2.5058  -22.4663  -56.3151 N.am      21 UNK        -0.5000 
    115 CA        -1.3712  -23.1968  -56.8807 C.3       21 UNK         0.1400 
    116 CB        -1.1752  -24.5184  -56.1209 C.3       21 UNK        -0.1800 
    117 C         -0.0847  -22.3510  -56.8632 C.2       21 UNK         0.5000 
    118 O          0.6753  -22.3901  -57.8312 O.2       21 UNK        -0.5000 
    119 N          0.1148  -21.5853  -55.7800 N.am      22 UNK        -0.5000 
    120 CA         1.2381  -20.6570  -55.5687 C.3       22 UNK         0.1400 
    121 C          2.6124  -21.3695  -55.3578 C.2       22 UNK         0.5000 
    122 N          2.6324  -22.6113  -54.8875 N.am      22 UNK        -0.7600 
    123 O          3.6740  -20.8046  -55.6047 O.2       22 UNK        -0.5000 
    124 C124        1.2460  -19.5230  -56.6356 C.3       23 UNK        -0.0398 
    125 S125        2.1069  -17.9886  -56.1464 S.3       23 UNK        -0.2404 
    126 C126        0.8856  -17.1767  -55.0556 C.3       23 UNK        -0.0205 
    127 H127        0.8492  -12.0412  -44.5035 H         1 UNK         0.0600 
    128 H128       -0.5480  -11.3118  -45.3008 H         1 UNK         0.0600 
    129 H129        0.7397  -12.0505  -46.2622 H         1 UNK         0.0600 
    130 H130       -0.8311  -13.4220  -47.2912 H         1 UNK         0.3000 
    131 H131       -0.9791  -16.0212  -46.4068 H         1 UNK         0.0600 
    132 H132       -2.6689  -14.6037  -48.5365 H         1 UNK         0.0800 
    133 H133       -2.6229  -16.3324  -48.3366 H         1 UNK         0.0800 
    134 H134       -1.9060  -16.4721  -50.9882 H         1 UNK         0.0800 
    135 H135       -1.3846  -17.6996  -49.8586 H         1 UNK         0.0800 
    136 H136       -0.8820  -16.5809  -53.1245 H         1 UNK         0.1150 
    137 H137        2.9742  -18.3981  -53.6314 H         1 UNK         0.1150 
    138 H138        1.2800  -18.0077  -49.7216 H         1 UNK         0.1150 
    139 H139        4.3234  -18.8821  -51.7696 H         1 UNK         0.0800 
    140 H140        3.8615  -18.3377  -50.1839 H         1 UNK         0.0800 
    141 H141        2.4483  -19.4882  -48.6005 H         1 UNK         0.0800 
    142 H142        3.7981  -20.5202  -48.2552 H         1 UNK         0.0800 
    143 H143        2.3185  -22.5358  -48.4995 H         1 UNK         0.0600 
    144 H144        2.2264  -20.6613  -46.3495 H         1 UNK         0.3000 
    145 H145        0.5015  -22.7460  -44.0275 H         1 UNK         0.0600 
    146 H146        2.5241  -22.2353  -42.6973 H         1 UNK         0.0600 
    147 H147        2.9047  -23.4328  -43.9253 H         1 UNK         0.0600 
    148 H148        3.4013  -21.7596  -44.1496 H         1 UNK         0.0600 
    149 H149        1.5681  -20.1154  -43.7898 H         1 UNK         0.3000 
    150 H150       -1.3110  -18.3702  -45.0642 H         1 UNK         0.0600 
    151 H151       -1.8015  -18.7869  -42.6705 H         1 UNK         0.0600 
    152 H152       -1.0293  -17.2204  -42.8810 H         1 UNK         0.0600 
    153 H153       -0.1010  -18.5834  -42.2590 H         1 UNK         0.0600 
    154 H154        1.1558  -17.3730  -44.0815 H         1 UNK         0.3000 
    155 H155        2.9425  -17.4553  -47.2034 H         1 UNK         0.0600 
    156 H156        1.7341  -15.2252  -45.5003 H         1 UNK         0.0600 
    157 H157        1.6467  -15.3749  -47.2466 H         1 UNK         0.0600 
    158 H158        3.1936  -15.0555  -46.4786 H         1 UNK         0.0600 
    159 H159        3.5829  -16.6614  -44.5001 H         1 UNK         0.3000 
    160 H160        5.0623  -19.7593  -43.5366 H         1 UNK         0.0600 
    161 H161        6.3154  -17.0488  -44.2395 H         1 UNK         0.0600 
    162 H162        6.8128  -18.6041  -44.8950 H         1 UNK         0.0600 
    163 H163        7.0153  -18.2745  -43.1818 H         1 UNK         0.0600 
    164 H164        4.8448  -17.2131  -42.2437 H         1 UNK         0.3000 
    165 H165        1.6818  -17.7711  -40.6968 H         1 UNK         0.0600 
    166 H166        3.0238  -17.4300  -38.6496 H         1 UNK         0.0600 
    167 H167        3.3232  -19.0352  -39.2952 H         1 UNK         0.0600 
    168 H168        4.5161  -17.7630  -39.5295 H         1 UNK         0.0600 
    169 H169        3.4557  -15.6359  -40.3458 H         1 UNK         0.3000 
    170 H170        3.1358  -13.6671  -41.1549 H         1 UNK         0.0600 
    171 H171        4.2340  -13.9666  -43.3945 H         1 UNK         0.0600 
    172 H172        2.6978  -13.6434  -44.1900 H         1 UNK         0.0600 
    173 H173        3.4763  -12.3884  -43.2375 H         1 UNK         0.0600 
    174 H174        0.5003  -13.7483  -42.5371 H         1 UNK         0.3000 
    175 H175       -0.8303  -11.7664  -39.9406 H         1 UNK         0.0600 
    176 H176       -0.8159  -10.9426  -42.8877 H         1 UNK         0.0600 
    177 H177       -1.9465  -10.3971  -41.6508 H         1 UNK         0.0600 
    178 H178       -0.2552   -9.9350  -41.5600 H         1 UNK         0.0600 
    179 H179       -2.2701  -12.8056  -42.0442 H         1 UNK         0.3000 
    180 H180       -2.4963  -16.1918  -41.2916 H         1 UNK         0.0600 
    181 H181       -4.6633  -15.8613  -40.2083 H         1 UNK         0.0600 
    182 H182       -4.4603  -14.1065  -40.1746 H         1 UNK         0.0600 
    183 H183       -3.4945  -15.1451  -39.1366 H         1 UNK         0.0600 
    184 H184       -2.6371  -14.3442  -43.1640 H         1 UNK         0.3000 
    185 H185       -5.5263  -15.0796  -45.0231 H         1 UNK         0.0600 
    186 H186       -6.2842  -13.0177  -43.8284 H         1 UNK         0.0600 
    187 H187       -4.6729  -12.3265  -43.9754 H         1 UNK         0.0600 
    188 H188       -5.6411  -12.6365  -45.4172 H         1 UNK         0.0600 
    189 H189       -3.2266  -13.4911  -45.6031 H         1 UNK         0.3000 
    190 H190       -0.1037  -20.0836  -47.5283 H         1 UNK         0.3000 
    191 H191       -1.8697  -20.4206  -49.7099 H         1 UNK         0.0600 
    192 H192       -3.4389  -19.1650  -48.3682 H         1 UNK         0.0600 
    193 H193       -1.8632  -18.5577  -47.8757 H         1 UNK         0.0600 
    194 H194       -2.7229  -19.6892  -46.8572 H         1 UNK         0.0600 
    195 H195       -1.7148  -22.0235  -46.5429 H         1 UNK         0.3000 
    196 H196       -2.4224  -23.9206  -45.7001 H         1 UNK         0.0600 
    197 H197       -3.2835  -24.9032  -48.4745 H         1 UNK         0.0600 
    198 H198       -1.6258  -24.9787  -47.8789 H         1 UNK         0.0600 
    199 H199       -2.8875  -25.8849  -47.0708 H         1 UNK         0.0600 
    200 H200       -4.6200  -25.5576  -46.0632 H         1 UNK         0.3000 
    201 H201       -6.6532  -24.1588  -44.7231 H         1 UNK         0.0600 
    202 H202       -6.7436  -26.8449  -46.2011 H         1 UNK         0.0600 
    203 H203       -7.9392  -26.2851  -45.0383 H         1 UNK         0.0600 
    204 H204       -6.2934  -26.6021  -44.5125 H         1 UNK         0.0600 
    205 H205       -8.3224  -22.9743  -45.3744 H         1 UNK         0.3000 
    206 H206       -9.7391  -21.7676  -46.5558 H         1 UNK         0.0600 
    207 H207      -10.8060  -24.0114  -46.9330 H         1 UNK         0.0600 
    208 H208      -11.1323  -22.8944  -48.2460 H         1 UNK         0.0600 
    209 H209       -9.9340  -24.1630  -48.4580 H         1 UNK         0.0600 
    210 H210       -6.8047  -21.7515  -47.3705 H         1 UNK         0.3000 
    211 H211       -5.3982  -20.7908  -48.7371 H         1 UNK         0.0600 
    212 H212       -6.0084  -18.8222  -50.0544 H         1 UNK         0.0600 
    213 H213       -6.8435  -18.7653  -48.5124 H         1 UNK         0.0600 
    214 H214       -7.7157  -19.2295  -49.9737 H         1 UNK         0.0600 
    215 H215       -6.6279  -23.3580  -49.4905 H         1 UNK         0.3000 
    216 H216       -7.2023  -23.5110  -52.2393 H         1 UNK         0.0600 
    217 H217       -6.1621  -25.6618  -50.3227 H         1 UNK         0.0600 
    218 H218       -6.8990  -25.9715  -51.8916 H         1 UNK         0.0600 
    219 H219       -7.8518  -25.2465  -50.6058 H         1 UNK         0.0600 
    220 H220       -4.0401  -23.5538  -50.6148 H         1 UNK         0.3000 
    221 H221       -2.6538  -24.4361  -53.0834 H         1 UNK         0.0600 
    222 H222       -1.9621  -25.5236  -51.0072 H         1 UNK         0.0600 
    223 H223       -1.6381  -23.9723  -50.2458 H         1 UNK         0.0600 
    224 H224       -0.6576  -24.5060  -51.6007 H         1 UNK         0.0600 
    225 H225       -3.6850  -21.4891  -51.6605 H         1 UNK         0.3000 
    226 H226       -1.5610  -19.7617  -52.5681 H         1 UNK         0.0600 
    227 H227       -4.5261  -19.0939  -52.1522 H         1 UNK         0.0600 
    228 H228       -3.3126  -19.0567  -50.8767 H         1 UNK         0.0600 
    229 H229       -3.2025  -17.9578  -52.2438 H         1 UNK         0.0600 
    230 H230       -4.4223  -21.1911  -54.0776 H         1 UNK         0.3000 
    231 H231       -4.3341  -19.7332  -56.5565 H         1 UNK         0.0600 
    232 H232       -5.5812  -22.4461  -55.8491 H         1 UNK         0.0600 
    233 H233       -5.9073  -21.5215  -57.3106 H         1 UNK         0.0600 
    234 H234       -6.3850  -20.8799  -55.7463 H         1 UNK         0.0600 
    235 H235       -2.7331  -22.6535  -55.3506 H         1 UNK         0.3000 
    236 H236       -1.5987  -23.4399  -57.9209 H         1 UNK         0.0600 
    237 H237       -2.0772  -25.1298  -56.1541 H         1 UNK         0.0600 
    238 H238       -0.3696  -25.1040  -56.5654 H         1 UNK         0.0600 
    239 H239       -0.9192  -24.3555  -55.0743 H         1 UNK         0.0600 
    240 H240       -0.5159  -21.6924  -54.9901 H         1 UNK         0.3000 
    241 H241        1.0192  -20.1931  -54.6075 H         1 UNK         0.0600 
    242 H242        3.5162  -23.0739  -54.7448 H         1 UNK         0.3800 
    243 H243        1.7729  -23.0846  -54.6585 H         1 UNK         0.3800 
    244 H244        0.2215  -19.2513  -56.8952 H         1 UNK         0.0800 
    245 H245        1.6956  -19.8821  -57.5624 H         1 UNK         0.0800 
    246 H246        0.9859  -16.0992  -55.1921 H         1 UNK         0.0800 
    247 H247       -0.1216  -17.4308  -55.3883 H         1 UNK         0.0800 
@<TRIPOS>BOND
     1    1    2 1    
     2    1  127 1    
     3    1  128 1    
     4    1  129 1    
     5    2    3 2    
     6    2    4 am   BACKBONE|DICT|INTERRES
     7    4    5 1    
     8    4  130 1    
     9    5    6 1    
    10    5   65 1    
    11    5  131 1    
    12    6    7 1    
    13    6  132 1    
    14    6  133 1    
    15    7    8 1    
    16    8    9 1    
    17    8  134 1    
    18    8  135 1    
    19    9   10 ar   
    20    9   14 ar   
    21   10   11 ar   
    22   10  136 1    
    23   11   12 ar   
    24   11  126 1    
    25   12   13 ar   
    26   12  137 1    
    27   13   14 ar   
    28   13   15 1    
    29   14  138 1    
    30   15   16 1    
    31   15  139 1    
    32   15  140 1    
    33   16   17 1    
    34   17   18 1    
    35   17  141 1    
    36   17  142 1    
    37   18   19 1    
    38   18   67 1    
    39   18  143 1    
    40   19   20 am   BACKBONE|DICT|INTERRES
    41   19  144 1    
    42   20   21 2    
    43   20   22 1    
    44   22   23 1    
    45   22   24 1    
    46   22  145 1    
    47   23  146 1    
    48   23  147 1    
    49   23  148 1    
    50   24   25 am   BACKBONE|DICT|INTERRES
    51   24  149 1    
    52   25   26 2    
    53   25   27 1    
    54   27   28 1    
    55   27   29 1    
    56   27  150 1    
    57   28  151 1    
    58   28  152 1    
    59   28  153 1    
    60   29   30 am   BACKBONE|DICT|INTERRES
    61   29  154 1    
    62   30   31 2    
    63   30   32 1    
    64   32   33 1    
    65   32   34 1    
    66   32  155 1    
    67   33  156 1    
    68   33  157 1    
    69   33  158 1    
    70   34   35 am   BACKBONE|DICT|INTERRES
    71   34  159 1    
    72   35   36 2    
    73   35   37 1    
    74   37   38 1    
    75   37   39 1    
    76   37  160 1    
    77   38  161 1    
    78   38  162 1    
    79   38  163 1    
    80   39   40 am   BACKBONE|DICT|INTERRES
    81   39  164 1    
    82   40   41 2    
    83   40   42 1    
    84   42   43 1    
    85   42   44 1    
    86   42  165 1    
    87   43  166 1    
    88   43  167 1    
    89   43  168 1    
    90   44   45 am   BACKBONE|DICT|INTERRES
    91   44  169 1    
    92   45   46 2    
    93   45   47 1    
    94   47   48 1    
    95   47   49 1    
    96   47  170 1    
    97   48  171 1    
    98   48  172 1    
    99   48  173 1    
   100   49   50 am   BACKBONE|DICT|INTERRES
   101   49  174 1    
   102   50   51 2    
   103   50   52 1    
   104   52   53 1    
   105   52   54 1    
   106   52  175 1    
   107   53  176 1    
   108   53  177 1    
   109   53  178 1    
   110   54   55 am   BACKBONE|DICT|INTERRES
   111   54  179 1    
   112   55   56 2    
   113   55   57 1    
   114   57   58 1    
   115   57   59 1    
   116   57  180 1    
   117   58  181 1    
   118   58  182 1    
   119   58  183 1    
   120   59   60 am   BACKBONE|DICT|INTERRES
   121   59  184 1    
   122   60   61 2    
   123   60   62 1    
   124   62   63 1    
   125   62   64 1    
   126   62  185 1    
   127   63  186 1    
   128   63  187 1    
   129   63  188 1    
   130   64   65 am   BACKBONE|DICT|INTERRES
   131   64  189 1    
   132   65   66 2    
   133   67   68 2    
   134   67   69 am   BACKBONE|DICT|INTERRES
   135   69   70 1    
   136   69  190 1    
   137   70   71 1    
   138   70   72 1    
   139   70  191 1    
   140   71  192 1    
   141   71  193 1    
   142   71  194 1    
   143   72   73 2    
   144   72   74 am   BACKBONE|DICT|INTERRES
   145   74   75 1    
   146   74  195 1    
   147   75   76 1    
   148   75   77 1    
   149   75  196 1    
   150   76  197 1    
   151   76  198 1    
   152   76  199 1    
   153   77   78 2    
   154   77   79 am   BACKBONE|DICT|INTERRES
   155   79   80 1    
   156   79  200 1    
   157   80   81 1    
   158   80   82 1    
   159   80  201 1    
   160   81  202 1    
   161   81  203 1    
   162   81  204 1    
   163   82   83 2    
   164   82   84 am   BACKBONE|DICT|INTERRES
   165   84   85 1    
   166   84  205 1    
   167   85   86 1    
   168   85   87 1    
   169   85  206 1    
   170   86  207 1    
   171   86  208 1    
   172   86  209 1    
   173   87   88 2    
   174   87   89 am   BACKBONE|DICT|INTERRES
   175   89   90 1    
   176   89  210 1    
   177   90   91 1    
   178   90   92 1    
   179   90  211 1    
   180   91  212 1    
   181   91  213 1    
   182   91  214 1    
   183   92   93 2    
   184   92   94 am   BACKBONE|DICT|INTERRES
   185   94   95 1    
   186   94  215 1    
   187   95   96 1    
   188   95   97 1    
   189   95  216 1    
   190   96  217 1    
   191   96  218 1    
   192   96  219 1    
   193   97   98 2    
   194   97   99 am   BACKBONE|DICT|INTERRES
   195   99  100 1    
   196   99  220 1    
   197  100  101 1    
   198  100  102 1    
   199  100  221 1    
   200  101  222 1    
   201  101  223 1    
   202  101  224 1    
   203  102  103 2    
   204  102  104 am   BACKBONE|DICT|INTERRES
   205  104  105 1    
   206  104  225 1    
   207  105  106 1    
   208  105  107 1    
   209  105  226 1    
   210  106  227 1    
   211  106  228 1    
   212  106  229 1    
   213  107  108 2    
   214  107  109 am   BACKBONE|DICT|INTERRES
   215  109  110 1    
   216  109  230 1    
   217  110  111 1    
   218  110  112 1    
   219  110  231 1    
   220  111  232 1    
   221  111  233 1    
   222  111  234 1    
   223  112  113 2    
   224  112  114 am   BACKBONE|DICT|INTERRES
   225  114  115 1    
   226  114  235 1    
   227  115  116 1    
   228  115  117 1    
   229  115  236 1    
   230  116  237 1    
   231  116  238 1    
   232  116  239 1    
   233  117  118 2    
   234  117  119 am   BACKBONE|DICT|INTERRES
   235  119  120 1    
   236  119  240 1    
   237  120  121 1    
   238  120  124 1    
   239  120  241 1    
   240  121  122 am   BACKBONE|DICT|INTERRES
   241  121  123 2    
   242  122  242 1    
   243  122  243 1    
   244  124  125 1    
   245  124  244 1    
   246  124  245 1    
   247  125  126 1    
   248  126  246 1    
   249  126  247 1    
@<TRIPOS>SUBSTRUCTURE
     1 UNK         1 GROUP             0       ****    0 ROOT    
