@<TRIPOS>MOLECULE
3R540
247   249    1
SMALL
USER_CHARGES


@<TRIPOS>ATOM
      1 CA          2.4259  -14.0037  -52.8596 C.3       0 UNK        -0.1800 
      2 C           2.8092  -12.9418  -51.8381 C.2       0 UNK         0.5000 
      3 O           2.8067  -11.7553  -52.1644 O.2       0 UNK        -0.5000 
      4 N           3.1600  -13.3717  -50.6193 N.am      1 UNK        -0.5000 
      5 CA          3.6314  -12.5378  -49.5073 C.3       1 UNK         0.1400 
      6 C6          4.1743  -13.3724  -48.3090 C.3       23 UNK        -0.0398 
      7 S7          5.2043  -14.8081  -48.7769 S.3       23 UNK        -0.2404 
      8 C8          4.3057  -16.1873  -47.9855 C.3       23 UNK        -0.0205 
      9 C9          3.2912  -16.8594  -48.9052 C.ar      23 UNK        -0.0193 
     10 C10         2.1440  -16.1873  -49.3416 C.ar      23 UNK        -0.1150 
     11 C11         1.2175  -16.8179  -50.1792 C.ar      23 UNK        -0.0193 
     12 C12         1.4263  -18.1508  -50.5491 C.ar      23 UNK        -0.1150 
     13 C13         2.5625  -18.8395  -50.1108 C.ar      23 UNK        -0.0193 
     14 C14         3.4916  -18.1849  -49.2987 C.ar      23 UNK        -0.1150 
     15 C15         2.8172  -20.2788  -50.5373 C.3       23 UNK        -0.0205 
     16 S16         2.6362  -21.4516  -49.1543 S.3       23 UNK        -0.2404 
     17 C17         0.8326  -21.4183  -48.9266 C.3       23 UNK        -0.0398 
     18 CA          0.3153  -22.5578  -48.0176 C.3       11 UNK         0.1400 
     19 N           0.7234  -22.4091  -46.6155 N.am      11 UNK        -0.5000 
     20 C           0.4945  -23.3210  -45.6576 C.2       10 UNK         0.5000 
     21 O          -0.0198  -24.4202  -45.8694 O.2       10 UNK        -0.5000 
     22 CA          0.8403  -22.9196  -44.2110 C.3       10 UNK         0.1400 
     23 CB          2.3460  -23.0521  -43.9383 C.3       10 UNK        -0.1800 
     24 N           0.3881  -21.5662  -43.8837 N.am      10 UNK        -0.5000 
     25 C          -0.8994  -21.1925  -43.8381 C.2       9 UNK         0.5000 
     26 O          -1.8396  -21.9695  -44.0014 O.2       9 UNK        -0.5000 
     27 CA         -1.1895  -19.6948  -43.6244 C.3       9 UNK         0.1400 
     28 CB         -1.1614  -19.3326  -42.1325 C.3       9 UNK        -0.1800 
     29 N          -0.2631  -18.8332  -44.3566 N.am      9 UNK        -0.5000 
     30 C          -0.1511  -18.7970  -45.6915 C.2       8 UNK         0.5000 
     31 O          -0.8619  -19.4413  -46.4597 O.2       8 UNK        -0.5000 
     32 CA          0.9812  -17.9347  -46.2637 C.3       8 UNK         0.1400 
     33 CB          0.5592  -16.4653  -46.3058 C.3       8 UNK        -0.1800 
     34 N           2.2201  -18.0731  -45.5007 N.am      8 UNK        -0.5000 
     35 C           2.9400  -19.2016  -45.4371 C.2       7 UNK         0.5000 
     36 O           2.6474  -20.2326  -46.0390 O.2       7 UNK        -0.5000 
     37 CA          4.1574  -19.1916  -44.4956 C.3       7 UNK         0.1400 
     38 CB          5.3881  -18.5991  -45.1966 C.3       7 UNK        -0.1800 
     39 N           3.8982  -18.4482  -43.2625 N.am      7 UNK        -0.5000 
     40 C           3.0275  -18.8317  -42.3184 C.2       6 UNK         0.5000 
     41 O           2.3970  -19.8883  -42.3588 O.2       6 UNK        -0.5000 
     42 CA          2.7853  -17.8371  -41.1672 C.3       6 UNK         0.1400 
     43 CB          3.8418  -18.0131  -40.0664 C.3       6 UNK        -0.1800 
     44 N           2.7730  -16.4395  -41.6156 N.am      6 UNK        -0.5000 
     45 C           1.8537  -15.9254  -42.4437 C.2       5 UNK         0.5000 
     46 O           0.9290  -16.5869  -42.9185 O.2       5 UNK        -0.5000 
     47 CA          2.0375  -14.4505  -42.8515 C.3       5 UNK         0.1400 
     48 CB          2.9451  -14.3400  -44.0875 C.3       5 UNK        -0.1800 
     49 N           0.7632  -13.7856  -43.1332 N.am      5 UNK        -0.5000 
     50 C          -0.1411  -13.4692  -42.1937 C.2       4 UNK         0.5000 
     51 O           0.0243  -13.6969  -40.9938 O.2       4 UNK        -0.5000 
     52 CA         -1.4303  -12.7458  -42.6371 C.3       4 UNK         0.1400 
     53 CB         -1.3728  -11.2615  -42.2414 C.3       4 UNK        -0.1800 
     54 N          -1.6976  -12.8307  -44.0719 N.am      4 UNK        -0.5000 
     55 C          -2.1814  -13.9076  -44.7035 C.2       3 UNK         0.5000 
     56 O          -2.4945  -14.9504  -44.1294 O.2       3 UNK        -0.5000 
     57 CA         -2.3501  -13.8066  -46.2350 C.3       3 UNK         0.1400 
     58 CB         -3.8337  -13.6745  -46.6117 C.3       3 UNK        -0.1800 
     59 N          -1.5986  -12.7200  -46.8791 N.am      3 UNK        -0.5000 
     60 C          -0.2639  -12.6279  -46.9036 C.2       2 UNK         0.5000 
     61 O           0.4831  -13.3826  -46.2771 O.2       2 UNK        -0.5000 
     62 CA          0.3529  -11.5031  -47.7442 C.3       2 UNK         0.1400 
     63 CB          0.7468  -10.3385  -46.8118 C.3       2 UNK        -0.1800 
     64 N           1.5041  -12.1110  -48.4055 N.am      2 UNK        -0.5000 
     65 C           2.5436  -11.5480  -49.0320 C.2       1 UNK         0.5000 
     66 O           2.6706  -10.3404  -49.2381 O.2       1 UNK        -0.5000 
     67 C          -1.2146  -22.6905  -48.1518 C.2       11 UNK         0.5000 
     68 O          -1.6810  -23.5909  -48.8495 O.2       11 UNK        -0.5000 
     69 N          -1.9646  -21.8220  -47.4584 N.am      12 UNK        -0.5000 
     70 CA         -3.4260  -21.8272  -47.4182 C.3       12 UNK         0.1400 
     71 CB         -3.9360  -20.6371  -46.5926 C.3       12 UNK        -0.1800 
     72 C          -3.9971  -23.1435  -46.8696 C.2       12 UNK         0.5000 
     73 O          -4.9176  -23.6923  -47.4710 O.2       12 UNK        -0.5000 
     74 N          -3.4195  -23.6491  -45.7716 N.am      13 UNK        -0.5000 
     75 CA         -3.7812  -24.9299  -45.1645 C.3       13 UNK         0.1400 
     76 CB         -3.0315  -25.0981  -43.8343 C.3       13 UNK        -0.1800 
     77 C          -3.5222  -26.1302  -46.0942 C.2       13 UNK         0.5000 
     78 O          -4.3587  -27.0313  -46.1649 O.2       13 UNK        -0.5000 
     79 N          -2.3859  -26.1107  -46.8040 N.am      14 UNK        -0.5000 
     80 CA         -1.9930  -27.1438  -47.7619 C.3       14 UNK         0.1400 
     81 CB         -0.5097  -26.9658  -48.1213 C.3       14 UNK        -0.1800 
     82 C          -2.8643  -27.1522  -49.0324 C.2       14 UNK         0.5000 
     83 O          -3.2624  -28.2245  -49.4886 O.2       14 UNK        -0.5000 
     84 N          -3.1403  -25.9625  -49.5810 N.am      15 UNK        -0.5000 
     85 CA         -3.8563  -25.7737  -50.8452 C.3       15 UNK         0.1400 
     86 CB         -3.2971  -24.5207  -51.5329 C.3       15 UNK        -0.1800 
     87 C          -5.3831  -25.6441  -50.6896 C.2       15 UNK         0.5000 
     88 O          -6.0610  -25.4216  -51.6938 O.2       15 UNK        -0.5000 
     89 N          -5.8966  -25.7166  -49.4524 N.am      16 UNK        -0.5000 
     90 CA         -7.2969  -25.4896  -49.0624 C.3       16 UNK         0.1400 
     91 CB         -8.1988  -26.6261  -49.5864 C.3       16 UNK        -0.1800 
     92 C          -7.8044  -24.0832  -49.4600 C.2       16 UNK         0.5000 
     93 O          -8.9548  -23.9234  -49.8708 O.2       16 UNK        -0.5000 
     94 N          -6.8994  -23.0997  -49.3565 N.am      17 UNK        -0.5000 
     95 CA         -7.0237  -21.6838  -49.7157 C.3       17 UNK         0.1400 
     96 CB         -8.0291  -20.9792  -48.7832 C.3       17 UNK        -0.1800 
     97 C          -7.3105  -21.4091  -51.2106 C.2       17 UNK         0.5000 
     98 O          -7.6865  -20.2869  -51.5525 O.2       17 UNK        -0.5000 
     99 N          -7.1348  -22.4171  -52.0773 N.am      18 UNK        -0.5000 
    100 CA        -7.3912  -22.3292  -53.5116 C.3       18 UNK         0.1400 
    101 CB        -8.0181  -23.6495  -53.9994 C.3       18 UNK        -0.1800 
    102 C         -6.0982  -21.9613  -54.2572 C.2       18 UNK         0.5000 
    103 O         -5.8424  -20.7782  -54.4862 O.2       18 UNK        -0.5000 
    104 N         -5.3010  -22.9775  -54.6175 N.am      19 UNK        -0.5000 
    105 CA        -4.1194  -22.8756  -55.4838 C.3       19 UNK         0.1400 
    106 CB        -3.5988  -24.2910  -55.7797 C.3       19 UNK        -0.1800 
    107 C         -2.9815  -21.9846  -54.9458 C.2       19 UNK         0.5000 
    108 O         -2.1607  -21.5124  -55.7330 O.2       19 UNK        -0.5000 
    109 N         -2.9562  -21.7609  -53.6264 N.am      20 UNK        -0.5000 
    110 CA        -2.0080  -20.8781  -52.9496 C.3       20 UNK         0.1400 
    111 CB        -2.0120  -21.2008  -51.4478 C.3       20 UNK        -0.1800 
    112 C         -2.2992  -19.3810  -53.1505 C.2       20 UNK         0.5000 
    113 O         -1.4176  -18.5713  -52.8665 O.2       20 UNK        -0.5000 
    114 N         -3.5295  -19.0286  -53.5569 N.am      21 UNK        -0.5000 
    115 CA        -4.1225  -17.6829  -53.6187 C.3       21 UNK         0.1400 
    116 CB        -3.3233  -16.7352  -54.5342 C.3       21 UNK        -0.1800 
    117 C         -4.3680  -17.0601  -52.2275 C.2       21 UNK         0.5000 
    118 O         -5.4539  -16.5331  -51.9828 O.2       21 UNK        -0.5000 
    119 N         -3.3796  -17.1697  -51.3331 N.am      22 UNK        -0.5000 
    120 CA        -3.5114  -16.9875  -49.8829 C.3       22 UNK         0.1400 
    121 C         -4.4553  -18.0550  -49.2628 C.2       22 UNK         0.5000 
    122 N         -5.2806  -17.6768  -48.2961 N.am      22 UNK        -0.7600 
    123 O         -4.4164  -19.2282  -49.6245 O.2       22 UNK        -0.5000 
    124 C124       -2.1259  -17.0257  -49.1866 C.3       23 UNK        -0.0398 
    125 S125       -1.1663  -15.5046  -49.4930 S.3       23 UNK        -0.2404 
    126 C126        0.0381  -16.0350  -50.7470 C.3       23 UNK        -0.0205 
    127 H127        2.5629  -15.0125  -52.4687 H         1 UNK         0.0600 
    128 H128        3.0427  -13.9035  -53.7527 H         1 UNK         0.0600 
    129 H129        1.3825  -13.8862  -53.1520 H         1 UNK         0.0600 
    130 H130        3.1873  -14.3665  -50.4453 H         1 UNK         0.3000 
    131 H131        4.4638  -11.9459  -49.8939 H         1 UNK         0.0600 
    132 H132        3.3683  -13.7318  -47.6689 H         1 UNK         0.0800 
    133 H133        4.7786  -12.7295  -47.6668 H         1 UNK         0.0800 
    134 H134        5.0545  -16.9161  -47.6744 H         1 UNK         0.0800 
    135 H135        3.8172  -15.8615  -47.0670 H         1 UNK         0.0800 
    136 H136        1.9638  -15.1706  -49.0307 H         1 UNK         0.1150 
    137 H137        0.7179  -18.6441  -51.1998 H         1 UNK         0.1150 
    138 H138        4.3688  -18.7205  -48.9637 H         1 UNK         0.1150 
    139 H139        2.1541  -20.5674  -51.3543 H         1 UNK         0.0800 
    140 H140        3.8320  -20.3565  -50.9298 H         1 UNK         0.0800 
    141 H141        0.3946  -21.5041  -49.9205 H         1 UNK         0.0800 
    142 H142        0.5401  -20.4416  -48.5387 H         1 UNK         0.0800 
    143 H143        0.7434  -23.4955  -48.3784 H         1 UNK         0.0600 
    144 H144        1.2089  -21.5500  -46.3734 H         1 UNK         0.3000 
    145 H145        0.3195  -23.6104  -43.5446 H         1 UNK         0.0600 
    146 H146        2.6846  -24.0727  -44.1200 H         1 UNK         0.0600 
    147 H147        2.9353  -22.3948  -44.5766 H         1 UNK         0.0600 
    148 H148        2.5815  -22.8099  -42.9018 H         1 UNK         0.0600 
    149 H149        1.1044  -20.8761  -43.6878 H         1 UNK         0.3000 
    150 H150       -2.1937  -19.4929  -44.0016 H         1 UNK         0.0600 
    151 H151       -1.4132  -18.2830  -41.9777 H         1 UNK         0.0600 
    152 H152       -0.1805  -19.5087  -41.6916 H         1 UNK         0.0600 
    153 H153       -1.8843  -19.9281  -41.5738 H         1 UNK         0.0600 
    154 H154        0.3179  -18.2092  -43.8039 H         1 UNK         0.3000 
    155 H155        1.1723  -18.2662  -47.2864 H         1 UNK         0.0600 
    156 H156       -0.3245  -16.3436  -46.9247 H         1 UNK         0.0600 
    157 H157        1.3409  -15.8397  -46.7299 H         1 UNK         0.0600 
    158 H158        0.3107  -16.0721  -45.3217 H         1 UNK         0.0600 
    159 H159        2.4869  -17.2926  -44.9221 H         1 UNK         0.3000 
    160 H160        4.3803  -20.2279  -44.2323 H         1 UNK         0.0600 
    161 H161        5.5698  -19.0903  -46.1537 H         1 UNK         0.0600 
    162 H162        6.2845  -18.7291  -44.5900 H         1 UNK         0.0600 
    163 H163        5.2676  -17.5327  -45.3874 H         1 UNK         0.0600 
    164 H164        4.3823  -17.5708  -43.1446 H         1 UNK         0.3000 
    165 H165        1.8063  -18.0614  -40.7383 H         1 UNK         0.0600 
    166 H166        3.6301  -17.3719  -39.2106 H         1 UNK         0.0600 
    167 H167        3.8588  -19.0418  -39.7035 H         1 UNK         0.0600 
    168 H168        4.8438  -17.7750  -40.4254 H         1 UNK         0.0600 
    169 H169        3.5095  -15.8448  -41.2635 H         1 UNK         0.3000 
    170 H170        2.5191  -13.9224  -42.0258 H         1 UNK         0.0600 
    171 H171        3.1160  -13.2977  -44.3577 H         1 UNK         0.0600 
    172 H172        3.9207  -14.7913  -43.9037 H         1 UNK         0.0600 
    173 H173        2.5112  -14.8367  -44.9535 H         1 UNK         0.0600 
    174 H174        0.5477  -13.6091  -44.1075 H         1 UNK         0.3000 
    175 H175       -2.2625  -13.2079  -42.1018 H         1 UNK         0.0600 
    176 H176       -0.5621  -10.7404  -42.7524 H         1 UNK         0.0600 
    177 H177       -2.3057  -10.7518  -42.4832 H         1 UNK         0.0600 
    178 H178       -1.2116  -11.1474  -41.1686 H         1 UNK         0.0600 
    179 H179       -1.4643  -12.0209  -44.6266 H         1 UNK         0.3000 
    180 H180       -1.9866  -14.7472  -46.6496 H         1 UNK         0.0600 
    181 H181       -3.9712  -13.7222  -47.6922 H         1 UNK         0.0600 
    182 H182       -4.2550  -12.7327  -46.2582 H         1 UNK         0.0600 
    183 H183       -4.4229  -14.4824  -46.1757 H         1 UNK         0.0600 
    184 H184       -2.1450  -12.0500  -47.4009 H         1 UNK         0.3000 
    185 H185       -0.3574  -11.1647  -48.5003 H         1 UNK         0.0600 
    186 H186        1.5337  -10.6296  -46.1146 H         1 UNK         0.0600 
    187 H187        1.0962   -9.4723  -47.3724 H         1 UNK         0.0600 
    188 H188       -0.1072  -10.0046  -46.2211 H         1 UNK         0.0600 
    189 H189        1.5167  -13.1135  -48.2777 H         1 UNK         0.3000 
    190 H190       -1.5041  -21.0717  -46.9467 H         1 UNK         0.3000 
    191 H191       -3.7783  -21.7080  -48.4445 H         1 UNK         0.0600 
    192 H192       -3.6695  -20.7281  -45.5402 H         1 UNK         0.0600 
    193 H193       -5.0223  -20.5628  -46.6514 H         1 UNK         0.0600 
    194 H194       -3.5246  -19.6970  -46.9577 H         1 UNK         0.0600 
    195 H195       -2.6942  -23.1108  -45.3052 H         1 UNK         0.3000 
    196 H196       -4.8514  -24.9036  -44.9495 H         1 UNK         0.0600 
    197 H197       -3.2928  -26.0419  -43.3541 H         1 UNK         0.0600 
    198 H198       -3.2823  -24.2980  -43.1377 H         1 UNK         0.0600 
    199 H199       -1.9506  -25.0890  -43.9772 H         1 UNK         0.0600 
    200 H200       -1.7348  -25.3451  -46.6644 H         1 UNK         0.3000 
    201 H201       -2.1060  -28.1152  -47.2758 H         1 UNK         0.0600 
    202 H202        0.1213  -27.0401  -47.2354 H         1 UNK         0.0600 
    203 H203       -0.3197  -25.9969  -48.5843 H         1 UNK         0.0600 
    204 H204       -0.1812  -27.7352  -48.8210 H         1 UNK         0.0600 
    205 H205       -2.7383  -25.1260  -49.1627 H         1 UNK         0.3000 
    206 H206       -3.6688  -26.6276  -51.4992 H         1 UNK         0.0600 
    207 H207       -3.7272  -24.3933  -52.5254 H         1 UNK         0.0600 
    208 H208       -3.5237  -23.6242  -50.9555 H         1 UNK         0.0600 
    209 H209       -2.2155  -24.5829  -51.6539 H         1 UNK         0.0600 
    210 H210       -5.2448  -25.8329  -48.6879 H         1 UNK         0.3000 
    211 H211       -7.3191  -25.5235  -47.9723 H         1 UNK         0.0600 
    212 H212       -8.2710  -26.6178  -50.6744 H         1 UNK         0.0600 
    213 H213       -9.2111  -26.5355  -49.1911 H         1 UNK         0.0600 
    214 H214       -7.8189  -27.6016  -49.2828 H         1 UNK         0.0600 
    215 H215       -6.0182  -23.3568  -48.9173 H         1 UNK         0.3000 
    216 H216       -6.0428  -21.2517  -49.5217 H         1 UNK         0.0600 
    217 H217       -8.0178  -19.8996  -48.9374 H         1 UNK         0.0600 
    218 H218       -7.7851  -21.1571  -47.7358 H         1 UNK         0.0600 
    219 H219       -9.0489  -21.3244  -48.9551 H         1 UNK         0.0600 
    220 H220       -6.8275  -23.3165  -51.7277 H         1 UNK         0.3000 
    221 H221       -8.1160  -21.5380  -53.7150 H         1 UNK         0.0600 
    222 H222       -7.3940  -24.5160  -53.7826 H         1 UNK         0.0600 
    223 H223       -8.9839  -23.8173  -53.5225 H         1 UNK         0.0600 
    224 H224       -8.1899  -23.6262  -55.0763 H         1 UNK         0.0600 
    225 H225       -5.5848  -23.9129  -54.3630 H         1 UNK         0.3000 
    226 H226       -4.4477  -22.4327  -56.4263 H         1 UNK         0.0600 
    227 H227       -4.3660  -24.9033  -56.2539 H         1 UNK         0.0600 
    228 H228       -2.7460  -24.2602  -56.4592 H         1 UNK         0.0600 
    229 H229       -3.2748  -24.8009  -54.8721 H         1 UNK         0.0600 
    230 H230       -3.6770  -22.1795  -53.0592 H         1 UNK         0.3000 
    231 H231       -1.0057  -21.0688  -53.3390 H         1 UNK         0.0600 
    232 H232       -3.0201  -21.1852  -51.0323 H         1 UNK         0.0600 
    233 H233       -1.5806  -22.1830  -51.2601 H         1 UNK         0.0600 
    234 H234       -1.4254  -20.4749  -50.8838 H         1 UNK         0.0600 
    235 H235       -4.1849  -19.7758  -53.7625 H         1 UNK         0.3000 
    236 H236       -5.1035  -17.8239  -54.0753 H         1 UNK         0.0600 
    237 H237       -2.3470  -16.4853  -54.1187 H         1 UNK         0.0600 
    238 H238       -3.1673  -17.1768  -55.5184 H         1 UNK         0.0600 
    239 H239       -3.8604  -15.7973  -54.6792 H         1 UNK         0.0600 
    240 H240       -2.5274  -17.6175  -51.6531 H         1 UNK         0.3000 
    241 H241       -3.9608  -16.0068  -49.7139 H         1 UNK         0.0600 
    242 H242       -5.8895  -18.3632  -47.8825 H         1 UNK         0.3800 
    243 H243       -5.3342  -16.7193  -47.9874 H         1 UNK         0.3800 
    244 H244       -2.2459  -17.1089  -48.1049 H         1 UNK         0.0800 
    245 H245       -1.5543  -17.9048  -49.4903 H         1 UNK         0.0800 
    246 H246        0.4196  -15.1387  -51.2330 H         1 UNK         0.0800 
    247 H247       -0.4714  -16.5988  -51.5269 H         1 UNK         0.0800 
@<TRIPOS>BOND
     1    1    2 1    
     2    1  127 1    
     3    1  128 1    
     4    1  129 1    
     5    2    3 2    
     6    2    4 am   BACKBONE|DICT|INTERRES
     7    4    5 1    
     8    4  130 1    
     9    5    6 1    
    10    5   65 1    
    11    5  131 1    
    12    6    7 1    
    13    6  132 1    
    14    6  133 1    
    15    7    8 1    
    16    8    9 1    
    17    8  134 1    
    18    8  135 1    
    19    9   10 ar   
    20    9   14 ar   
    21   10   11 ar   
    22   10  136 1    
    23   11   12 ar   
    24   11  126 1    
    25   12   13 ar   
    26   12  137 1    
    27   13   14 ar   
    28   13   15 1    
    29   14  138 1    
    30   15   16 1    
    31   15  139 1    
    32   15  140 1    
    33   16   17 1    
    34   17   18 1    
    35   17  141 1    
    36   17  142 1    
    37   18   19 1    
    38   18   67 1    
    39   18  143 1    
    40   19   20 am   BACKBONE|DICT|INTERRES
    41   19  144 1    
    42   20   21 2    
    43   20   22 1    
    44   22   23 1    
    45   22   24 1    
    46   22  145 1    
    47   23  146 1    
    48   23  147 1    
    49   23  148 1    
    50   24   25 am   BACKBONE|DICT|INTERRES
    51   24  149 1    
    52   25   26 2    
    53   25   27 1    
    54   27   28 1    
    55   27   29 1    
    56   27  150 1    
    57   28  151 1    
    58   28  152 1    
    59   28  153 1    
    60   29   30 am   BACKBONE|DICT|INTERRES
    61   29  154 1    
    62   30   31 2    
    63   30   32 1    
    64   32   33 1    
    65   32   34 1    
    66   32  155 1    
    67   33  156 1    
    68   33  157 1    
    69   33  158 1    
    70   34   35 am   BACKBONE|DICT|INTERRES
    71   34  159 1    
    72   35   36 2    
    73   35   37 1    
    74   37   38 1    
    75   37   39 1    
    76   37  160 1    
    77   38  161 1    
    78   38  162 1    
    79   38  163 1    
    80   39   40 am   BACKBONE|DICT|INTERRES
    81   39  164 1    
    82   40   41 2    
    83   40   42 1    
    84   42   43 1    
    85   42   44 1    
    86   42  165 1    
    87   43  166 1    
    88   43  167 1    
    89   43  168 1    
    90   44   45 am   BACKBONE|DICT|INTERRES
    91   44  169 1    
    92   45   46 2    
    93   45   47 1    
    94   47   48 1    
    95   47   49 1    
    96   47  170 1    
    97   48  171 1    
    98   48  172 1    
    99   48  173 1    
   100   49   50 am   BACKBONE|DICT|INTERRES
   101   49  174 1    
   102   50   51 2    
   103   50   52 1    
   104   52   53 1    
   105   52   54 1    
   106   52  175 1    
   107   53  176 1    
   108   53  177 1    
   109   53  178 1    
   110   54   55 am   BACKBONE|DICT|INTERRES
   111   54  179 1    
   112   55   56 2    
   113   55   57 1    
   114   57   58 1    
   115   57   59 1    
   116   57  180 1    
   117   58  181 1    
   118   58  182 1    
   119   58  183 1    
   120   59   60 am   BACKBONE|DICT|INTERRES
   121   59  184 1    
   122   60   61 2    
   123   60   62 1    
   124   62   63 1    
   125   62   64 1    
   126   62  185 1    
   127   63  186 1    
   128   63  187 1    
   129   63  188 1    
   130   64   65 am   BACKBONE|DICT|INTERRES
   131   64  189 1    
   132   65   66 2    
   133   67   68 2    
   134   67   69 am   BACKBONE|DICT|INTERRES
   135   69   70 1    
   136   69  190 1    
   137   70   71 1    
   138   70   72 1    
   139   70  191 1    
   140   71  192 1    
   141   71  193 1    
   142   71  194 1    
   143   72   73 2    
   144   72   74 am   BACKBONE|DICT|INTERRES
   145   74   75 1    
   146   74  195 1    
   147   75   76 1    
   148   75   77 1    
   149   75  196 1    
   150   76  197 1    
   151   76  198 1    
   152   76  199 1    
   153   77   78 2    
   154   77   79 am   BACKBONE|DICT|INTERRES
   155   79   80 1    
   156   79  200 1    
   157   80   81 1    
   158   80   82 1    
   159   80  201 1    
   160   81  202 1    
   161   81  203 1    
   162   81  204 1    
   163   82   83 2    
   164   82   84 am   BACKBONE|DICT|INTERRES
   165   84   85 1    
   166   84  205 1    
   167   85   86 1    
   168   85   87 1    
   169   85  206 1    
   170   86  207 1    
   171   86  208 1    
   172   86  209 1    
   173   87   88 2    
   174   87   89 am   BACKBONE|DICT|INTERRES
   175   89   90 1    
   176   89  210 1    
   177   90   91 1    
   178   90   92 1    
   179   90  211 1    
   180   91  212 1    
   181   91  213 1    
   182   91  214 1    
   183   92   93 2    
   184   92   94 am   BACKBONE|DICT|INTERRES
   185   94   95 1    
   186   94  215 1    
   187   95   96 1    
   188   95   97 1    
   189   95  216 1    
   190   96  217 1    
   191   96  218 1    
   192   96  219 1    
   193   97   98 2    
   194   97   99 am   BACKBONE|DICT|INTERRES
   195   99  100 1    
   196   99  220 1    
   197  100  101 1    
   198  100  102 1    
   199  100  221 1    
   200  101  222 1    
   201  101  223 1    
   202  101  224 1    
   203  102  103 2    
   204  102  104 am   BACKBONE|DICT|INTERRES
   205  104  105 1    
   206  104  225 1    
   207  105  106 1    
   208  105  107 1    
   209  105  226 1    
   210  106  227 1    
   211  106  228 1    
   212  106  229 1    
   213  107  108 2    
   214  107  109 am   BACKBONE|DICT|INTERRES
   215  109  110 1    
   216  109  230 1    
   217  110  111 1    
   218  110  112 1    
   219  110  231 1    
   220  111  232 1    
   221  111  233 1    
   222  111  234 1    
   223  112  113 2    
   224  112  114 am   BACKBONE|DICT|INTERRES
   225  114  115 1    
   226  114  235 1    
   227  115  116 1    
   228  115  117 1    
   229  115  236 1    
   230  116  237 1    
   231  116  238 1    
   232  116  239 1    
   233  117  118 2    
   234  117  119 am   BACKBONE|DICT|INTERRES
   235  119  120 1    
   236  119  240 1    
   237  120  121 1    
   238  120  124 1    
   239  120  241 1    
   240  121  122 am   BACKBONE|DICT|INTERRES
   241  121  123 2    
   242  122  242 1    
   243  122  243 1    
   244  124  125 1    
   245  124  244 1    
   246  124  245 1    
   247  125  126 1    
   248  126  246 1    
   249  126  247 1    
@<TRIPOS>SUBSTRUCTURE
     1 UNK         1 GROUP             0       ****    0 ROOT    
