@<TRIPOS>MOLECULE
3R540
247   249    1
SMALL
USER_CHARGES


@<TRIPOS>ATOM
      1 CA          5.2292  -10.5658  -49.9236 C.3       0 UNK        -0.1800 
      2 C           5.9075  -11.6209  -49.0615 C.2       0 UNK         0.5000 
      3 O           7.1345  -11.6372  -48.9627 O.2       0 UNK        -0.5000 
      4 N           5.1131  -12.5006  -48.4392 N.am      1 UNK        -0.5000 
      5 CA          5.5708  -13.5526  -47.5214 C.3       1 UNK         0.1400 
      6 C6          4.5119  -14.6734  -47.3473 C.3       23 UNK        -0.0398 
      7 S7          2.8674  -14.0900  -46.7934 S.3       23 UNK        -0.2404 
      8 C8          1.9862  -13.8886  -48.3766 C.3       23 UNK        -0.0205 
      9 C9          1.0558  -15.0540  -48.6785 C.ar      23 UNK        -0.0193 
     10 C10        -0.3209  -14.9191  -48.4800 C.ar      23 UNK        -0.1150 
     11 C11        -1.1991  -15.9600  -48.7955 C.ar      23 UNK        -0.0193 
     12 C12        -0.6747  -17.1611  -49.2882 C.ar      23 UNK        -0.1150 
     13 C13         0.6956  -17.3013  -49.5202 C.ar      23 UNK        -0.0193 
     14 C14         1.5570  -16.2458  -49.2080 C.ar      23 UNK        -0.1150 
     15 C15         1.2402  -18.5706  -50.1577 C.3       23 UNK        -0.0205 
     16 S16         1.4645  -19.9043  -48.9449 S.3       23 UNK        -0.2404 
     17 C17        -0.2047  -20.6415  -48.8919 C.3       23 UNK        -0.0398 
     18 CA         -0.1562  -22.0905  -48.3576 C.3       11 UNK         0.1400 
     19 N           0.2449  -22.1471  -46.9514 N.am      11 UNK        -0.5000 
     20 C           0.5540  -23.2650  -46.2837 C.2       10 UNK         0.5000 
     21 O           0.5714  -24.3850  -46.7921 O.2       10 UNK        -0.5000 
     22 CA          0.8413  -23.1087  -44.7821 C.3       10 UNK         0.1400 
     23 CB          2.2837  -22.6373  -44.5419 C.3       10 UNK        -0.1800 
     24 N          -0.0953  -22.1817  -44.1472 N.am      10 UNK        -0.5000 
     25 C          -1.3934  -22.4433  -43.9427 C.2       9 UNK         0.5000 
     26 O          -1.9313  -23.5091  -44.2429 O.2       9 UNK        -0.5000 
     27 CA         -2.2386  -21.3123  -43.3293 C.3       9 UNK         0.1400 
     28 CB         -2.0908  -21.2927  -41.8006 C.3       9 UNK        -0.1800 
     29 N          -1.9041  -19.9922  -43.8661 N.am      9 UNK        -0.5000 
     30 C          -2.1271  -19.6153  -45.1325 C.2       8 UNK         0.5000 
     31 O          -2.6244  -20.3460  -45.9879 O.2       8 UNK        -0.5000 
     32 CA         -1.6855  -18.1928  -45.5198 C.3       8 UNK         0.1400 
     33 CB         -2.7144  -17.1736  -45.0099 C.3       8 UNK        -0.1800 
     34 N          -0.3473  -17.8084  -45.0549 N.am      8 UNK        -0.5000 
     35 C           0.7773  -18.5271  -45.2038 C.2       7 UNK         0.5000 
     36 O           0.7947  -19.6756  -45.6428 O.2       7 UNK        -0.5000 
     37 CA          2.1159  -17.8798  -44.8031 C.3       7 UNK         0.1400 
     38 CB          3.0660  -17.8111  -46.0076 C.3       7 UNK        -0.1800 
     39 N           1.9756  -16.5399  -44.2308 N.am      7 UNK        -0.5000 
     40 C           1.7195  -16.2927  -42.9398 C.2       6 UNK         0.5000 
     41 O           1.5444  -17.1736  -42.0974 O.2       6 UNK        -0.5000 
     42 CA          1.6405  -14.8144  -42.5175 C.3       6 UNK         0.1400 
     43 CB          3.0170  -14.3174  -42.0521 C.3       6 UNK        -0.1800 
     44 N           1.1485  -13.9240  -43.5695 N.am      6 UNK        -0.5000 
     45 C          -0.0925  -13.9206  -44.0682 C.2       5 UNK         0.5000 
     46 O          -0.9546  -14.7292  -43.7243 O.2       5 UNK        -0.5000 
     47 CA         -0.4205  -12.8138  -45.0980 C.3       5 UNK         0.1400 
     48 CB         -1.8569  -12.9213  -45.6417 C.3       5 UNK        -0.1800 
     49 N          -0.2266  -11.4630  -44.5591 N.am      5 UNK        -0.5000 
     50 C           0.9537  -10.8797  -44.3166 C.2       4 UNK         0.5000 
     51 O           2.0378  -11.4261  -44.5419 O.2       4 UNK        -0.5000 
     52 CA          0.9208   -9.4709  -43.6987 C.3       4 UNK         0.1400 
     53 CB          0.2304   -9.4659  -42.3231 C.3       4 UNK        -0.1800 
     54 N           2.2968   -9.0193  -43.5419 N.am      4 UNK        -0.5000 
     55 C           2.7713   -7.7856  -43.7366 C.2       3 UNK         0.5000 
     56 O           2.0595   -6.8099  -43.9784 O.2       3 UNK        -0.5000 
     57 CA          4.3054   -7.6114  -43.6496 C.3       3 UNK         0.1400 
     58 CB          4.6901   -6.8704  -42.3592 C.3       3 UNK        -0.1800 
     59 N           5.0448   -8.8799  -43.7024 N.am      3 UNK        -0.5000 
     60 C           5.1590   -9.6523  -44.7912 C.2       2 UNK         0.5000 
     61 O           4.7267   -9.3245  -45.9007 O.2       2 UNK        -0.5000 
     62 CA          5.8341  -11.0252  -44.6073 C.3       2 UNK         0.1400 
     63 CB          5.3913  -11.7384  -43.3103 C.3       2 UNK        -0.1800 
     64 N           5.5043  -11.8275  -45.7782 N.am      2 UNK        -0.5000 
     65 C           6.0510  -12.9843  -46.1656 C.2       1 UNK         0.5000 
     66 O           6.9156  -13.5847  -45.5259 O.2       1 UNK        -0.5000 
     67 C          -1.4866  -22.8306  -48.5976 C.2       11 UNK         0.5000 
     68 O          -1.5776  -23.6037  -49.5504 O.2       11 UNK        -0.5000 
     69 N          -2.4725  -22.6354  -47.7090 N.am      12 UNK        -0.5000 
     70 CA         -3.7464  -23.3564  -47.7212 C.3       12 UNK         0.1400 
     71 CB         -4.7003  -22.7565  -46.6789 C.3       12 UNK        -0.1800 
     72 C          -3.5764  -24.8689  -47.4975 C.2       12 UNK         0.5000 
     73 O          -4.2182  -25.6536  -48.1953 O.2       12 UNK        -0.5000 
     74 N          -2.6948  -25.2551  -46.5636 N.am      13 UNK        -0.5000 
     75 CA         -2.3382  -26.6495  -46.2969 C.3       13 UNK         0.1400 
     76 CB         -1.4779  -26.7392  -45.0278 C.3       13 UNK        -0.1800 
     77 C          -1.6345  -27.3171  -47.4924 C.2       13 UNK         0.5000 
     78 O          -2.0013  -28.4330  -47.8607 O.2       13 UNK        -0.5000 
     79 N          -0.6791  -26.6076  -48.1106 N.am      14 UNK        -0.5000 
     80 CA          0.0331  -27.0346  -49.3189 C.3       14 UNK         0.1400 
     81 CB          1.1720  -26.0485  -49.6183 C.3       14 UNK        -0.1800 
     82 C          -0.8916  -27.1862  -50.5423 C.2       14 UNK         0.5000 
     83 O          -0.7087  -28.1116  -51.3336 O.2       14 UNK        -0.5000 
     84 N          -1.8922  -26.3022  -50.6492 N.am      15 UNK        -0.5000 
     85 CA         -2.9563  -26.3460  -51.6531 C.3       15 UNK         0.1400 
     86 CB         -3.5869  -24.9480  -51.7625 C.3       15 UNK        -0.1800 
     87 C          -4.0424  -27.4031  -51.3608 C.2       15 UNK         0.5000 
     88 O          -4.9416  -27.5683  -52.1838 O.2       15 UNK        -0.5000 
     89 N          -3.9730  -28.0751  -50.2009 N.am      16 UNK        -0.5000 
     90 CA         -4.9294  -29.0631  -49.6882 C.3       16 UNK         0.1400 
     91 CB         -4.9114  -30.3424  -50.5506 C.3       16 UNK        -0.1800 
     92 C          -6.3451  -28.4773  -49.4952 C.2       16 UNK         0.5000 
     93 O          -7.3402  -29.1441  -49.7847 O.2       16 UNK        -0.5000 
     94 N          -6.3948  -27.2253  -49.0171 N.am      17 UNK        -0.5000 
     95 CA         -7.5800  -26.4029  -48.7572 C.3       17 UNK         0.1400 
     96 CB         -8.4600  -27.0320  -47.6569 C.3       17 UNK        -0.1800 
     97 C          -8.3806  -26.0199  -50.0217 C.2       17 UNK         0.5000 
     98 O          -9.5508  -25.6488  -49.9085 O.2       17 UNK        -0.5000 
     99 N          -7.7456  -26.0862  -51.2009 N.am      18 UNK        -0.5000 
    100 CA        -8.3059  -25.6140  -52.4674 C.3       18 UNK         0.1400 
    101 CB        -7.4549  -26.1501  -53.6281 C.3       18 UNK        -0.1800 
    102 C         -8.3807  -24.0760  -52.5244 C.2       18 UNK         0.5000 
    103 O         -7.6270  -23.3880  -51.8297 O.2       18 UNK        -0.5000 
    104 N         -9.2805  -23.5668  -53.3737 N.am      19 UNK        -0.5000 
    105 CA        -9.4545  -22.1399  -53.6431 C.3       19 UNK         0.1400 
    106 CB       -10.7360  -21.9445  -54.4685 C.3       19 UNK        -0.1800 
    107 C         -8.2434  -21.5321  -54.3774 C.2       19 UNK         0.5000 
    108 O         -7.5678  -22.2320  -55.1360 O.2       19 UNK        -0.5000 
    109 N         -8.0224  -20.2291  -54.1531 N.am      20 UNK        -0.5000 
    110 CA        -6.9656  -19.3967  -54.7429 C.3       20 UNK         0.1400 
    111 CB        -7.1518  -19.2635  -56.2695 C.3       20 UNK        -0.1800 
    112 C         -5.5354  -19.8259  -54.3466 C.2       20 UNK         0.5000 
    113 O         -4.5929  -19.6041  -55.1096 O.2       20 UNK        -0.5000 
    114 N         -5.3853  -20.3889  -53.1371 N.am      21 UNK        -0.5000 
    115 CA        -4.1130  -20.8380  -52.5547 C.3       21 UNK         0.1400 
    116 CB        -4.3923  -21.4992  -51.1965 C.3       21 UNK        -0.1800 
    117 C         -3.0623  -19.7191  -52.3922 C.2       21 UNK         0.5000 
    118 O         -1.8640  -20.0016  -52.4056 O.2       21 UNK        -0.5000 
    119 N         -3.5358  -18.4751  -52.2583 N.am      22 UNK        -0.5000 
    120 CA        -2.7217  -17.2516  -52.2108 C.3       22 UNK         0.1400 
    121 C         -2.3390  -16.6902  -53.6131 C.2       22 UNK         0.5000 
    122 N         -2.7624  -17.2881  -54.7215 N.am      22 UNK        -0.7600 
    123 O         -1.6310  -15.6911  -53.7010 O.2       22 UNK        -0.5000 
    124 C124       -3.3851  -16.1610  -51.3266 C.3       23 UNK        -0.0398 
    125 S125       -3.7946  -16.7565  -49.6459 S.3       23 UNK        -0.2404 
    126 C126       -2.6995  -15.7410  -48.5951 C.3       23 UNK        -0.0205 
    127 H127        4.1466  -10.6943  -49.9454 H         1 UNK         0.0600 
    128 H128        5.5989  -10.6221  -50.9474 H         1 UNK         0.0600 
    129 H129        5.4452   -9.5705  -49.5352 H         1 UNK         0.0600 
    130 H130        4.1122  -12.4253  -48.5436 H         1 UNK         0.3000 
    131 H131        6.4470  -14.0184  -47.9780 H         1 UNK         0.0600 
    132 H132        4.4004  -15.2164  -48.2858 H         1 UNK         0.0800 
    133 H133        4.8701  -15.4137  -46.6312 H         1 UNK         0.0800 
    134 H134        1.4169  -12.9588  -48.3340 H         1 UNK         0.0800 
    135 H135        2.6905  -13.7669  -49.2001 H         1 UNK         0.0800 
    136 H136       -0.7133  -13.9872  -48.1000 H         1 UNK         0.1150 
    137 H137       -1.3322  -17.9843  -49.5242 H         1 UNK         0.1150 
    138 H138        2.6170  -16.3481  -49.3899 H         1 UNK         0.1150 
    139 H139        0.5831  -18.8977  -50.9652 H         1 UNK         0.0800 
    140 H140        2.2050  -18.3659  -50.6240 H         1 UNK         0.0800 
    141 H141       -0.6251  -20.6215  -49.8992 H         1 UNK         0.0800 
    142 H142       -0.8501  -20.0206  -48.2687 H         1 UNK         0.0800 
    143 H143        0.6027  -22.6298  -48.9289 H         1 UNK         0.0600 
    144 H144        0.3131  -21.2554  -46.4646 H         1 UNK         0.3000 
    145 H145        0.7232  -24.0883  -44.3143 H         1 UNK         0.0600 
    146 H146        2.5035  -22.5680  -43.4765 H         1 UNK         0.0600 
    147 H147        2.9977  -23.3380  -44.9764 H         1 UNK         0.0600 
    148 H148        2.4729  -21.6604  -44.9879 H         1 UNK         0.0600 
    149 H149        0.2475  -21.2508  -43.9575 H         1 UNK         0.3000 
    150 H150       -3.2849  -21.5169  -43.5663 H         1 UNK         0.0600 
    151 H151       -2.3496  -22.2616  -41.3714 H         1 UNK         0.0600 
    152 H152       -2.7519  -20.5521  -41.3502 H         1 UNK         0.0600 
    153 H153       -1.0693  -21.0608  -41.4964 H         1 UNK         0.0600 
    154 H154       -1.4714  -19.3336  -43.2350 H         1 UNK         0.3000 
    155 H155       -1.6676  -18.1438  -46.6099 H         1 UNK         0.0600 
    156 H156       -2.4711  -16.1659  -45.3406 H         1 UNK         0.0600 
    157 H157       -2.7615  -17.1585  -43.9204 H         1 UNK         0.0600 
    158 H158       -3.7138  -17.4050  -45.3811 H         1 UNK         0.0600 
    159 H159       -0.2665  -16.8837  -44.6546 H         1 UNK         0.3000 
    160 H160        2.5736  -18.5382  -44.0618 H         1 UNK         0.0600 
    161 H161        2.6740  -17.1626  -46.7900 H         1 UNK         0.0600 
    162 H162        3.2175  -18.7975  -46.4482 H         1 UNK         0.0600 
    163 H163        4.0462  -17.4384  -45.7125 H         1 UNK         0.0600 
    164 H164        2.0958  -15.7582  -44.8605 H         1 UNK         0.3000 
    165 H165        0.9499  -14.7496  -41.6741 H         1 UNK         0.0600 
    166 H166        3.7445  -14.3360  -42.8647 H         1 UNK         0.0600 
    167 H167        2.9603  -13.2967  -41.6732 H         1 UNK         0.0600 
    168 H168        3.4074  -14.9409  -41.2468 H         1 UNK         0.0600 
    169 H169        1.7813  -13.1997  -43.8993 H         1 UNK         0.3000 
    170 H170        0.2598  -12.9480  -45.9399 H         1 UNK         0.0600 
    171 H171       -2.0410  -13.9037  -46.0761 H         1 UNK         0.0600 
    172 H172       -2.5975  -12.7676  -44.8559 H         1 UNK         0.0600 
    173 H173       -2.0388  -12.1843  -46.4241 H         1 UNK         0.0600 
    174 H174       -1.0696  -10.9619  -44.3191 H         1 UNK         0.3000 
    175 H175        0.3857   -8.8127  -44.3863 H         1 UNK         0.0600 
    176 H176        0.2595   -8.4734  -41.8730 H         1 UNK         0.0600 
    177 H177       -0.8190   -9.7512  -42.4025 H         1 UNK         0.0600 
    178 H178        0.7100  -10.1598  -41.6313 H         1 UNK         0.0600 
    179 H179        2.9617   -9.7744  -43.4420 H         1 UNK         0.3000 
    180 H180        4.6121   -6.9990  -44.5001 H         1 UNK         0.0600 
    181 H181        4.4131   -7.4394  -41.4709 H         1 UNK         0.0600 
    182 H182        4.1889   -5.9034  -42.2988 H         1 UNK         0.0600 
    183 H183        5.7629   -6.6810  -42.3173 H         1 UNK         0.0600 
    184 H184        5.4290   -9.2092  -42.8285 H         1 UNK         0.3000 
    185 H185        6.9138  -10.8669  -44.5863 H         1 UNK         0.0600 
    186 H186        5.8340  -12.7303  -43.2245 H         1 UNK         0.0600 
    187 H187        5.6983  -11.1847  -42.4230 H         1 UNK         0.0600 
    188 H188        4.3093  -11.8565  -43.2695 H         1 UNK         0.0600 
    189 H189        4.8311  -11.3791  -46.3881 H         1 UNK         0.3000 
    190 H190       -2.3528  -21.9418  -46.9750 H         1 UNK         0.3000 
    191 H191       -4.1972  -23.2198  -48.7059 H         1 UNK         0.0600 
    192 H192       -4.9061  -21.7076  -46.8929 H         1 UNK         0.0600 
    193 H193       -5.6566  -23.2811  -46.6755 H         1 UNK         0.0600 
    194 H194       -4.2866  -22.8175  -45.6719 H         1 UNK         0.0600 
    195 H195       -2.2414  -24.5509  -45.9914 H         1 UNK         0.3000 
    196 H196       -3.2645  -27.1977  -46.1122 H         1 UNK         0.0600 
    197 H197       -1.2216  -27.7752  -44.8027 H         1 UNK         0.0600 
    198 H198       -2.0096  -26.3410  -44.1635 H         1 UNK         0.0600 
    199 H199       -0.5450  -26.1854  -45.1298 H         1 UNK         0.0600 
    200 H200       -0.4007  -25.7132  -47.7137 H         1 UNK         0.3000 
    201 H201        0.4746  -28.0123  -49.1153 H         1 UNK         0.0600 
    202 H202        1.8744  -25.9933  -48.7864 H         1 UNK         0.0600 
    203 H203        0.7945  -25.0427  -49.8039 H         1 UNK         0.0600 
    204 H204        1.7351  -26.3568  -50.5001 H         1 UNK         0.0600 
    205 H205       -1.9235  -25.5250  -49.9963 H         1 UNK         0.3000 
    206 H206       -2.5128  -26.5953  -52.6190 H         1 UNK         0.0600 
    207 H207       -2.8384  -24.1957  -52.0120 H         1 UNK         0.0600 
    208 H208       -4.3486  -24.9149  -52.5421 H         1 UNK         0.0600 
    209 H209       -4.0623  -24.6504  -50.8276 H         1 UNK         0.0600 
    210 H210       -3.2058  -27.8597  -49.5760 H         1 UNK         0.3000 
    211 H211       -4.5784  -29.3350  -48.6919 H         1 UNK         0.0600 
    212 H212       -5.3074  -30.1642  -51.5507 H         1 UNK         0.0600 
    213 H213       -5.5152  -31.1283  -50.0957 H         1 UNK         0.0600 
    214 H214       -3.8987  -30.7318  -50.6549 H         1 UNK         0.0600 
    215 H215       -5.5103  -26.7605  -48.8127 H         1 UNK         0.3000 
    216 H216       -7.1960  -25.4612  -48.3623 H         1 UNK         0.0600 
    217 H217       -7.8709  -27.2772  -46.7732 H         1 UNK         0.0600 
    218 H218       -8.9484  -27.9444  -47.9998 H         1 UNK         0.0600 
    219 H219       -9.2438  -26.3431  -47.3400 H         1 UNK         0.0600 
    220 H220       -6.7880  -26.4093  -51.2229 H         1 UNK         0.3000 
    221 H221       -9.3166  -26.0161  -52.5648 H         1 UNK         0.0600 
    222 H222       -6.4405  -25.7511  -53.5994 H         1 UNK         0.0600 
    223 H223       -7.3893  -27.2380  -53.6014 H         1 UNK         0.0600 
    224 H224       -7.8855  -25.8744  -54.5914 H         1 UNK         0.0600 
    225 H225       -9.8334  -24.1970  -53.9359 H         1 UNK         0.3000 
    226 H226       -9.5753  -21.6284  -52.6857 H         1 UNK         0.0600 
    227 H227      -11.6086  -22.3310  -53.9415 H         1 UNK         0.0600 
    228 H228      -10.9191  -20.8872  -54.6645 H         1 UNK         0.0600 
    229 H229      -10.6741  -22.4502  -55.4331 H         1 UNK         0.0600 
    230 H230       -8.6411  -19.7462  -53.5159 H         1 UNK         0.3000 
    231 H231       -7.0990  -18.4014  -54.3167 H         1 UNK         0.0600 
    232 H232       -6.4729  -18.5168  -56.6830 H         1 UNK         0.0600 
    233 H233       -8.1656  -18.9492  -56.5175 H         1 UNK         0.0600 
    234 H234       -6.9553  -20.2029  -56.7867 H         1 UNK         0.0600 
    235 H235       -6.2126  -20.5476  -52.5806 H         1 UNK         0.3000 
    236 H236       -3.6907  -21.5905  -53.2237 H         1 UNK         0.0600 
    237 H237       -3.4725  -21.8876  -50.7588 H         1 UNK         0.0600 
    238 H238       -4.8223  -20.7939  -50.4842 H         1 UNK         0.0600 
    239 H239       -5.0820  -22.3371  -51.2980 H         1 UNK         0.0600 
    240 H240       -4.5355  -18.3435  -52.2428 H         1 UNK         0.3000 
    241 H241       -1.7667  -17.5059  -51.7527 H         1 UNK         0.0600 
    242 H242       -2.4953  -16.9069  -55.6151 H         1 UNK         0.3800 
    243 H243       -3.3367  -18.1240  -54.6917 H         1 UNK         0.3800 
    244 H244       -2.7344  -15.2885  -51.2466 H         1 UNK         0.0800 
    245 H245       -4.3068  -15.8077  -51.7916 H         1 UNK         0.0800 
    246 H246       -2.9466  -14.6914  -48.7628 H         1 UNK         0.0800 
    247 H247       -2.9449  -15.9478  -47.5561 H         1 UNK         0.0800 
@<TRIPOS>BOND
     1    1    2 1    
     2    1  127 1    
     3    1  128 1    
     4    1  129 1    
     5    2    3 2    
     6    2    4 am   BACKBONE|DICT|INTERRES
     7    4    5 1    
     8    4  130 1    
     9    5    6 1    
    10    5   65 1    
    11    5  131 1    
    12    6    7 1    
    13    6  132 1    
    14    6  133 1    
    15    7    8 1    
    16    8    9 1    
    17    8  134 1    
    18    8  135 1    
    19    9   10 ar   
    20    9   14 ar   
    21   10   11 ar   
    22   10  136 1    
    23   11   12 ar   
    24   11  126 1    
    25   12   13 ar   
    26   12  137 1    
    27   13   14 ar   
    28   13   15 1    
    29   14  138 1    
    30   15   16 1    
    31   15  139 1    
    32   15  140 1    
    33   16   17 1    
    34   17   18 1    
    35   17  141 1    
    36   17  142 1    
    37   18   19 1    
    38   18   67 1    
    39   18  143 1    
    40   19   20 am   BACKBONE|DICT|INTERRES
    41   19  144 1    
    42   20   21 2    
    43   20   22 1    
    44   22   23 1    
    45   22   24 1    
    46   22  145 1    
    47   23  146 1    
    48   23  147 1    
    49   23  148 1    
    50   24   25 am   BACKBONE|DICT|INTERRES
    51   24  149 1    
    52   25   26 2    
    53   25   27 1    
    54   27   28 1    
    55   27   29 1    
    56   27  150 1    
    57   28  151 1    
    58   28  152 1    
    59   28  153 1    
    60   29   30 am   BACKBONE|DICT|INTERRES
    61   29  154 1    
    62   30   31 2    
    63   30   32 1    
    64   32   33 1    
    65   32   34 1    
    66   32  155 1    
    67   33  156 1    
    68   33  157 1    
    69   33  158 1    
    70   34   35 am   BACKBONE|DICT|INTERRES
    71   34  159 1    
    72   35   36 2    
    73   35   37 1    
    74   37   38 1    
    75   37   39 1    
    76   37  160 1    
    77   38  161 1    
    78   38  162 1    
    79   38  163 1    
    80   39   40 am   BACKBONE|DICT|INTERRES
    81   39  164 1    
    82   40   41 2    
    83   40   42 1    
    84   42   43 1    
    85   42   44 1    
    86   42  165 1    
    87   43  166 1    
    88   43  167 1    
    89   43  168 1    
    90   44   45 am   BACKBONE|DICT|INTERRES
    91   44  169 1    
    92   45   46 2    
    93   45   47 1    
    94   47   48 1    
    95   47   49 1    
    96   47  170 1    
    97   48  171 1    
    98   48  172 1    
    99   48  173 1    
   100   49   50 am   BACKBONE|DICT|INTERRES
   101   49  174 1    
   102   50   51 2    
   103   50   52 1    
   104   52   53 1    
   105   52   54 1    
   106   52  175 1    
   107   53  176 1    
   108   53  177 1    
   109   53  178 1    
   110   54   55 am   BACKBONE|DICT|INTERRES
   111   54  179 1    
   112   55   56 2    
   113   55   57 1    
   114   57   58 1    
   115   57   59 1    
   116   57  180 1    
   117   58  181 1    
   118   58  182 1    
   119   58  183 1    
   120   59   60 am   BACKBONE|DICT|INTERRES
   121   59  184 1    
   122   60   61 2    
   123   60   62 1    
   124   62   63 1    
   125   62   64 1    
   126   62  185 1    
   127   63  186 1    
   128   63  187 1    
   129   63  188 1    
   130   64   65 am   BACKBONE|DICT|INTERRES
   131   64  189 1    
   132   65   66 2    
   133   67   68 2    
   134   67   69 am   BACKBONE|DICT|INTERRES
   135   69   70 1    
   136   69  190 1    
   137   70   71 1    
   138   70   72 1    
   139   70  191 1    
   140   71  192 1    
   141   71  193 1    
   142   71  194 1    
   143   72   73 2    
   144   72   74 am   BACKBONE|DICT|INTERRES
   145   74   75 1    
   146   74  195 1    
   147   75   76 1    
   148   75   77 1    
   149   75  196 1    
   150   76  197 1    
   151   76  198 1    
   152   76  199 1    
   153   77   78 2    
   154   77   79 am   BACKBONE|DICT|INTERRES
   155   79   80 1    
   156   79  200 1    
   157   80   81 1    
   158   80   82 1    
   159   80  201 1    
   160   81  202 1    
   161   81  203 1    
   162   81  204 1    
   163   82   83 2    
   164   82   84 am   BACKBONE|DICT|INTERRES
   165   84   85 1    
   166   84  205 1    
   167   85   86 1    
   168   85   87 1    
   169   85  206 1    
   170   86  207 1    
   171   86  208 1    
   172   86  209 1    
   173   87   88 2    
   174   87   89 am   BACKBONE|DICT|INTERRES
   175   89   90 1    
   176   89  210 1    
   177   90   91 1    
   178   90   92 1    
   179   90  211 1    
   180   91  212 1    
   181   91  213 1    
   182   91  214 1    
   183   92   93 2    
   184   92   94 am   BACKBONE|DICT|INTERRES
   185   94   95 1    
   186   94  215 1    
   187   95   96 1    
   188   95   97 1    
   189   95  216 1    
   190   96  217 1    
   191   96  218 1    
   192   96  219 1    
   193   97   98 2    
   194   97   99 am   BACKBONE|DICT|INTERRES
   195   99  100 1    
   196   99  220 1    
   197  100  101 1    
   198  100  102 1    
   199  100  221 1    
   200  101  222 1    
   201  101  223 1    
   202  101  224 1    
   203  102  103 2    
   204  102  104 am   BACKBONE|DICT|INTERRES
   205  104  105 1    
   206  104  225 1    
   207  105  106 1    
   208  105  107 1    
   209  105  226 1    
   210  106  227 1    
   211  106  228 1    
   212  106  229 1    
   213  107  108 2    
   214  107  109 am   BACKBONE|DICT|INTERRES
   215  109  110 1    
   216  109  230 1    
   217  110  111 1    
   218  110  112 1    
   219  110  231 1    
   220  111  232 1    
   221  111  233 1    
   222  111  234 1    
   223  112  113 2    
   224  112  114 am   BACKBONE|DICT|INTERRES
   225  114  115 1    
   226  114  235 1    
   227  115  116 1    
   228  115  117 1    
   229  115  236 1    
   230  116  237 1    
   231  116  238 1    
   232  116  239 1    
   233  117  118 2    
   234  117  119 am   BACKBONE|DICT|INTERRES
   235  119  120 1    
   236  119  240 1    
   237  120  121 1    
   238  120  124 1    
   239  120  241 1    
   240  121  122 am   BACKBONE|DICT|INTERRES
   241  121  123 2    
   242  122  242 1    
   243  122  243 1    
   244  124  125 1    
   245  124  244 1    
   246  124  245 1    
   247  125  126 1    
   248  126  246 1    
   249  126  247 1    
@<TRIPOS>SUBSTRUCTURE
     1 UNK         1 GROUP             0       ****    0 ROOT    
