@<TRIPOS>MOLECULE
3R540
247   249    1
SMALL
USER_CHARGES


@<TRIPOS>ATOM
      1 CA          5.2666  -13.6100  -50.5391 C.3       0 UNK        -0.1800 
      2 C           4.4863  -13.6370  -49.2333 C.2       0 UNK         0.5000 
      3 O           4.4415  -14.6718  -48.5669 O.2       0 UNK        -0.5000 
      4 N           3.8762  -12.5052  -48.8599 N.am      1 UNK        -0.5000 
      5 CA          3.0468  -12.3422  -47.6604 C.3       1 UNK         0.1400 
      6 C6          2.0006  -11.2070  -47.8083 C.3       23 UNK        -0.0398 
      7 S7          0.9274  -11.3877  -49.2773 S.3       23 UNK        -0.2404 
      8 C8         -0.2436  -12.6787  -48.7460 C.3       23 UNK        -0.0205 
      9 C9         -0.1715  -13.8905  -49.6637 C.ar      23 UNK        -0.0193 
     10 C10        -1.0590  -14.0266  -50.7386 C.ar      23 UNK        -0.1150 
     11 C11        -0.9822  -15.1382  -51.5864 C.ar      23 UNK        -0.0193 
     12 C12        -0.0017  -16.1046  -51.3588 C.ar      23 UNK        -0.1150 
     13 C13         0.8690  -15.9956  -50.2745 C.ar      23 UNK        -0.0193 
     14 C14         0.7820  -14.8856  -49.4332 C.ar      23 UNK        -0.1150 
     15 C15         1.8749  -17.1000  -49.9922 C.3       23 UNK        -0.0205 
     16 S16         1.5532  -17.9185  -48.3981 S.3       23 UNK        -0.2404 
     17 C17        -0.2024  -18.4142  -48.5429 C.3       23 UNK        -0.0398 
     18 CA         -0.4254  -19.9226  -48.2973 C.3       11 UNK         0.1400 
     19 N           0.2135  -20.3814  -47.0658 N.am      11 UNK        -0.5000 
     20 C           0.4042  -21.6590  -46.7219 C.2       10 UNK         0.5000 
     21 O           0.0244  -22.6131  -47.4003 O.2       10 UNK        -0.5000 
     22 CA          1.1275  -21.8991  -45.3842 C.3       10 UNK         0.1400 
     23 CB          2.6393  -22.0439  -45.6120 C.3       10 UNK        -0.1800 
     24 N           0.8893  -20.8200  -44.4214 N.am      10 UNK        -0.5000 
     25 C          -0.2797  -20.6137  -43.8008 C.2       9 UNK         0.5000 
     26 O          -1.2695  -21.3323  -43.9490 O.2       9 UNK        -0.5000 
     27 CA         -0.3584  -19.3656  -42.9013 C.3       9 UNK         0.1400 
     28 CB          0.5550  -19.5248  -41.6755 C.3       9 UNK        -0.1800 
     29 N          -0.0439  -18.1123  -43.6037 N.am      9 UNK        -0.5000 
     30 C          -0.7236  -17.6506  -44.6673 C.2       8 UNK         0.5000 
     31 O          -1.6213  -18.2878  -45.2139 O.2       8 UNK        -0.5000 
     32 CA         -0.3649  -16.2587  -45.2185 C.3       8 UNK         0.1400 
     33 CB         -1.5615  -15.5595  -45.8928 C.3       8 UNK        -0.1800 
     34 N           0.1536  -15.3911  -44.1681 N.am      8 UNK        -0.5000 
     35 C           1.1698  -14.5370  -44.3067 C.2       7 UNK         0.5000 
     36 O           1.8359  -14.4465  -45.3371 O.2       7 UNK        -0.5000 
     37 CA          1.5462  -13.6513  -43.1025 C.3       7 UNK         0.1400 
     38 CB          1.1929  -12.1751  -43.3657 C.3       7 UNK        -0.1800 
     39 N           1.0266  -14.1034  -41.8049 N.am      7 UNK        -0.5000 
     40 C          -0.2381  -14.1209  -41.3546 C.2       6 UNK         0.5000 
     41 O          -1.2035  -13.7512  -42.0218 O.2       6 UNK        -0.5000 
     42 CA         -0.4862  -14.6984  -39.9455 C.3       6 UNK         0.1400 
     43 CB         -1.2627  -16.0210  -40.0445 C.3       6 UNK        -0.1800 
     44 N           0.7481  -14.9346  -39.1948 N.am      6 UNK        -0.5000 
     45 C           1.4582  -13.9850  -38.5706 C.2       5 UNK         0.5000 
     46 O           1.1027  -12.8090  -38.4875 O.2       5 UNK        -0.5000 
     47 CA          2.8071  -14.4167  -37.9604 C.3       5 UNK         0.1400 
     48 CB          2.6477  -14.7134  -36.4614 C.3       5 UNK        -0.1800 
     49 N           3.4120  -15.5826  -38.6162 N.am      5 UNK        -0.5000 
     50 C           3.8309  -15.6220  -39.8889 C.2       4 UNK         0.5000 
     51 O           3.7383  -14.6623  -40.6579 O.2       4 UNK        -0.5000 
     52 CA          4.4652  -16.9473  -40.3632 C.3       4 UNK         0.1400 
     53 CB          3.6783  -18.1873  -39.8851 C.3       4 UNK        -0.1800 
     54 N           4.6786  -16.9905  -41.8139 N.am      4 UNK        -0.5000 
     55 C           3.7531  -17.0161  -42.7822 C.2       3 UNK         0.5000 
     56 O           2.5345  -17.0339  -42.5890 O.2       3 UNK        -0.5000 
     57 CA          4.3023  -16.9877  -44.2195 C.3       3 UNK         0.1400 
     58 CB          3.3914  -17.7350  -45.2062 C.3       3 UNK        -0.1800 
     59 N           4.4731  -15.6075  -44.6686 N.am      3 UNK        -0.5000 
     60 C           5.5134  -14.8247  -44.3470 C.2       2 UNK         0.5000 
     61 O           6.4620  -15.2172  -43.6649 O.2       2 UNK        -0.5000 
     62 CA          5.5038  -13.3773  -44.8788 C.3       2 UNK         0.1400 
     63 CB          6.9159  -12.8537  -45.2016 C.3       2 UNK        -0.1800 
     64 N           4.6567  -13.2544  -46.0626 N.am      2 UNK        -0.5000 
     65 C           3.9169  -12.1914  -46.3927 C.2       1 UNK         0.5000 
     66 O           3.9146  -11.1370  -45.7550 O.2       1 UNK        -0.5000 
     67 C          -1.9285  -20.2639  -48.3128 C.2       11 UNK         0.5000 
     68 O          -2.4377  -20.7288  -49.3348 O.2       11 UNK        -0.5000 
     69 N          -2.5940  -20.0645  -47.1666 N.am      12 UNK        -0.5000 
     70 CA         -3.9847  -20.4366  -46.9243 C.3       12 UNK         0.1400 
     71 CB         -4.4650  -19.8006  -45.6119 C.3       12 UNK        -0.1800 
     72 C          -4.1843  -21.9598  -46.8901 C.2       12 UNK         0.5000 
     73 O          -5.2133  -22.4386  -47.3620 O.2       12 UNK        -0.5000 
     74 N          -3.1925  -22.7004  -46.3729 N.am      13 UNK        -0.5000 
     75 CA         -3.1783  -24.1645  -46.3856 C.3       13 UNK         0.1400 
     76 CB         -2.0442  -24.6909  -45.4938 C.3       13 UNK        -0.1800 
     77 C          -3.0783  -24.7276  -47.8157 C.2       13 UNK         0.5000 
     78 O          -3.8006  -25.6672  -48.1473 O.2       13 UNK        -0.5000 
     79 N          -2.2375  -24.1069  -48.6563 N.am      14 UNK        -0.5000 
     80 CA         -2.1326  -24.4067  -50.0857 C.3       14 UNK         0.1400 
     81 CB         -0.9346  -23.6591  -50.6895 C.3       14 UNK        -0.1800 
     82 C          -3.4307  -24.0870  -50.8518 C.2       14 UNK         0.5000 
     83 O          -3.8683  -24.9024  -51.6626 O.2       14 UNK        -0.5000 
     84 N          -4.0478  -22.9374  -50.5426 N.am      15 UNK        -0.5000 
     85 CA         -5.3349  -22.5103  -51.0990 C.3       15 UNK         0.1400 
     86 CB         -5.6015  -21.0509  -50.7022 C.3       15 UNK        -0.1800 
     87 C          -6.5155  -23.4082  -50.6751 C.2       15 UNK         0.5000 
     88 O          -7.4703  -23.5558  -51.4362 O.2       15 UNK        -0.5000 
     89 N          -6.4412  -23.9966  -49.4742 N.am      16 UNK        -0.5000 
     90 CA         -7.3992  -24.9864  -48.9845 C.3       16 UNK         0.1400 
     91 CB         -7.2799  -25.1117  -47.4580 C.3       16 UNK        -0.1800 
     92 C          -7.2112  -26.3544  -49.6652 C.2       16 UNK         0.5000 
     93 O          -8.2024  -27.0193  -49.9691 O.2       16 UNK        -0.5000 
     94 N          -5.9500  -26.7476  -49.8961 N.am      17 UNK        -0.5000 
     95 CA         -5.5734  -27.9960  -50.5603 C.3       17 UNK         0.1400 
     96 CB         -4.0702  -28.2487  -50.3674 C.3       17 UNK        -0.1800 
     97 C          -5.9455  -28.0213  -52.0546 C.2       17 UNK         0.5000 
     98 O          -6.4128  -29.0523  -52.5411 O.2       17 UNK        -0.5000 
     99 N          -5.7496  -26.8943  -52.7481 N.am      18 UNK        -0.5000 
    100 CA        -6.1057  -26.7000  -54.1482 C.3       18 UNK         0.1400 
    101 CB        -4.8522  -26.8607  -55.0250 C.3       18 UNK        -0.1800 
    102 C         -6.7201  -25.3044  -54.2940 C.2       18 UNK         0.5000 
    103 O         -6.0114  -24.3136  -54.1258 O.2       18 UNK        -0.5000 
    104 N         -8.0198  -25.2440  -54.6130 N.am      19 UNK        -0.5000 
    105 CA        -8.8210  -24.0138  -54.6790 C.3       19 UNK         0.1400 
    106 CB       -10.2813  -24.3902  -54.9746 C.3       19 UNK        -0.1800 
    107 C         -8.3242  -22.9589  -55.6896 C.2       19 UNK         0.5000 
    108 O         -8.6073  -21.7729  -55.5161 O.2       19 UNK        -0.5000 
    109 N         -7.5992  -23.4049  -56.7229 N.am      20 UNK        -0.5000 
    110 CA        -6.9793  -22.5513  -57.7353 C.3       20 UNK         0.1400 
    111 CB        -6.7711  -23.3831  -59.0113 C.3       20 UNK        -0.1800 
    112 C         -5.6440  -21.9268  -57.2790 C.2       20 UNK         0.5000 
    113 O         -5.1778  -20.9869  -57.9254 O.2       20 UNK        -0.5000 
    114 N         -5.0319  -22.4611  -56.2131 N.am      21 UNK        -0.5000 
    115 CA        -3.7412  -22.0134  -55.6949 C.3       21 UNK         0.1400 
    116 CB        -3.0229  -23.2080  -55.0428 C.3       21 UNK        -0.1800 
    117 C         -3.8940  -20.8636  -54.6842 C.2       21 UNK         0.5000 
    118 O         -4.9780  -20.6295  -54.1459 O.2       21 UNK        -0.5000 
    119 N         -2.7701  -20.1964  -54.4201 N.am      22 UNK        -0.5000 
    120 CA        -2.5788  -19.2140  -53.3547 C.3       22 UNK         0.1400 
    121 C         -1.1103  -19.3532  -52.8936 C.2       22 UNK         0.5000 
    122 N         -0.8634  -19.8793  -51.7039 N.am      22 UNK        -0.7600 
    123 O         -0.1848  -19.0115  -53.6258 O.2       22 UNK        -0.5000 
    124 C124       -2.9530  -17.7776  -53.8089 C.3       23 UNK        -0.0398 
    125 S125       -3.1791  -16.6171  -52.4113 S.3       23 UNK        -0.2404 
    126 C126       -1.9479  -15.3099  -52.7500 C.3       23 UNK        -0.0205 
    127 H127        5.2201  -12.6324  -51.0194 H         1 UNK         0.0600 
    128 H128        4.8615  -14.3486  -51.2310 H         1 UNK         0.0600 
    129 H129        6.3136  -13.8506  -50.3555 H         1 UNK         0.0600 
    130 H130        3.9597  -11.6842  -49.4421 H         1 UNK         0.3000 
    131 H131        2.4822  -13.2611  -47.5187 H         1 UNK         0.0600 
    132 H132        2.5009  -10.2401  -47.8837 H         1 UNK         0.0800 
    133 H133        1.3682  -11.1505  -46.9203 H         1 UNK         0.0800 
    134 H134       -0.0405  -12.9826  -47.7182 H         1 UNK         0.0800 
    135 H135       -1.2530  -12.2647  -48.7461 H         1 UNK         0.0800 
    136 H136       -1.8077  -13.2670  -50.9146 H         1 UNK         0.1150 
    137 H137        0.0648  -16.9588  -52.0142 H         1 UNK         0.1150 
    138 H138        1.4523  -14.8157  -48.5906 H         1 UNK         0.1150 
    139 H139        1.8663  -17.8496  -50.7851 H         1 UNK         0.0800 
    140 H140        2.8794  -16.6746  -49.9767 H         1 UNK         0.0800 
    141 H141       -0.5880  -18.1448  -49.5259 H         1 UNK         0.0800 
    142 H142       -0.7707  -17.8180  -47.8304 H         1 UNK         0.0800 
    143 H143        0.0425  -20.4690  -49.1182 H         1 UNK         0.0600 
    144 H144        0.5569  -19.6632  -46.4477 H         1 UNK         0.3000 
    145 H145        0.7511  -22.8332  -44.9621 H         1 UNK         0.0600 
    146 H146        2.8522  -22.8617  -46.3019 H         1 UNK         0.0600 
    147 H147        3.0731  -21.1369  -46.0353 H         1 UNK         0.0600 
    148 H148        3.1601  -22.2629  -44.6797 H         1 UNK         0.0600 
    149 H149        1.6535  -20.1874  -44.2392 H         1 UNK         0.3000 
    150 H150       -1.3871  -19.2876  -42.5434 H         1 UNK         0.0600 
    151 H151        0.3279  -20.4446  -41.1353 H         1 UNK         0.0600 
    152 H152        0.4263  -18.7016  -40.9754 H         1 UNK         0.0600 
    153 H153        1.6082  -19.5613  -41.9556 H         1 UNK         0.0600 
    154 H154        0.7309  -17.5672  -43.2345 H         1 UNK         0.3000 
    155 H155        0.3971  -16.4219  -45.9813 H         1 UNK         0.0600 
    156 H156       -2.3717  -15.3861  -45.1837 H         1 UNK         0.0600 
    157 H157       -1.2696  -14.5952  -46.3077 H         1 UNK         0.0600 
    158 H158       -1.9658  -16.1508  -46.7143 H         1 UNK         0.0600 
    159 H159       -0.3567  -15.3835  -43.2955 H         1 UNK         0.3000 
    160 H160        2.6317  -13.7146  -43.0161 H         1 UNK         0.0600 
    161 H161        0.1223  -12.0293  -43.5099 H         1 UNK         0.0600 
    162 H162        1.6894  -11.8101  -44.2646 H         1 UNK         0.0600 
    163 H163        1.5121  -11.5401  -42.5394 H         1 UNK         0.0600 
    164 H164        1.7478  -14.4576  -41.1861 H         1 UNK         0.3000 
    165 H165       -1.1010  -13.9809  -39.3980 H         1 UNK         0.0600 
    166 H166       -1.4428  -16.4516  -39.0593 H         1 UNK         0.0600 
    167 H167       -2.2358  -15.8689  -40.5134 H         1 UNK         0.0600 
    168 H168       -0.7256  -16.7559  -40.6427 H         1 UNK         0.0600 
    169 H169        1.1150  -15.8748  -39.2077 H         1 UNK         0.3000 
    170 H170        3.4968  -13.5774  -38.0712 H         1 UNK         0.0600 
    171 H171        2.2248  -13.8561  -35.9359 H         1 UNK         0.0600 
    172 H172        1.9868  -15.5635  -36.2875 H         1 UNK         0.0600 
    173 H173        3.6094  -14.9338  -35.9978 H         1 UNK         0.0600 
    174 H174        3.5281  -16.4053  -38.0423 H         1 UNK         0.3000 
    175 H175        5.4592  -16.9894  -39.9161 H         1 UNK         0.0600 
    176 H176        2.6196  -18.1125  -40.1308 H         1 UNK         0.0600 
    177 H177        4.0630  -19.1004  -40.3396 H         1 UNK         0.0600 
    178 H178        3.7543  -18.3146  -38.8050 H         1 UNK         0.0600 
    179 H179        5.6408  -16.8767  -42.1051 H         1 UNK         0.3000 
    180 H180        5.2707  -17.4928  -44.2290 H         1 UNK         0.0600 
    181 H181        2.4142  -17.2648  -45.2894 H         1 UNK         0.0600 
    182 H182        3.2377  -18.7669  -44.8911 H         1 UNK         0.0600 
    183 H183        3.8322  -17.7609  -46.2029 H         1 UNK         0.0600 
    184 H184        3.6865  -15.1981  -45.1631 H         1 UNK         0.3000 
    185 H185        5.0851  -12.7679  -44.0753 H         1 UNK         0.0600 
    186 H186        7.5603  -12.8846  -44.3222 H         1 UNK         0.0600 
    187 H187        7.3920  -13.4477  -45.9824 H         1 UNK         0.0600 
    188 H188        6.8853  -11.8180  -45.5404 H         1 UNK         0.0600 
    189 H189        4.6308  -14.0559  -46.6878 H         1 UNK         0.3000 
    190 H190       -2.1157  -19.6129  -46.3896 H         1 UNK         0.3000 
    191 H191       -4.5893  -20.0348  -47.7393 H         1 UNK         0.0600 
    192 H192       -3.8689  -20.1356  -44.7618 H         1 UNK         0.0600 
    193 H193       -5.5052  -20.0584  -45.4090 H         1 UNK         0.0600 
    194 H194       -4.4014  -18.7132  -45.6558 H         1 UNK         0.0600 
    195 H195       -2.3874  -22.2322  -45.9798 H         1 UNK         0.3000 
    196 H196       -4.1233  -24.5086  -45.9599 H         1 UNK         0.0600 
    197 H197       -2.0845  -25.7783  -45.4202 H         1 UNK         0.0600 
    198 H198       -2.1201  -24.2927  -44.4817 H         1 UNK         0.0600 
    199 H199       -1.0617  -24.4291  -45.8837 H         1 UNK         0.0600 
    200 H200       -1.6324  -23.3777  -48.2930 H         1 UNK         0.3000 
    201 H201       -1.9450  -25.4776  -50.1871 H         1 UNK         0.0600 
    202 H202       -0.0046  -23.9443  -50.1974 H         1 UNK         0.0600 
    203 H203       -1.0413  -22.5794  -50.5970 H         1 UNK         0.0600 
    204 H204       -0.8267  -23.8875  -51.7506 H         1 UNK         0.0600 
    205 H205       -3.5974  -22.3013  -49.8937 H         1 UNK         0.3000 
    206 H206       -5.2570  -22.5591  -52.1866 H         1 UNK         0.0600 
    207 H207       -4.7765  -20.4021  -50.9935 H         1 UNK         0.0600 
    208 H208       -6.4989  -20.6750  -51.1949 H         1 UNK         0.0600 
    209 H209       -5.7487  -20.9465  -49.6278 H         1 UNK         0.0600 
    210 H210       -5.6831  -23.7418  -48.8511 H         1 UNK         0.3000 
    211 H211       -8.4076  -24.6348  -49.2128 H         1 UNK         0.0600 
    212 H212       -6.2902  -25.4527  -47.1548 H         1 UNK         0.0600 
    213 H213       -8.0065  -25.8253  -47.0677 H         1 UNK         0.0600 
    214 H214       -7.4677  -24.1557  -46.9690 H         1 UNK         0.0600 
    215 H215       -5.1902  -26.1653  -49.5606 H         1 UNK         0.3000 
    216 H216       -6.1145  -28.8090  -50.0716 H         1 UNK         0.0600 
    217 H217       -3.7718  -29.1934  -50.8235 H         1 UNK         0.0600 
    218 H218       -3.8118  -28.3018  -49.3097 H         1 UNK         0.0600 
    219 H219       -3.4670  -27.4615  -50.8196 H         1 UNK         0.0600 
    220 H220       -5.3271  -26.0906  -52.2884 H         1 UNK         0.3000 
    221 H221       -6.8457  -27.4392  -54.4623 H         1 UNK         0.0600 
    222 H222       -4.0592  -26.1760  -54.7211 H         1 UNK         0.0600 
    223 H223       -4.4576  -27.8748  -54.9626 H         1 UNK         0.0600 
    224 H224       -5.0781  -26.6609  -56.0731 H         1 UNK         0.0600 
    225 H225       -8.5271  -26.1074  -54.7424 H         1 UNK         0.3000 
    226 H226       -8.7872  -23.5469  -53.6938 H         1 UNK         0.0600 
    227 H227      -10.6833  -25.0489  -54.2045 H         1 UNK         0.0600 
    228 H228      -10.9163  -23.5036  -55.0039 H         1 UNK         0.0600 
    229 H229      -10.3790  -24.8958  -55.9361 H         1 UNK         0.0600 
    230 H230       -7.4185  -24.3956  -56.7883 H         1 UNK         0.3000 
    231 H231       -7.6600  -21.7312  -57.9735 H         1 UNK         0.0600 
    232 H232       -6.3421  -22.7756  -59.8094 H         1 UNK         0.0600 
    233 H233       -7.7160  -23.7815  -59.3814 H         1 UNK         0.0600 
    234 H234       -6.0961  -24.2224  -58.8388 H         1 UNK         0.0600 
    235 H235       -5.5125  -23.1597  -55.6546 H         1 UNK         0.3000 
    236 H236       -3.1249  -21.6624  -56.5256 H         1 UNK         0.0600 
    237 H237       -2.9617  -24.0550  -55.7262 H         1 UNK         0.0600 
    238 H238       -2.0027  -22.9474  -54.7594 H         1 UNK         0.0600 
    239 H239       -3.5317  -23.5423  -54.1384 H         1 UNK         0.0600 
    240 H240       -1.9169  -20.4592  -54.8952 H         1 UNK         0.3000 
    241 H241       -3.2250  -19.4890  -52.5191 H         1 UNK         0.0600 
    242 H242       -1.6066  -20.1913  -51.0892 H         1 UNK         0.3800 
    243 H243        0.0984  -20.0057  -51.4367 H         1 UNK         0.3800 
    244 H244       -2.2286  -17.3960  -54.5293 H         1 UNK         0.0800 
    245 H245       -3.9044  -17.8047  -54.3416 H         1 UNK         0.0800 
    246 H246       -1.3771  -15.5291  -53.6528 H         1 UNK         0.0800 
    247 H247       -2.4761  -14.3759  -52.9474 H         1 UNK         0.0800 
@<TRIPOS>BOND
     1    1    2 1    
     2    1  127 1    
     3    1  128 1    
     4    1  129 1    
     5    2    3 2    
     6    2    4 am   BACKBONE|DICT|INTERRES
     7    4    5 1    
     8    4  130 1    
     9    5    6 1    
    10    5   65 1    
    11    5  131 1    
    12    6    7 1    
    13    6  132 1    
    14    6  133 1    
    15    7    8 1    
    16    8    9 1    
    17    8  134 1    
    18    8  135 1    
    19    9   10 ar   
    20    9   14 ar   
    21   10   11 ar   
    22   10  136 1    
    23   11   12 ar   
    24   11  126 1    
    25   12   13 ar   
    26   12  137 1    
    27   13   14 ar   
    28   13   15 1    
    29   14  138 1    
    30   15   16 1    
    31   15  139 1    
    32   15  140 1    
    33   16   17 1    
    34   17   18 1    
    35   17  141 1    
    36   17  142 1    
    37   18   19 1    
    38   18   67 1    
    39   18  143 1    
    40   19   20 am   BACKBONE|DICT|INTERRES
    41   19  144 1    
    42   20   21 2    
    43   20   22 1    
    44   22   23 1    
    45   22   24 1    
    46   22  145 1    
    47   23  146 1    
    48   23  147 1    
    49   23  148 1    
    50   24   25 am   BACKBONE|DICT|INTERRES
    51   24  149 1    
    52   25   26 2    
    53   25   27 1    
    54   27   28 1    
    55   27   29 1    
    56   27  150 1    
    57   28  151 1    
    58   28  152 1    
    59   28  153 1    
    60   29   30 am   BACKBONE|DICT|INTERRES
    61   29  154 1    
    62   30   31 2    
    63   30   32 1    
    64   32   33 1    
    65   32   34 1    
    66   32  155 1    
    67   33  156 1    
    68   33  157 1    
    69   33  158 1    
    70   34   35 am   BACKBONE|DICT|INTERRES
    71   34  159 1    
    72   35   36 2    
    73   35   37 1    
    74   37   38 1    
    75   37   39 1    
    76   37  160 1    
    77   38  161 1    
    78   38  162 1    
    79   38  163 1    
    80   39   40 am   BACKBONE|DICT|INTERRES
    81   39  164 1    
    82   40   41 2    
    83   40   42 1    
    84   42   43 1    
    85   42   44 1    
    86   42  165 1    
    87   43  166 1    
    88   43  167 1    
    89   43  168 1    
    90   44   45 am   BACKBONE|DICT|INTERRES
    91   44  169 1    
    92   45   46 2    
    93   45   47 1    
    94   47   48 1    
    95   47   49 1    
    96   47  170 1    
    97   48  171 1    
    98   48  172 1    
    99   48  173 1    
   100   49   50 am   BACKBONE|DICT|INTERRES
   101   49  174 1    
   102   50   51 2    
   103   50   52 1    
   104   52   53 1    
   105   52   54 1    
   106   52  175 1    
   107   53  176 1    
   108   53  177 1    
   109   53  178 1    
   110   54   55 am   BACKBONE|DICT|INTERRES
   111   54  179 1    
   112   55   56 2    
   113   55   57 1    
   114   57   58 1    
   115   57   59 1    
   116   57  180 1    
   117   58  181 1    
   118   58  182 1    
   119   58  183 1    
   120   59   60 am   BACKBONE|DICT|INTERRES
   121   59  184 1    
   122   60   61 2    
   123   60   62 1    
   124   62   63 1    
   125   62   64 1    
   126   62  185 1    
   127   63  186 1    
   128   63  187 1    
   129   63  188 1    
   130   64   65 am   BACKBONE|DICT|INTERRES
   131   64  189 1    
   132   65   66 2    
   133   67   68 2    
   134   67   69 am   BACKBONE|DICT|INTERRES
   135   69   70 1    
   136   69  190 1    
   137   70   71 1    
   138   70   72 1    
   139   70  191 1    
   140   71  192 1    
   141   71  193 1    
   142   71  194 1    
   143   72   73 2    
   144   72   74 am   BACKBONE|DICT|INTERRES
   145   74   75 1    
   146   74  195 1    
   147   75   76 1    
   148   75   77 1    
   149   75  196 1    
   150   76  197 1    
   151   76  198 1    
   152   76  199 1    
   153   77   78 2    
   154   77   79 am   BACKBONE|DICT|INTERRES
   155   79   80 1    
   156   79  200 1    
   157   80   81 1    
   158   80   82 1    
   159   80  201 1    
   160   81  202 1    
   161   81  203 1    
   162   81  204 1    
   163   82   83 2    
   164   82   84 am   BACKBONE|DICT|INTERRES
   165   84   85 1    
   166   84  205 1    
   167   85   86 1    
   168   85   87 1    
   169   85  206 1    
   170   86  207 1    
   171   86  208 1    
   172   86  209 1    
   173   87   88 2    
   174   87   89 am   BACKBONE|DICT|INTERRES
   175   89   90 1    
   176   89  210 1    
   177   90   91 1    
   178   90   92 1    
   179   90  211 1    
   180   91  212 1    
   181   91  213 1    
   182   91  214 1    
   183   92   93 2    
   184   92   94 am   BACKBONE|DICT|INTERRES
   185   94   95 1    
   186   94  215 1    
   187   95   96 1    
   188   95   97 1    
   189   95  216 1    
   190   96  217 1    
   191   96  218 1    
   192   96  219 1    
   193   97   98 2    
   194   97   99 am   BACKBONE|DICT|INTERRES
   195   99  100 1    
   196   99  220 1    
   197  100  101 1    
   198  100  102 1    
   199  100  221 1    
   200  101  222 1    
   201  101  223 1    
   202  101  224 1    
   203  102  103 2    
   204  102  104 am   BACKBONE|DICT|INTERRES
   205  104  105 1    
   206  104  225 1    
   207  105  106 1    
   208  105  107 1    
   209  105  226 1    
   210  106  227 1    
   211  106  228 1    
   212  106  229 1    
   213  107  108 2    
   214  107  109 am   BACKBONE|DICT|INTERRES
   215  109  110 1    
   216  109  230 1    
   217  110  111 1    
   218  110  112 1    
   219  110  231 1    
   220  111  232 1    
   221  111  233 1    
   222  111  234 1    
   223  112  113 2    
   224  112  114 am   BACKBONE|DICT|INTERRES
   225  114  115 1    
   226  114  235 1    
   227  115  116 1    
   228  115  117 1    
   229  115  236 1    
   230  116  237 1    
   231  116  238 1    
   232  116  239 1    
   233  117  118 2    
   234  117  119 am   BACKBONE|DICT|INTERRES
   235  119  120 1    
   236  119  240 1    
   237  120  121 1    
   238  120  124 1    
   239  120  241 1    
   240  121  122 am   BACKBONE|DICT|INTERRES
   241  121  123 2    
   242  122  242 1    
   243  122  243 1    
   244  124  125 1    
   245  124  244 1    
   246  124  245 1    
   247  125  126 1    
   248  126  246 1    
   249  126  247 1    
@<TRIPOS>SUBSTRUCTURE
     1 UNK         1 GROUP             0       ****    0 ROOT    
