@<TRIPOS>MOLECULE
3R540
247   249    1
SMALL
USER_CHARGES


@<TRIPOS>ATOM
      1 CA         -2.1683  -12.6091  -50.4310 C.3       0 UNK        -0.1800 
      2 C          -0.7549  -12.7803  -49.8970 C.2       0 UNK         0.5000 
      3 O          -0.1113  -11.8000  -49.5234 O.2       0 UNK        -0.5000 
      4 N          -0.2735  -14.0285  -49.8536 N.am      1 UNK        -0.5000 
      5 CA          1.0831  -14.3952  -49.4190 C.3       1 UNK         0.1400 
      6 C6          1.5485  -15.7656  -49.9834 C.3       23 UNK        -0.0398 
      7 S7          1.2805  -15.9642  -51.7831 S.3       23 UNK        -0.2404 
      8 C8          0.0359  -17.2969  -51.8465 C.3       23 UNK        -0.0205 
      9 C9         -1.3144  -16.8363  -51.3201 C.ar      23 UNK        -0.0193 
     10 C10        -2.2260  -16.2004  -52.1679 C.ar      23 UNK        -0.1150 
     11 C11        -3.4500  -15.7361  -51.6750 C.ar      23 UNK        -0.0193 
     12 C12        -3.7514  -15.9044  -50.3204 C.ar      23 UNK        -0.1150 
     13 C13        -2.8514  -16.5465  -49.4665 C.ar      23 UNK        -0.0193 
     14 C14        -1.6432  -17.0245  -49.9760 C.ar      23 UNK        -0.1150 
     15 C15        -3.1691  -16.6947  -47.9894 C.3       23 UNK        -0.0205 
     16 S16        -3.5426  -18.4167  -47.5523 S.3       23 UNK        -0.2404 
     17 C17        -1.9860  -18.9475  -46.7488 C.3       23 UNK        -0.0398 
     18 CA         -1.7012  -20.4752  -46.7213 C.3       11 UNK         0.1400 
     19 N          -0.6166  -20.7932  -45.7871 N.am      11 UNK        -0.5000 
     20 C          -0.0868  -22.0070  -45.5771 C.2       10 UNK         0.5000 
     21 O          -0.4098  -23.0130  -46.2040 O.2       10 UNK        -0.5000 
     22 CA          0.9315  -22.1344  -44.4306 C.3       10 UNK         0.1400 
     23 CB          2.3159  -21.6358  -44.8687 C.3       10 UNK        -0.1800 
     24 N           0.5023  -21.4308  -43.2204 N.am      10 UNK        -0.5000 
     25 C          -0.6016  -21.7338  -42.5205 C.2       9 UNK         0.5000 
     26 O          -1.3473  -22.6747  -42.7932 O.2       9 UNK        -0.5000 
     27 CA         -0.9640  -20.7992  -41.3520 C.3       9 UNK         0.1400 
     28 CB         -0.1270  -21.1232  -40.1058 C.3       9 UNK        -0.1800 
     29 N          -0.8105  -19.3859  -41.6988 N.am      9 UNK        -0.5000 
     30 C          -1.5275  -18.7546  -42.6396 C.2       8 UNK         0.5000 
     31 O          -2.4373  -19.2865  -43.2765 O.2       8 UNK        -0.5000 
     32 CA         -1.1213  -17.3041  -42.9626 C.3       8 UNK         0.1400 
     33 CB         -1.6814  -16.3293  -41.9161 C.3       8 UNK        -0.1800 
     34 N           0.3307  -17.1459  -43.0616 N.am      8 UNK        -0.5000 
     35 C           1.1014  -17.7417  -43.9828 C.2       7 UNK         0.5000 
     36 O           0.6549  -18.4171  -44.9080 O.2       7 UNK        -0.5000 
     37 CA          2.6252  -17.6041  -43.8179 C.3       7 UNK         0.1400 
     38 CB          3.1504  -16.3340  -44.4999 C.3       7 UNK        -0.1800 
     39 N           3.0273  -17.6128  -42.4126 N.am      7 UNK        -0.5000 
     40 C           3.0034  -18.7011  -41.6310 C.2       6 UNK         0.5000 
     41 O           2.6724  -19.8183  -42.0270 O.2       6 UNK        -0.5000 
     42 CA          3.3685  -18.4929  -40.1496 C.3       6 UNK         0.1400 
     43 CB          4.8923  -18.5119  -39.9588 C.3       6 UNK        -0.1800 
     44 N           2.8266  -17.2431  -39.6126 N.am      6 UNK        -0.5000 
     45 C           1.5191  -16.9996  -39.4452 C.2       5 UNK         0.5000 
     46 O           0.6379  -17.8261  -39.6792 O.2       5 UNK        -0.5000 
     47 CA          1.1286  -15.5792  -38.9916 C.3       5 UNK         0.1400 
     48 CB          1.1280  -15.4848  -37.4589 C.3       5 UNK        -0.1800 
     49 N           1.9886  -14.5260  -39.5439 N.am      5 UNK        -0.5000 
     50 C           2.1383  -14.2710  -40.8501 C.2       4 UNK         0.5000 
     51 O           1.5808  -14.9197  -41.7403 O.2       4 UNK        -0.5000 
     52 CA          3.1010  -13.1362  -41.2265 C.3       4 UNK         0.1400 
     53 CB          4.5626  -13.5391  -40.9590 C.3       4 UNK        -0.1800 
     54 N           2.9294  -12.8423  -42.6436 N.am      4 UNK        -0.5000 
     55 C           3.1799  -11.6805  -43.2549 C.2       3 UNK         0.5000 
     56 O           3.6235  -10.6883  -42.6752 O.2       3 UNK        -0.5000 
     57 CA          2.9001  -11.6108  -44.7715 C.3       3 UNK         0.1400 
     58 CB          4.2190  -11.6110  -45.5601 C.3       3 UNK        -0.1800 
     59 N           2.0653  -12.7079  -45.2685 N.am      3 UNK        -0.5000 
     60 C           0.7468  -12.8295  -45.0806 C.2       2 UNK         0.5000 
     61 O           0.0706  -11.9939  -44.4787 O.2       2 UNK        -0.5000 
     62 CA          0.0866  -14.0967  -45.6700 C.3       2 UNK         0.1400 
     63 CB         -1.3847  -14.2405  -45.2417 C.3       2 UNK        -0.1800 
     64 N           0.1584  -14.1590  -47.1326 N.am      2 UNK        -0.5000 
     65 C           1.2537  -14.3645  -47.8807 C.2       1 UNK         0.5000 
     66 O           2.3733  -14.5426  -47.3998 O.2       1 UNK        -0.5000 
     67 C          -2.9558  -21.3265  -46.4333 C.2       11 UNK         0.5000 
     68 O          -3.4728  -21.9626  -47.3523 O.2       11 UNK        -0.5000 
     69 N          -3.3953  -21.3482  -45.1671 N.am      12 UNK        -0.5000 
     70 CA         -4.5493  -22.1202  -44.7078 C.3       12 UNK         0.1400 
     71 CB         -4.8451  -21.7760  -43.2402 C.3       12 UNK        -0.1800 
     72 C          -4.3717  -23.6386  -44.8937 C.2       12 UNK         0.5000 
     73 O          -5.2999  -24.3045  -45.3539 O.2       12 UNK        -0.5000 
     74 N          -3.1795  -24.1512  -44.5606 N.am      13 UNK        -0.5000 
     75 CA         -2.8146  -25.5604  -44.7026 C.3       13 UNK         0.1400 
     76 CB         -1.4995  -25.8221  -43.9525 C.3       13 UNK        -0.1800 
     77 C          -2.6991  -26.0120  -46.1706 C.2       13 UNK         0.5000 
     78 O          -3.1739  -27.0961  -46.5111 O.2       13 UNK        -0.5000 
     79 N          -2.0701  -25.1792  -47.0095 N.am      14 UNK        -0.5000 
     80 CA         -1.7739  -25.4750  -48.4122 C.3       14 UNK         0.1400 
     81 CB         -0.4440  -24.8002  -48.7861 C.3       14 UNK        -0.1800 
     82 C          -2.8957  -25.0613  -49.3856 C.2       14 UNK         0.5000 
     83 O          -2.7225  -25.2400  -50.5910 O.2       14 UNK        -0.5000 
     84 N          -4.0020  -24.5058  -48.8735 N.am      15 UNK        -0.5000 
     85 CA         -5.1891  -24.0531  -49.6099 C.3       15 UNK         0.1400 
     86 CB         -5.9051  -25.2425  -50.2851 C.3       15 UNK        -0.1800 
     87 C          -4.9056  -22.8847  -50.5813 C.2       15 UNK         0.5000 
     88 O          -5.4062  -22.8783  -51.7062 O.2       15 UNK        -0.5000 
     89 N          -4.1248  -21.9086  -50.0992 N.am      16 UNK        -0.5000 
     90 CA         -3.8016  -20.6153  -50.7120 C.3       16 UNK         0.1400 
     91 CB         -5.0321  -19.6940  -50.6030 C.3       16 UNK        -0.1800 
     92 C          -3.2456  -20.6811  -52.1599 C.2       16 UNK         0.5000 
     93 O          -3.8807  -20.1719  -53.0845 O.2       16 UNK        -0.5000 
     94 N          -2.0726  -21.2753  -52.4108 N.am      17 UNK        -0.5000 
     95 CA         -1.2066  -22.0470  -51.5296 C.3       17 UNK         0.1400 
     96 CB         -0.2386  -21.1222  -50.7696 C.3       17 UNK        -0.1800 
     97 C          -0.4553  -23.0213  -52.4452 C.2       17 UNK         0.5000 
     98 O           0.2659  -22.5694  -53.3368 O.2       17 UNK        -0.5000 
     99 N          -0.6916  -24.3258  -52.2616 N.am      18 UNK        -0.5000 
    100 CA        -0.1545  -25.4835  -52.9897 C.3       18 UNK         0.1400 
    101 CB         1.3846  -25.5325  -52.9387 C.3       18 UNK        -0.1800 
    102 C         -0.6851  -25.6026  -54.4299 C.2       18 UNK         0.5000 
    103 O         -1.2207  -26.6483  -54.7978 O.2       18 UNK        -0.5000 
    104 N         -0.5610  -24.5202  -55.2049 N.am      19 UNK        -0.5000 
    105 CA        -1.1116  -24.3793  -56.5528 C.3       19 UNK         0.1400 
    106 CB        -0.3180  -23.2908  -57.2930 C.3       19 UNK        -0.1800 
    107 C         -2.6138  -24.0322  -56.5494 C.2       19 UNK         0.5000 
    108 O         -3.2637  -24.1853  -57.5840 O.2       19 UNK        -0.5000 
    109 N         -3.1236  -23.5487  -55.4032 N.am      20 UNK        -0.5000 
    110 CA        -4.4852  -23.0440  -55.1742 C.3       20 UNK         0.1400 
    111 CB        -5.5103  -24.1952  -55.2239 C.3       20 UNK        -0.1800 
    112 C         -4.8405  -21.8655  -56.1082 C.2       20 UNK         0.5000 
    113 O         -5.9452  -21.8033  -56.6506 O.2       20 UNK        -0.5000 
    114 N         -3.8615  -20.9731  -56.3107 N.am      21 UNK        -0.5000 
    115 CA        -3.9189  -19.8561  -57.2519 C.3       21 UNK         0.1400 
    116 CB        -2.4877  -19.3557  -57.5031 C.3       21 UNK        -0.1800 
    117 C         -4.8226  -18.6958  -56.7955 C.2       21 UNK         0.5000 
    118 O         -5.2831  -17.9303  -57.6440 O.2       21 UNK        -0.5000 
    119 N         -5.0435  -18.5648  -55.4813 N.am      22 UNK        -0.5000 
    120 CA        -5.9021  -17.5340  -54.8836 C.3       22 UNK         0.1400 
    121 C         -7.4062  -17.7404  -55.2217 C.2       22 UNK         0.5000 
    122 N         -8.1174  -16.6880  -55.6034 N.am      22 UNK        -0.7600 
    123 O         -7.9414  -18.8405  -55.1062 O.2       22 UNK        -0.5000 
    124 C124       -5.6664  -17.4550  -53.3576 C.3       23 UNK        -0.0398 
    125 S125       -6.0705  -15.8228  -52.6516 S.3       23 UNK        -0.2404 
    126 C126       -4.4311  -15.0250  -52.5995 C.3       23 UNK        -0.0205 
    127 H127       -2.2453  -13.0164  -51.4389 H         1 UNK         0.0600 
    128 H128       -2.4435  -11.5550  -50.4701 H         1 UNK         0.0600 
    129 H129       -2.8841  -13.1237  -49.7902 H         1 UNK         0.0600 
    130 H130       -0.8414  -14.7921  -50.1974 H         1 UNK         0.3000 
    131 H131        1.7659  -13.6407  -49.8155 H         1 UNK         0.0600 
    132 H132        2.6188  -15.8866  -49.8066 H         1 UNK         0.0800 
    133 H133        1.0786  -16.5897  -49.4484 H         1 UNK         0.0800 
    134 H134        0.3951  -18.1565  -51.2799 H         1 UNK         0.0800 
    135 H135       -0.0689  -17.6358  -52.8782 H         1 UNK         0.0800 
    136 H136       -1.9738  -16.0559  -53.2092 H         1 UNK         0.1150 
    137 H137       -4.6898  -15.5325  -49.9336 H         1 UNK         0.1150 
    138 H138       -0.9509  -17.5274  -49.3184 H         1 UNK         0.1150 
    139 H139       -2.3287  -16.3280  -47.4020 H         1 UNK         0.0800 
    140 H140       -4.0245  -16.0742  -47.7182 H         1 UNK         0.0800 
    141 H141       -2.0267  -18.5623  -45.7316 H         1 UNK         0.0800 
    142 H142       -1.1423  -18.4395  -47.2156 H         1 UNK         0.0800 
    143 H143       -1.3544  -20.7611  -47.7162 H         1 UNK         0.0600 
    144 H144       -0.2423  -20.0087  -45.2592 H         1 UNK         0.3000 
    145 H145        1.0187  -23.1939  -44.1815 H         1 UNK         0.0600 
    146 H146        3.0519  -21.7662  -44.0753 H         1 UNK         0.0600 
    147 H147        2.6716  -22.1910  -45.7374 H         1 UNK         0.0600 
    148 H148        2.2985  -20.5809  -45.1402 H         1 UNK         0.0600 
    149 H149        1.0981  -20.6762  -42.8947 H         1 UNK         0.3000 
    150 H150       -2.0144  -20.9689  -41.1066 H         1 UNK         0.0600 
    151 H151       -0.2480  -22.1675  -39.8154 H         1 UNK         0.0600 
    152 H152       -0.4329  -20.5114  -39.2569 H         1 UNK         0.0600 
    153 H153        0.9357  -20.9501  -40.2751 H         1 UNK         0.0600 
    154 H154       -0.1180  -18.8596  -41.1746 H         1 UNK         0.3000 
    155 H155       -1.5498  -17.0424  -43.9309 H         1 UNK         0.0600 
    156 H156       -2.7717  -16.3279  -41.9346 H         1 UNK         0.0600 
    157 H157       -1.3492  -15.3082  -42.1019 H         1 UNK         0.0600 
    158 H158       -1.3746  -16.5977  -40.9060 H         1 UNK         0.0600 
    159 H159        0.7756  -16.5459  -42.3734 H         1 UNK         0.3000 
    160 H160        3.0911  -18.4602  -44.3096 H         1 UNK         0.0600 
    161 H161        2.7163  -15.4316  -44.0739 H         1 UNK         0.0600 
    162 H162        2.9126  -16.3465  -45.5634 H         1 UNK         0.0600 
    163 H163        4.2343  -16.2577  -44.4126 H         1 UNK         0.0600 
    164 H164        3.2542  -16.7215  -41.9982 H         1 UNK         0.3000 
    165 H165        2.9420  -19.3224  -39.5815 H         1 UNK         0.0600 
    166 H166        5.1580  -18.4398  -38.9040 H         1 UNK         0.0600 
    167 H167        5.3209  -19.4405  -40.3381 H         1 UNK         0.0600 
    168 H168        5.3763  -17.6877  -40.4844 H         1 UNK         0.0600 
    169 H169        3.4865  -16.5123  -39.3917 H         1 UNK         0.3000 
    170 H170        0.1122  -15.3918  -39.3432 H         1 UNK         0.0600 
    171 H171        0.4788  -16.2445  -37.0212 H         1 UNK         0.0600 
    172 H172        2.1270  -15.6286  -37.0454 H         1 UNK         0.0600 
    173 H173        0.7614  -14.5145  -37.1233 H         1 UNK         0.0600 
    174 H174        2.4845  -13.9556  -38.8740 H         1 UNK         0.3000 
    175 H175        2.8409  -12.2560  -40.6349 H         1 UNK         0.0600 
    176 H176        4.8456  -14.4249  -41.5292 H         1 UNK         0.0600 
    177 H177        5.2486  -12.7364  -41.2301 H         1 UNK         0.0600 
    178 H178        4.7277  -13.7586  -39.9037 H         1 UNK         0.0600 
    179 H179        2.4938  -13.5884  -43.1682 H         1 UNK         0.3000 
    180 H180        2.3844  -10.6682  -44.9662 H         1 UNK         0.0600 
    181 H181        4.7753  -12.5373  -45.4109 H         1 UNK         0.0600 
    182 H182        4.8625  -10.7867  -45.2495 H         1 UNK         0.0600 
    183 H183        4.0391  -11.4963  -46.6292 H         1 UNK         0.0600 
    184 H184        2.5215  -13.4062  -45.8491 H         1 UNK         0.3000 
    185 H185        0.6267  -14.9541  -45.2666 H         1 UNK         0.0600 
    186 H186       -1.4907  -14.1463  -44.1609 H         1 UNK         0.0600 
    187 H187       -2.0152  -13.4774  -45.6994 H         1 UNK         0.0600 
    188 H188       -1.7824  -15.2161  -45.5135 H         1 UNK         0.0600 
    189 H189       -0.7039  -13.9822  -47.6257 H         1 UNK         0.3000 
    190 H190       -2.9284  -20.7701  -44.4741 H         1 UNK         0.3000 
    191 H191       -5.4088  -21.8129  -45.3070 H         1 UNK         0.0600 
    192 H192       -5.0492  -20.7119  -43.1193 H         1 UNK         0.0600 
    193 H193       -5.7196  -22.3189  -42.8799 H         1 UNK         0.0600 
    194 H194       -4.0084  -22.0303  -42.5892 H         1 UNK         0.0600 
    195 H195       -2.4810  -23.5383  -44.1493 H         1 UNK         0.3000 
    196 H196       -3.5966  -26.1595  -44.2315 H         1 UNK         0.0600 
    197 H197       -1.2074  -26.8703  -44.0270 H         1 UNK         0.0600 
    198 H198       -1.5973  -25.5857  -42.8927 H         1 UNK         0.0600 
    199 H199       -0.6816  -25.2223  -44.3533 H         1 UNK         0.0600 
    200 H200       -1.6710  -24.3173  -46.6428 H         1 UNK         0.3000 
    201 H201       -1.6370  -26.5524  -48.5253 H         1 UNK         0.0600 
    202 H202        0.3350  -25.0356  -48.0607 H         1 UNK         0.0600 
    203 H203       -0.5411  -23.7150  -48.8297 H         1 UNK         0.0600 
    204 H204       -0.0851  -25.1456  -49.7546 H         1 UNK         0.0600 
    205 H205       -4.0152  -24.3360  -47.8764 H         1 UNK         0.3000 
    206 H206       -5.8689  -23.6529  -48.8563 H         1 UNK         0.0600 
    207 H207       -6.1072  -26.0390  -49.5691 H         1 UNK         0.0600 
    208 H208       -6.8632  -24.9335  -50.7045 H         1 UNK         0.0600 
    209 H209       -5.3152  -25.6641  -51.0995 H         1 UNK         0.0600 
    210 H210       -3.8008  -22.0193  -49.1393 H         1 UNK         0.3000 
    211 H211       -3.0223  -20.1700  -50.0950 H         1 UNK         0.0600 
    212 H212       -4.7770  -18.6739  -50.8892 H         1 UNK         0.0600 
    213 H213       -5.4072  -19.6538  -49.5807 H         1 UNK         0.0600 
    214 H214       -5.8491  -20.0314  -51.2414 H         1 UNK         0.0600 
    215 H215       -1.7214  -21.2365  -53.3563 H         1 UNK         0.3000 
    216 H216       -1.7891  -22.6211  -50.8125 H         1 UNK         0.0600 
    217 H217        0.4087  -21.6996  -50.1087 H         1 UNK         0.0600 
    218 H218       -0.7638  -20.3955  -50.1522 H         1 UNK         0.0600 
    219 H219        0.4059  -20.5697  -51.4541 H         1 UNK         0.0600 
    220 H220       -1.4011  -24.5857  -51.5765 H         1 UNK         0.3000 
    221 H221       -0.5217  -26.3580  -52.4499 H         1 UNK         0.0600 
    222 H222        1.8425  -24.7018  -53.4758 H         1 UNK         0.0600 
    223 H223        1.7443  -25.5054  -51.9101 H         1 UNK         0.0600 
    224 H224        1.7569  -26.4533  -53.3892 H         1 UNK         0.0600 
    225 H225       -0.1078  -23.7057  -54.7981 H         1 UNK         0.3000 
    226 H226       -0.9880  -25.3219  -57.0902 H         1 UNK         0.0600 
    227 H227        0.7394  -23.5484  -57.3556 H         1 UNK         0.0600 
    228 H228       -0.6819  -23.1655  -58.3138 H         1 UNK         0.0600 
    229 H229       -0.3988  -22.3239  -56.7945 H         1 UNK         0.0600 
    230 H230       -2.5002  -23.4987  -54.6124 H         1 UNK         0.3000 
    231 H231       -4.4976  -22.6405  -54.1627 H         1 UNK         0.0600 
    232 H232       -5.5910  -24.6260  -56.2221 H         1 UNK         0.0600 
    233 H233       -6.5021  -23.8450  -54.9355 H         1 UNK         0.0600 
    234 H234       -5.2372  -24.9930  -54.5331 H         1 UNK         0.0600 
    235 H235       -2.9922  -21.0974  -55.8159 H         1 UNK         0.3000 
    236 H236       -4.3191  -20.2291  -58.1971 H         1 UNK         0.0600 
    237 H237       -2.4800  -18.5403  -58.2276 H         1 UNK         0.0600 
    238 H238       -2.0246  -18.9854  -56.5876 H         1 UNK         0.0600 
    239 H239       -1.8562  -20.1494  -57.9032 H         1 UNK         0.0600 
    240 H240       -4.6483  -19.2470  -54.8433 H         1 UNK         0.3000 
    241 H241       -5.5820  -16.5853  -55.3199 H         1 UNK         0.0600 
    242 H242       -9.0965  -16.8067  -55.8127 H         1 UNK         0.3800 
    243 H243       -7.7016  -15.7730  -55.6851 H         1 UNK         0.3800 
    244 H244       -4.6226  -17.6695  -53.1317 H         1 UNK         0.0800 
    245 H245       -6.2418  -18.2201  -52.8349 H         1 UNK         0.0800 
    246 H246       -4.5532  -13.9970  -52.2564 H         1 UNK         0.0800 
    247 H247       -4.0357  -14.9648  -53.6147 H         1 UNK         0.0800 
@<TRIPOS>BOND
     1    1    2 1    
     2    1  127 1    
     3    1  128 1    
     4    1  129 1    
     5    2    3 2    
     6    2    4 am   BACKBONE|DICT|INTERRES
     7    4    5 1    
     8    4  130 1    
     9    5    6 1    
    10    5   65 1    
    11    5  131 1    
    12    6    7 1    
    13    6  132 1    
    14    6  133 1    
    15    7    8 1    
    16    8    9 1    
    17    8  134 1    
    18    8  135 1    
    19    9   10 ar   
    20    9   14 ar   
    21   10   11 ar   
    22   10  136 1    
    23   11   12 ar   
    24   11  126 1    
    25   12   13 ar   
    26   12  137 1    
    27   13   14 ar   
    28   13   15 1    
    29   14  138 1    
    30   15   16 1    
    31   15  139 1    
    32   15  140 1    
    33   16   17 1    
    34   17   18 1    
    35   17  141 1    
    36   17  142 1    
    37   18   19 1    
    38   18   67 1    
    39   18  143 1    
    40   19   20 am   BACKBONE|DICT|INTERRES
    41   19  144 1    
    42   20   21 2    
    43   20   22 1    
    44   22   23 1    
    45   22   24 1    
    46   22  145 1    
    47   23  146 1    
    48   23  147 1    
    49   23  148 1    
    50   24   25 am   BACKBONE|DICT|INTERRES
    51   24  149 1    
    52   25   26 2    
    53   25   27 1    
    54   27   28 1    
    55   27   29 1    
    56   27  150 1    
    57   28  151 1    
    58   28  152 1    
    59   28  153 1    
    60   29   30 am   BACKBONE|DICT|INTERRES
    61   29  154 1    
    62   30   31 2    
    63   30   32 1    
    64   32   33 1    
    65   32   34 1    
    66   32  155 1    
    67   33  156 1    
    68   33  157 1    
    69   33  158 1    
    70   34   35 am   BACKBONE|DICT|INTERRES
    71   34  159 1    
    72   35   36 2    
    73   35   37 1    
    74   37   38 1    
    75   37   39 1    
    76   37  160 1    
    77   38  161 1    
    78   38  162 1    
    79   38  163 1    
    80   39   40 am   BACKBONE|DICT|INTERRES
    81   39  164 1    
    82   40   41 2    
    83   40   42 1    
    84   42   43 1    
    85   42   44 1    
    86   42  165 1    
    87   43  166 1    
    88   43  167 1    
    89   43  168 1    
    90   44   45 am   BACKBONE|DICT|INTERRES
    91   44  169 1    
    92   45   46 2    
    93   45   47 1    
    94   47   48 1    
    95   47   49 1    
    96   47  170 1    
    97   48  171 1    
    98   48  172 1    
    99   48  173 1    
   100   49   50 am   BACKBONE|DICT|INTERRES
   101   49  174 1    
   102   50   51 2    
   103   50   52 1    
   104   52   53 1    
   105   52   54 1    
   106   52  175 1    
   107   53  176 1    
   108   53  177 1    
   109   53  178 1    
   110   54   55 am   BACKBONE|DICT|INTERRES
   111   54  179 1    
   112   55   56 2    
   113   55   57 1    
   114   57   58 1    
   115   57   59 1    
   116   57  180 1    
   117   58  181 1    
   118   58  182 1    
   119   58  183 1    
   120   59   60 am   BACKBONE|DICT|INTERRES
   121   59  184 1    
   122   60   61 2    
   123   60   62 1    
   124   62   63 1    
   125   62   64 1    
   126   62  185 1    
   127   63  186 1    
   128   63  187 1    
   129   63  188 1    
   130   64   65 am   BACKBONE|DICT|INTERRES
   131   64  189 1    
   132   65   66 2    
   133   67   68 2    
   134   67   69 am   BACKBONE|DICT|INTERRES
   135   69   70 1    
   136   69  190 1    
   137   70   71 1    
   138   70   72 1    
   139   70  191 1    
   140   71  192 1    
   141   71  193 1    
   142   71  194 1    
   143   72   73 2    
   144   72   74 am   BACKBONE|DICT|INTERRES
   145   74   75 1    
   146   74  195 1    
   147   75   76 1    
   148   75   77 1    
   149   75  196 1    
   150   76  197 1    
   151   76  198 1    
   152   76  199 1    
   153   77   78 2    
   154   77   79 am   BACKBONE|DICT|INTERRES
   155   79   80 1    
   156   79  200 1    
   157   80   81 1    
   158   80   82 1    
   159   80  201 1    
   160   81  202 1    
   161   81  203 1    
   162   81  204 1    
   163   82   83 2    
   164   82   84 am   BACKBONE|DICT|INTERRES
   165   84   85 1    
   166   84  205 1    
   167   85   86 1    
   168   85   87 1    
   169   85  206 1    
   170   86  207 1    
   171   86  208 1    
   172   86  209 1    
   173   87   88 2    
   174   87   89 am   BACKBONE|DICT|INTERRES
   175   89   90 1    
   176   89  210 1    
   177   90   91 1    
   178   90   92 1    
   179   90  211 1    
   180   91  212 1    
   181   91  213 1    
   182   91  214 1    
   183   92   93 2    
   184   92   94 am   BACKBONE|DICT|INTERRES
   185   94   95 1    
   186   94  215 1    
   187   95   96 1    
   188   95   97 1    
   189   95  216 1    
   190   96  217 1    
   191   96  218 1    
   192   96  219 1    
   193   97   98 2    
   194   97   99 am   BACKBONE|DICT|INTERRES
   195   99  100 1    
   196   99  220 1    
   197  100  101 1    
   198  100  102 1    
   199  100  221 1    
   200  101  222 1    
   201  101  223 1    
   202  101  224 1    
   203  102  103 2    
   204  102  104 am   BACKBONE|DICT|INTERRES
   205  104  105 1    
   206  104  225 1    
   207  105  106 1    
   208  105  107 1    
   209  105  226 1    
   210  106  227 1    
   211  106  228 1    
   212  106  229 1    
   213  107  108 2    
   214  107  109 am   BACKBONE|DICT|INTERRES
   215  109  110 1    
   216  109  230 1    
   217  110  111 1    
   218  110  112 1    
   219  110  231 1    
   220  111  232 1    
   221  111  233 1    
   222  111  234 1    
   223  112  113 2    
   224  112  114 am   BACKBONE|DICT|INTERRES
   225  114  115 1    
   226  114  235 1    
   227  115  116 1    
   228  115  117 1    
   229  115  236 1    
   230  116  237 1    
   231  116  238 1    
   232  116  239 1    
   233  117  118 2    
   234  117  119 am   BACKBONE|DICT|INTERRES
   235  119  120 1    
   236  119  240 1    
   237  120  121 1    
   238  120  124 1    
   239  120  241 1    
   240  121  122 am   BACKBONE|DICT|INTERRES
   241  121  123 2    
   242  122  242 1    
   243  122  243 1    
   244  124  125 1    
   245  124  244 1    
   246  124  245 1    
   247  125  126 1    
   248  126  246 1    
   249  126  247 1    
@<TRIPOS>SUBSTRUCTURE
     1 UNK         1 GROUP             0       ****    0 ROOT    
