@<TRIPOS>MOLECULE
3R540
247   249    1
SMALL
USER_CHARGES


@<TRIPOS>ATOM
      1 CA          4.3547  -17.6505  -48.0439 C.3       0 UNK        -0.1800 
      2 C           3.2634  -16.8565  -48.7487 C.2       0 UNK         0.5000 
      3 O           3.0785  -17.0066  -49.9557 O.2       0 UNK        -0.5000 
      4 N           2.5455  -16.0159  -47.9984 N.am      1 UNK        -0.5000 
      5 CA          1.4582  -15.1568  -48.4606 C.3       1 UNK         0.1400 
      6 C6          1.9803  -13.9916  -49.3570 C.3       23 UNK        -0.0398 
      7 S7          0.7137  -12.8946  -50.0973 S.3       23 UNK        -0.2404 
      8 C8          0.2313  -13.7894  -51.6105 C.3       23 UNK        -0.0205 
      9 C9         -0.4947  -15.0894  -51.2982 C.ar      23 UNK        -0.0193 
     10 C10         0.0878  -16.3145  -51.6289 C.ar      23 UNK        -0.1150 
     11 C11        -0.5551  -17.5118  -51.3104 C.ar      23 UNK        -0.0193 
     12 C12        -1.7880  -17.4794  -50.6526 C.ar      23 UNK        -0.1150 
     13 C13        -2.3899  -16.2597  -50.3159 C.ar      23 UNK        -0.0193 
     14 C14        -1.7375  -15.0705  -50.6572 C.ar      23 UNK        -0.1150 
     15 C15        -3.7392  -16.1637  -49.5982 C.3       23 UNK        -0.0205 
     16 S16        -4.3608  -17.6861  -48.8019 S.3       23 UNK        -0.2404 
     17 C17        -3.1059  -18.0056  -47.5155 C.3       23 UNK        -0.0398 
     18 CA         -2.7359  -19.5110  -47.4376 C.3       11 UNK         0.1400 
     19 N          -1.3313  -19.7003  -47.0519 N.am      11 UNK        -0.5000 
     20 C          -0.6778  -20.8708  -47.0529 C.2       10 UNK         0.5000 
     21 O          -1.1948  -21.9469  -47.3550 O.2       10 UNK        -0.5000 
     22 CA          0.7794  -20.8354  -46.5723 C.3       10 UNK         0.1400 
     23 CB          1.5131  -19.5377  -46.9588 C.3       10 UNK        -0.1800 
     24 N           0.8506  -21.0007  -45.1241 N.am      10 UNK        -0.5000 
     25 C           0.6920  -22.1503  -44.4524 C.2       9 UNK         0.5000 
     26 O           0.3422  -23.2066  -44.9762 O.2       9 UNK        -0.5000 
     27 CA          0.9849  -22.1028  -42.9376 C.3       9 UNK         0.1400 
     28 CB          1.4115  -23.4669  -42.3591 C.3       9 UNK        -0.1800 
     29 N           1.9453  -21.0488  -42.5929 N.am      9 UNK        -0.5000 
     30 C           3.2316  -20.9433  -42.9625 C.2       8 UNK         0.5000 
     31 O           3.8629  -21.8282  -43.5399 O.2       8 UNK        -0.5000 
     32 CA          3.9141  -19.5907  -42.6814 C.3       8 UNK         0.1400 
     33 CB          3.9635  -18.7491  -43.9678 C.3       8 UNK        -0.1800 
     34 N           3.2154  -18.8271  -41.6449 N.am      8 UNK        -0.5000 
     35 C           3.4624  -18.9324  -40.3317 C.2       7 UNK         0.5000 
     36 O           4.3838  -19.5968  -39.8567 O.2       7 UNK        -0.5000 
     37 CA          2.4914  -18.1959  -39.3892 C.3       7 UNK         0.1400 
     38 CB          2.9615  -16.7543  -39.1434 C.3       7 UNK        -0.1800 
     39 N           1.1153  -18.1965  -39.8986 N.am      7 UNK        -0.5000 
     40 C           0.3404  -19.2927  -39.9378 C.2       6 UNK         0.5000 
     41 O           0.6969  -20.3874  -39.5032 O.2       6 UNK        -0.5000 
     42 CA         -1.0499  -19.1807  -40.5929 C.3       6 UNK         0.1400 
     43 CB         -2.1461  -19.0756  -39.5225 C.3       6 UNK        -0.1800 
     44 N          -1.1913  -18.0638  -41.5251 N.am      6 UNK        -0.5000 
     45 C          -0.5497  -17.9245  -42.6920 C.2       5 UNK         0.5000 
     46 O           0.2568  -18.7448  -43.1346 O.2       5 UNK        -0.5000 
     47 CA         -0.8203  -16.6303  -43.4850 C.3       5 UNK         0.1400 
     48 CB         -2.0748  -15.8606  -43.0157 C.3       5 UNK        -0.1800 
     49 N           0.3472  -15.7457  -43.4902 N.am      5 UNK        -0.5000 
     50 C           1.0330  -15.2926  -42.4280 C.2       4 UNK         0.5000 
     51 O           0.7536  -15.5667  -41.2604 O.2       4 UNK        -0.5000 
     52 CA          2.2324  -14.3779  -42.7209 C.3       4 UNK         0.1400 
     53 CB          3.4304  -15.2016  -43.2165 C.3       4 UNK        -0.1800 
     54 N           1.8813  -13.3827  -43.7313 N.am      4 UNK        -0.5000 
     55 C           1.6560  -12.0847  -43.4863 C.2       3 UNK         0.5000 
     56 O           1.8232  -11.5521  -42.3884 O.2       3 UNK        -0.5000 
     57 CA          1.1380  -11.2342  -44.6656 C.3       3 UNK         0.1400 
     58 CB          2.3094  -10.5706  -45.4055 C.3       3 UNK        -0.1800 
     59 N           0.3454  -12.0043  -45.6262 N.am      3 UNK        -0.5000 
     60 C          -0.8242  -12.5999  -45.3540 C.2       2 UNK         0.5000 
     61 O          -1.4260  -12.4617  -44.2894 O.2       2 UNK        -0.5000 
     62 CA         -1.4182  -13.5210  -46.4397 C.3       2 UNK         0.1400 
     63 CB         -2.5479  -12.7860  -47.1774 C.3       2 UNK        -0.1800 
     64 N          -0.4635  -14.0250  -47.4340 N.am      2 UNK        -0.5000 
     65 C           0.6683  -14.7061  -47.2138 C.2       1 UNK         0.5000 
     66 O           1.0896  -14.9793  -46.0843 O.2       1 UNK        -0.5000 
     67 C          -3.7229  -20.2850  -46.5298 C.2       11 UNK         0.5000 
     68 O          -4.8540  -20.5563  -46.9352 O.2       11 UNK        -0.5000 
     69 N          -3.2715  -20.6155  -45.3131 N.am      12 UNK        -0.5000 
     70 CA         -4.0358  -21.3189  -44.2924 C.3       12 UNK         0.1400 
     71 CB         -3.4291  -20.9806  -42.9215 C.3       12 UNK        -0.1800 
     72 C          -4.0854  -22.8467  -44.4832 C.2       12 UNK         0.5000 
     73 O          -5.0089  -23.4625  -43.9488 O.2       12 UNK        -0.5000 
     74 N          -3.1097  -23.4484  -45.1846 N.am      13 UNK        -0.5000 
     75 CA         -2.9782  -24.9074  -45.2447 C.3       13 UNK         0.1400 
     76 CB         -2.3102  -25.4436  -43.9629 C.3       13 UNK        -0.1800 
     77 C          -2.2517  -25.4046  -46.5006 C.2       13 UNK         0.5000 
     78 O          -2.8533  -26.1427  -47.2821 O.2       13 UNK        -0.5000 
     79 N          -0.9729  -25.0337  -46.6630 N.am      14 UNK        -0.5000 
     80 CA         -0.0819  -25.5473  -47.7128 C.3       14 UNK         0.1400 
     81 CB          1.3423  -25.0204  -47.4856 C.3       14 UNK        -0.1800 
     82 C          -0.5584  -25.2258  -49.1403 C.2       14 UNK         0.5000 
     83 O          -0.3965  -26.0497  -50.0415 O.2       14 UNK        -0.5000 
     84 N          -1.1796  -24.0560  -49.2973 N.am      15 UNK        -0.5000 
     85 CA         -1.9444  -23.6526  -50.4638 C.3       15 UNK         0.1400 
     86 CB         -1.1092  -22.6925  -51.3263 C.3       15 UNK        -0.1800 
     87 C          -3.2329  -23.0217  -49.9267 C.2       15 UNK         0.5000 
     88 O          -3.3838  -21.8024  -49.9729 O.2       15 UNK        -0.5000 
     89 N          -4.1052  -23.8653  -49.3563 N.am      16 UNK        -0.5000 
     90 CA         -5.3664  -23.4935  -48.7105 C.3       16 UNK         0.1400 
     91 CB         -6.1126  -24.7680  -48.2880 C.3       16 UNK        -0.1800 
     92 C          -6.2561  -22.6070  -49.6040 C.2       16 UNK         0.5000 
     93 O          -6.6405  -23.0345  -50.6951 O.2       16 UNK        -0.5000 
     94 N          -6.5143  -21.3746  -49.1433 N.am      17 UNK        -0.5000 
     95 CA         -7.2330  -20.3020  -49.8457 C.3       17 UNK         0.1400 
     96 CB         -8.7240  -20.6614  -50.0123 C.3       17 UNK        -0.1800 
     97 C          -6.5588  -19.8927  -51.1759 C.2       17 UNK         0.5000 
     98 O          -7.2407  -19.5166  -52.1300 O.2       17 UNK        -0.5000 
     99 N          -5.2248  -20.0138  -51.2104 N.am      18 UNK        -0.5000 
    100 CA        -4.2966  -19.7918  -52.3211 C.3       18 UNK         0.1400 
    101 CB        -4.4506  -18.3820  -52.9177 C.3       18 UNK        -0.1800 
    102 C         -4.3260  -20.8928  -53.3987 C.2       18 UNK         0.5000 
    103 O         -3.5739  -20.7963  -54.3714 O.2       18 UNK        -0.5000 
    104 N         -5.1823  -21.9134  -53.2206 N.am      19 UNK        -0.5000 
    105 CA        -5.3412  -23.1340  -54.0247 C.3       19 UNK         0.1400 
    106 CB        -4.1351  -24.0628  -53.7802 C.3       19 UNK        -0.1800 
    107 C         -5.6006  -22.9151  -55.5345 C.2       19 UNK         0.5000 
    108 O         -5.4448  -23.8537  -56.3169 O.2       19 UNK        -0.5000 
    109 N         -5.9509  -21.6778  -55.9212 N.am      20 UNK        -0.5000 
    110 CA        -5.9672  -21.1410  -57.2886 C.3       20 UNK         0.1400 
    111 CB        -7.0860  -21.7968  -58.1245 C.3       20 UNK        -0.1800 
    112 C         -4.5833  -21.1989  -57.9837 C.2       20 UNK         0.5000 
    113 O         -4.5181  -21.2241  -59.2142 O.2       20 UNK        -0.5000 
    114 N         -3.5063  -21.2272  -57.1859 N.am      21 UNK        -0.5000 
    115 CA        -2.1244  -21.4095  -57.6253 C.3       21 UNK         0.1400 
    116 CB        -1.5418  -22.6417  -56.9139 C.3       21 UNK        -0.1800 
    117 C         -1.2634  -20.1721  -57.3297 C.2       21 UNK         0.5000 
    118 O         -0.4138  -19.8257  -58.1518 O.2       21 UNK        -0.5000 
    119 N         -1.4935  -19.5295  -56.1780 N.am      22 UNK        -0.5000 
    120 CA        -0.7441  -18.3539  -55.6960 C.3       22 UNK         0.1400 
    121 C         -1.6285  -17.0942  -55.4703 C.2       22 UNK         0.5000 
    122 N         -2.8878  -17.0897  -55.8918 N.am      22 UNK        -0.7600 
    123 O         -1.1572  -16.0853  -54.9541 O.2       22 UNK        -0.5000 
    124 C124        0.1820  -18.7007  -54.4954 C.3       23 UNK        -0.0398 
    125 S125       -0.6395  -19.5986  -53.1327 S.3       23 UNK        -0.2404 
    126 C126        0.0935  -18.8431  -51.6489 C.3       23 UNK        -0.0205 
    127 H127        4.2885  -17.5554  -46.9597 H         1 UNK         0.0600 
    128 H128        5.3363  -17.2971  -48.3589 H         1 UNK         0.0600 
    129 H129        4.2760  -18.7074  -48.2982 H         1 UNK         0.0600 
    130 H130        2.6994  -15.9545  -46.9992 H         1 UNK         0.3000 
    131 H131        0.7814  -15.7874  -49.0345 H         1 UNK         0.0600 
    132 H132        2.6641  -13.3656  -48.7816 H         1 UNK         0.0800 
    133 H133        2.5770  -14.3926  -50.1768 H         1 UNK         0.0800 
    134 H134       -0.4262  -13.1526  -52.2038 H         1 UNK         0.0800 
    135 H135        1.1163  -13.9699  -52.2227 H         1 UNK         0.0800 
    136 H136        1.0512  -16.3375  -52.1184 H         1 UNK         0.1150 
    137 H137       -2.2702  -18.4133  -50.4088 H         1 UNK         0.1150 
    138 H138       -2.1910  -14.1209  -50.4091 H         1 UNK         0.1150 
    139 H139       -3.6892  -15.3898  -48.8337 H         1 UNK         0.0800 
    140 H140       -4.4852  -15.8319  -50.3213 H         1 UNK         0.0800 
    141 H141       -3.4632  -17.6215  -46.5580 H         1 UNK         0.0800 
    142 H142       -2.2221  -17.4129  -47.7539 H         1 UNK         0.0800 
    143 H143       -2.8223  -19.9344  -48.4372 H         1 UNK         0.0600 
    144 H144       -0.8235  -18.8730  -46.7787 H         1 UNK         0.3000 
    145 H145        1.3009  -21.6672  -47.0479 H         1 UNK         0.0600 
    146 H146        2.5750  -19.6210  -46.7291 H         1 UNK         0.0600 
    147 H147        1.4287  -19.3408  -48.0287 H         1 UNK         0.0600 
    148 H148        1.1324  -18.6656  -46.4255 H         1 UNK         0.0600 
    149 H149        1.0501  -20.1705  -44.5803 H         1 UNK         0.3000 
    150 H150        0.0463  -21.8243  -42.4584 H         1 UNK         0.0600 
    151 H151        1.6357  -23.3900  -41.2951 H         1 UNK         0.0600 
    152 H152        0.6156  -24.2037  -42.4694 H         1 UNK         0.0600 
    153 H153        2.2933  -23.8648  -42.8617 H         1 UNK         0.0600 
    154 H154        1.5312  -20.2288  -42.1722 H         1 UNK         0.3000 
    155 H155        4.9400  -19.7954  -42.3680 H         1 UNK         0.0600 
    156 H156        2.9684  -18.4372  -44.2878 H         1 UNK         0.0600 
    157 H157        4.4120  -19.3103  -44.7887 H         1 UNK         0.0600 
    158 H158        4.5694  -17.8549  -43.8261 H         1 UNK         0.0600 
    159 H159        2.4291  -18.2687  -41.9445 H         1 UNK         0.3000 
    160 H160        2.4983  -18.7173  -38.4295 H         1 UNK         0.0600 
    161 H161        3.0518  -16.1917  -40.0721 H         1 UNK         0.0600 
    162 H162        3.9400  -16.7434  -38.6618 H         1 UNK         0.0600 
    163 H163        2.2717  -16.2183  -38.4913 H         1 UNK         0.0600 
    164 H164        0.7683  -17.3218  -40.2817 H         1 UNK         0.3000 
    165 H165       -1.2115  -20.1031  -41.1519 H         1 UNK         0.0600 
    166 H166       -3.1391  -19.0934  -39.9720 H         1 UNK         0.0600 
    167 H167       -2.0932  -19.9116  -38.8237 H         1 UNK         0.0600 
    168 H168       -2.0545  -18.1562  -38.9427 H         1 UNK         0.0600 
    169 H169       -1.7978  -17.3127  -41.2295 H         1 UNK         0.3000 
    170 H170       -0.9852  -16.9353  -44.5192 H         1 UNK         0.0600 
    171 H171       -2.9594  -16.4989  -43.0289 H         1 UNK         0.0600 
    172 H172       -1.9626  -15.4609  -42.0073 H         1 UNK         0.0600 
    173 H173       -2.2838  -15.0183  -43.6732 H         1 UNK         0.0600 
    174 H174        0.6812  -15.4890  -44.4162 H         1 UNK         0.3000 
    175 H175        2.5195  -13.8940  -41.7849 H         1 UNK         0.0600 
    176 H176        3.2089  -15.7181  -44.1512 H         1 UNK         0.0600 
    177 H177        4.2991  -14.5654  -43.3862 H         1 UNK         0.0600 
    178 H178        3.7187  -15.9530  -42.4810 H         1 UNK         0.0600 
    179 H179        1.6826  -13.7386  -44.6596 H         1 UNK         0.3000 
    180 H180        0.5006  -10.4490  -44.2538 H         1 UNK         0.0600 
    181 H181        1.9535   -9.9092  -46.1958 H         1 UNK         0.0600 
    182 H182        2.9708  -11.3105  -45.8581 H         1 UNK         0.0600 
    183 H183        2.9098   -9.9667  -44.7238 H         1 UNK         0.0600 
    184 H184        0.7544  -12.1531  -46.5363 H         1 UNK         0.3000 
    185 H185       -1.8437  -14.3891  -45.9342 H         1 UNK         0.0600 
    186 H186       -3.3095  -12.4352  -46.4796 H         1 UNK         0.0600 
    187 H187       -3.0454  -13.4339  -47.8960 H         1 UNK         0.0600 
    188 H188       -2.1724  -11.9161  -47.7180 H         1 UNK         0.0600 
    189 H189       -0.6874  -13.8087  -48.3962 H         1 UNK         0.3000 
    190 H190       -2.3249  -20.3624  -45.0752 H         1 UNK         0.3000 
    191 H191       -5.0638  -20.9503  -44.3094 H         1 UNK         0.0600 
    192 H192       -3.4331  -19.9055  -42.7401 H         1 UNK         0.0600 
    193 H193       -3.9968  -21.4465  -42.1150 H         1 UNK         0.0600 
    194 H194       -2.4005  -21.3332  -42.8441 H         1 UNK         0.0600 
    195 H195       -2.4059  -22.9015  -45.6667 H         1 UNK         0.3000 
    196 H196       -3.9787  -25.3430  -45.2980 H         1 UNK         0.0600 
    197 H197       -2.1585  -26.5222  -44.0211 H         1 UNK         0.0600 
    198 H198       -2.9264  -25.2529  -43.0843 H         1 UNK         0.0600 
    199 H199       -1.3373  -24.9838  -43.7919 H         1 UNK         0.0600 
    200 H200       -0.5475  -24.3937  -45.9930 H         1 UNK         0.3000 
    201 H201       -0.0583  -26.6344  -47.6147 H         1 UNK         0.0600 
    202 H202        1.7121  -25.2934  -46.4970 H         1 UNK         0.0600 
    203 H203        1.3840  -23.9352  -47.5707 H         1 UNK         0.0600 
    204 H204        2.0346  -25.4347  -48.2194 H         1 UNK         0.0600 
    205 H205       -1.2528  -23.4322  -48.4949 H         1 UNK         0.3000 
    206 H206       -2.2208  -24.5198  -51.0667 H         1 UNK         0.0600 
    207 H207       -0.2115  -23.1813  -51.7044 H         1 UNK         0.0600 
    208 H208       -1.6818  -22.3479  -52.1881 H         1 UNK         0.0600 
    209 H209       -0.7985  -21.8140  -50.7605 H         1 UNK         0.0600 
    210 H210       -3.8667  -24.8464  -49.3211 H         1 UNK         0.3000 
    211 H211       -5.1112  -22.9471  -47.8026 H         1 UNK         0.0600 
    212 H212       -6.3404  -25.4033  -49.1448 H         1 UNK         0.0600 
    213 H213       -7.0565  -24.5231  -47.7995 H         1 UNK         0.0600 
    214 H214       -5.5257  -25.3542  -47.5810 H         1 UNK         0.0600 
    215 H215       -6.0750  -21.0957  -48.2675 H         1 UNK         0.3000 
    216 H216       -7.1747  -19.4258  -49.1983 H         1 UNK         0.0600 
    217 H217       -9.2893  -19.8138  -50.4013 H         1 UNK         0.0600 
    218 H218       -9.1718  -20.9373  -49.0577 H         1 UNK         0.0600 
    219 H219       -8.8665  -21.4929  -50.7031 H         1 UNK         0.0600 
    220 H220       -4.7758  -20.4187  -50.3943 H         1 UNK         0.3000 
    221 H221       -3.3053  -19.8508  -51.8742 H         1 UNK         0.0600 
    222 H222       -5.3262  -18.3015  -53.5620 H         1 UNK         0.0600 
    223 H223       -4.5324  -17.6257  -52.1381 H         1 UNK         0.0600 
    224 H224       -3.5757  -18.1308  -53.5134 H         1 UNK         0.0600 
    225 H225       -5.7543  -21.8899  -52.3846 H         1 UNK         0.3000 
    226 H226       -6.2298  -23.6355  -53.6391 H         1 UNK         0.0600 
    227 H227       -4.0198  -24.2772  -52.7186 H         1 UNK         0.0600 
    228 H228       -4.2595  -25.0207  -54.2863 H         1 UNK         0.0600 
    229 H229       -3.2054  -23.6196  -54.1385 H         1 UNK         0.0600 
    230 H230       -6.0560  -20.9911  -55.1877 H         1 UNK         0.3000 
    231 H231       -6.2079  -20.0815  -57.1927 H         1 UNK         0.0600 
    232 H232       -6.8741  -22.8450  -58.3360 H         1 UNK         0.0600 
    233 H233       -7.2070  -21.2897  -59.0824 H         1 UNK         0.0600 
    234 H234       -8.0450  -21.7453  -57.6091 H         1 UNK         0.0600 
    235 H235       -3.6482  -21.1713  -56.1801 H         1 UNK         0.3000 
    236 H236       -2.0852  -21.5901  -58.7014 H         1 UNK         0.0600 
    237 H237       -2.1182  -23.5377  -57.1453 H         1 UNK         0.0600 
    238 H238       -0.5131  -22.8249  -57.2268 H         1 UNK         0.0600 
    239 H239       -1.5398  -22.5176  -55.8299 H         1 UNK         0.0600 
    240 H240       -2.1854  -19.8962  -55.5321 H         1 UNK         0.3000 
    241 H241       -0.0748  -18.0233  -56.4917 H         1 UNK         0.0600 
    242 H242       -3.4487  -16.2630  -55.7623 H         1 UNK         0.3800 
    243 H243       -3.2736  -17.8938  -56.3584 H         1 UNK         0.3800 
    244 H244        0.6698  -17.8042  -54.1114 H         1 UNK         0.0800 
    245 H245        0.9924  -19.3381  -54.8505 H         1 UNK         0.0800 
    246 H246       -0.0354  -19.5240  -50.8068 H         1 UNK         0.0800 
    247 H247        1.1707  -18.7303  -51.7828 H         1 UNK         0.0800 
@<TRIPOS>BOND
     1    1    2 1    
     2    1  127 1    
     3    1  128 1    
     4    1  129 1    
     5    2    3 2    
     6    2    4 am   BACKBONE|DICT|INTERRES
     7    4    5 1    
     8    4  130 1    
     9    5    6 1    
    10    5   65 1    
    11    5  131 1    
    12    6    7 1    
    13    6  132 1    
    14    6  133 1    
    15    7    8 1    
    16    8    9 1    
    17    8  134 1    
    18    8  135 1    
    19    9   10 ar   
    20    9   14 ar   
    21   10   11 ar   
    22   10  136 1    
    23   11   12 ar   
    24   11  126 1    
    25   12   13 ar   
    26   12  137 1    
    27   13   14 ar   
    28   13   15 1    
    29   14  138 1    
    30   15   16 1    
    31   15  139 1    
    32   15  140 1    
    33   16   17 1    
    34   17   18 1    
    35   17  141 1    
    36   17  142 1    
    37   18   19 1    
    38   18   67 1    
    39   18  143 1    
    40   19   20 am   BACKBONE|DICT|INTERRES
    41   19  144 1    
    42   20   21 2    
    43   20   22 1    
    44   22   23 1    
    45   22   24 1    
    46   22  145 1    
    47   23  146 1    
    48   23  147 1    
    49   23  148 1    
    50   24   25 am   BACKBONE|DICT|INTERRES
    51   24  149 1    
    52   25   26 2    
    53   25   27 1    
    54   27   28 1    
    55   27   29 1    
    56   27  150 1    
    57   28  151 1    
    58   28  152 1    
    59   28  153 1    
    60   29   30 am   BACKBONE|DICT|INTERRES
    61   29  154 1    
    62   30   31 2    
    63   30   32 1    
    64   32   33 1    
    65   32   34 1    
    66   32  155 1    
    67   33  156 1    
    68   33  157 1    
    69   33  158 1    
    70   34   35 am   BACKBONE|DICT|INTERRES
    71   34  159 1    
    72   35   36 2    
    73   35   37 1    
    74   37   38 1    
    75   37   39 1    
    76   37  160 1    
    77   38  161 1    
    78   38  162 1    
    79   38  163 1    
    80   39   40 am   BACKBONE|DICT|INTERRES
    81   39  164 1    
    82   40   41 2    
    83   40   42 1    
    84   42   43 1    
    85   42   44 1    
    86   42  165 1    
    87   43  166 1    
    88   43  167 1    
    89   43  168 1    
    90   44   45 am   BACKBONE|DICT|INTERRES
    91   44  169 1    
    92   45   46 2    
    93   45   47 1    
    94   47   48 1    
    95   47   49 1    
    96   47  170 1    
    97   48  171 1    
    98   48  172 1    
    99   48  173 1    
   100   49   50 am   BACKBONE|DICT|INTERRES
   101   49  174 1    
   102   50   51 2    
   103   50   52 1    
   104   52   53 1    
   105   52   54 1    
   106   52  175 1    
   107   53  176 1    
   108   53  177 1    
   109   53  178 1    
   110   54   55 am   BACKBONE|DICT|INTERRES
   111   54  179 1    
   112   55   56 2    
   113   55   57 1    
   114   57   58 1    
   115   57   59 1    
   116   57  180 1    
   117   58  181 1    
   118   58  182 1    
   119   58  183 1    
   120   59   60 am   BACKBONE|DICT|INTERRES
   121   59  184 1    
   122   60   61 2    
   123   60   62 1    
   124   62   63 1    
   125   62   64 1    
   126   62  185 1    
   127   63  186 1    
   128   63  187 1    
   129   63  188 1    
   130   64   65 am   BACKBONE|DICT|INTERRES
   131   64  189 1    
   132   65   66 2    
   133   67   68 2    
   134   67   69 am   BACKBONE|DICT|INTERRES
   135   69   70 1    
   136   69  190 1    
   137   70   71 1    
   138   70   72 1    
   139   70  191 1    
   140   71  192 1    
   141   71  193 1    
   142   71  194 1    
   143   72   73 2    
   144   72   74 am   BACKBONE|DICT|INTERRES
   145   74   75 1    
   146   74  195 1    
   147   75   76 1    
   148   75   77 1    
   149   75  196 1    
   150   76  197 1    
   151   76  198 1    
   152   76  199 1    
   153   77   78 2    
   154   77   79 am   BACKBONE|DICT|INTERRES
   155   79   80 1    
   156   79  200 1    
   157   80   81 1    
   158   80   82 1    
   159   80  201 1    
   160   81  202 1    
   161   81  203 1    
   162   81  204 1    
   163   82   83 2    
   164   82   84 am   BACKBONE|DICT|INTERRES
   165   84   85 1    
   166   84  205 1    
   167   85   86 1    
   168   85   87 1    
   169   85  206 1    
   170   86  207 1    
   171   86  208 1    
   172   86  209 1    
   173   87   88 2    
   174   87   89 am   BACKBONE|DICT|INTERRES
   175   89   90 1    
   176   89  210 1    
   177   90   91 1    
   178   90   92 1    
   179   90  211 1    
   180   91  212 1    
   181   91  213 1    
   182   91  214 1    
   183   92   93 2    
   184   92   94 am   BACKBONE|DICT|INTERRES
   185   94   95 1    
   186   94  215 1    
   187   95   96 1    
   188   95   97 1    
   189   95  216 1    
   190   96  217 1    
   191   96  218 1    
   192   96  219 1    
   193   97   98 2    
   194   97   99 am   BACKBONE|DICT|INTERRES
   195   99  100 1    
   196   99  220 1    
   197  100  101 1    
   198  100  102 1    
   199  100  221 1    
   200  101  222 1    
   201  101  223 1    
   202  101  224 1    
   203  102  103 2    
   204  102  104 am   BACKBONE|DICT|INTERRES
   205  104  105 1    
   206  104  225 1    
   207  105  106 1    
   208  105  107 1    
   209  105  226 1    
   210  106  227 1    
   211  106  228 1    
   212  106  229 1    
   213  107  108 2    
   214  107  109 am   BACKBONE|DICT|INTERRES
   215  109  110 1    
   216  109  230 1    
   217  110  111 1    
   218  110  112 1    
   219  110  231 1    
   220  111  232 1    
   221  111  233 1    
   222  111  234 1    
   223  112  113 2    
   224  112  114 am   BACKBONE|DICT|INTERRES
   225  114  115 1    
   226  114  235 1    
   227  115  116 1    
   228  115  117 1    
   229  115  236 1    
   230  116  237 1    
   231  116  238 1    
   232  116  239 1    
   233  117  118 2    
   234  117  119 am   BACKBONE|DICT|INTERRES
   235  119  120 1    
   236  119  240 1    
   237  120  121 1    
   238  120  124 1    
   239  120  241 1    
   240  121  122 am   BACKBONE|DICT|INTERRES
   241  121  123 2    
   242  122  242 1    
   243  122  243 1    
   244  124  125 1    
   245  124  244 1    
   246  124  245 1    
   247  125  126 1    
   248  126  246 1    
   249  126  247 1    
@<TRIPOS>SUBSTRUCTURE
     1 UNK         1 GROUP             0       ****    0 ROOT    
