@<TRIPOS>MOLECULE
3R540
247   249    1
SMALL
USER_CHARGES


@<TRIPOS>ATOM
      1 CA         -2.0347  -15.4164  -48.5790 C.3       0 UNK        -0.1800 
      2 C          -0.9978  -15.2343  -49.6763 C.2       0 UNK         0.5000 
      3 O          -1.1551  -14.3619  -50.5300 O.2       0 UNK        -0.5000 
      4 N           0.0577  -16.0538  -49.6538 N.am      1 UNK        -0.5000 
      5 CA          1.2212  -15.9880  -50.5468 C.3       1 UNK         0.1400 
      6 C6          1.9953  -17.3358  -50.6251 C.3       23 UNK        -0.0398 
      7 S7          2.0167  -18.3083  -49.0704 S.3       23 UNK        -0.2404 
      8 C8          1.0579  -19.7930  -49.5333 C.3       23 UNK        -0.0205 
      9 C9         -0.3697  -19.4693  -49.9567 C.ar      23 UNK        -0.0193 
     10 C10        -0.7267  -19.4730  -51.3098 C.ar      23 UNK        -0.1150 
     11 C11        -2.0297  -19.1516  -51.7052 C.ar      23 UNK        -0.0193 
     12 C12        -2.9879  -18.8724  -50.7285 C.ar      23 UNK        -0.1150 
     13 C13        -2.6550  -18.8958  -49.3723 C.ar      23 UNK        -0.0193 
     14 C14        -1.3390  -19.1774  -48.9938 C.ar      23 UNK        -0.1150 
     15 C15        -3.7226  -18.6040  -48.3286 C.3       23 UNK        -0.0205 
     16 S16        -4.3570  -20.1278  -47.5605 S.3       23 UNK        -0.2404 
     17 C17        -3.1244  -20.4084  -46.2450 C.3       23 UNK        -0.0398 
     18 CA         -2.1833  -21.6003  -46.5474 C.3       11 UNK         0.1400 
     19 N          -0.8656  -21.4379  -45.9299 N.am      11 UNK        -0.5000 
     20 C           0.1535  -22.3040  -46.0156 C.2       10 UNK         0.5000 
     21 O           0.1260  -23.3292  -46.6965 O.2       10 UNK        -0.5000 
     22 CA          1.3949  -22.0107  -45.1546 C.3       10 UNK         0.1400 
     23 CB          2.4210  -21.2008  -45.9587 C.3       10 UNK        -0.1800 
     24 N           1.0859  -21.3229  -43.8961 N.am      10 UNK        -0.5000 
     25 C           0.2946  -21.8129  -42.9281 C.2       9 UNK         0.5000 
     26 O          -0.2547  -22.9138  -42.9862 O.2       9 UNK        -0.5000 
     27 CA          0.0184  -20.8971  -41.7223 C.3       9 UNK         0.1400 
     28 CB          1.2311  -20.8361  -40.7817 C.3       9 UNK        -0.1800 
     29 N          -0.3622  -19.5462  -42.1346 N.am      9 UNK        -0.5000 
     30 C          -1.4863  -19.2461  -42.8016 C.2       8 UNK         0.5000 
     31 O          -2.3655  -20.0675  -43.0610 O.2       8 UNK        -0.5000 
     32 CA         -1.6265  -17.7995  -43.3151 C.3       8 UNK         0.1400 
     33 CB         -2.1627  -16.8711  -42.2162 C.3       8 UNK        -0.1800 
     34 N          -0.3669  -17.2695  -43.8404 N.am      8 UNK        -0.5000 
     35 C           0.2793  -17.7705  -44.9023 C.2       7 UNK         0.5000 
     36 O          -0.1566  -18.6856  -45.5957 O.2       7 UNK        -0.5000 
     37 CA          1.6641  -17.1865  -45.2157 C.3       7 UNK         0.1400 
     38 CB          1.5395  -15.9196  -46.0705 C.3       7 UNK        -0.1800 
     39 N           2.4199  -16.9015  -43.9970 N.am      7 UNK        -0.5000 
     40 C           2.9571  -17.8453  -43.2104 C.2       6 UNK         0.5000 
     41 O           2.9068  -19.0491  -43.4601 O.2       6 UNK        -0.5000 
     42 CA          3.6235  -17.3691  -41.9057 C.3       6 UNK         0.1400 
     43 CB          5.0762  -16.9437  -42.1655 C.3       6 UNK        -0.1800 
     44 N           2.9011  -16.2635  -41.2753 N.am      6 UNK        -0.5000 
     45 C           1.6697  -16.3607  -40.7539 C.2       5 UNK         0.5000 
     46 O           1.0411  -17.4163  -40.6864 O.2       5 UNK        -0.5000 
     47 CA          1.0079  -15.0486  -40.2843 C.3       5 UNK         0.1400 
     48 CB          1.3272  -14.7847  -38.8057 C.3       5 UNK        -0.1800 
     49 N           1.3921  -13.8771  -41.0812 N.am      5 UNK        -0.5000 
     50 C           1.1999  -13.7541  -42.4019 C.2       4 UNK         0.5000 
     51 O           0.6649  -14.6274  -43.0880 O.2       4 UNK        -0.5000 
     52 CA          1.7733  -12.4820  -43.0579 C.3       4 UNK         0.1400 
     53 CB          3.3112  -12.5182  -43.0338 C.3       4 UNK        -0.1800 
     54 N           1.3537  -12.3017  -44.4478 N.am      4 UNK        -0.5000 
     55 C           0.1152  -12.0517  -44.8844 C.2       3 UNK         0.5000 
     56 O          -0.8531  -11.9221  -44.1338 O.2       3 UNK        -0.5000 
     57 CA         -0.0976  -11.9052  -46.4105 C.3       3 UNK         0.1400 
     58 CB         -0.2312  -10.4194  -46.7957 C.3       3 UNK        -0.1800 
     59 N           0.8743  -12.5785  -47.2936 N.am      3 UNK        -0.5000 
     60 C           2.1923  -12.3593  -47.4359 C.2       2 UNK         0.5000 
     61 O           2.8267  -11.5633  -46.7442 O.2       2 UNK        -0.5000 
     62 CA          2.9321  -13.1731  -48.5163 C.3       2 UNK         0.1400 
     63 CB          4.3282  -13.6350  -48.0545 C.3       2 UNK        -0.1800 
     64 N           2.1517  -14.3261  -48.9760 N.am      2 UNK        -0.5000 
     65 C           2.1534  -14.7980  -50.2297 C.2       1 UNK         0.5000 
     66 O           2.8393  -14.3202  -51.1345 O.2       1 UNK        -0.5000 
     67 C          -2.8487  -22.9334  -46.1564 C.2       11 UNK         0.5000 
     68 O          -3.3679  -23.6314  -47.0246 O.2       11 UNK        -0.5000 
     69 N          -2.7874  -23.2786  -44.8653 N.am      12 UNK        -0.5000 
     70 CA         -3.2970  -24.5401  -44.3403 C.3       12 UNK         0.1400 
     71 CB         -3.6621  -24.3588  -42.8587 C.3       12 UNK        -0.1800 
     72 C          -2.2806  -25.6799  -44.5175 C.2       12 UNK         0.5000 
     73 O          -2.6550  -26.7621  -44.9697 O.2       12 UNK        -0.5000 
     74 N          -1.0236  -25.4233  -44.1319 N.am      13 UNK        -0.5000 
     75 CA          0.0172  -26.4406  -43.9913 C.3       13 UNK         0.1400 
     76 CB          1.1532  -25.8793  -43.1220 C.3       13 UNK        -0.1800 
     77 C           0.5801  -26.9763  -45.3186 C.2       13 UNK         0.5000 
     78 O           0.9257  -28.1574  -45.3794 O.2       13 UNK        -0.5000 
     79 N           0.6973  -26.1123  -46.3346 N.am      14 UNK        -0.5000 
     80 CA          1.3639  -26.4234  -47.5995 C.3       14 UNK         0.1400 
     81 CB          2.6112  -25.5350  -47.7469 C.3       14 UNK        -0.1800 
     82 C           0.4271  -26.2474  -48.8012 C.2       14 UNK         0.5000 
     83 O           0.3792  -27.1300  -49.6591 O.2       14 UNK        -0.5000 
     84 N          -0.2886  -25.1159  -48.8596 N.am      15 UNK        -0.5000 
     85 CA         -1.1340  -24.7526  -50.0008 C.3       15 UNK         0.1400 
     86 CB         -1.3638  -23.2328  -50.0030 C.3       15 UNK        -0.1800 
     87 C          -2.4733  -25.5158  -50.0305 C.2       15 UNK         0.5000 
     88 O          -3.0525  -25.6654  -51.1059 O.2       15 UNK        -0.5000 
     89 N          -2.9291  -25.9829  -48.8585 N.am      16 UNK        -0.5000 
     90 CA         -4.1783  -26.7098  -48.6111 C.3       16 UNK         0.1400 
     91 CB         -4.1399  -28.1030  -49.2734 C.3       16 UNK        -0.1800 
     92 C          -5.4305  -25.8867  -48.9858 C.2       16 UNK         0.5000 
     93 O          -6.3105  -26.3781  -49.6953 O.2       16 UNK        -0.5000 
     94 N          -5.4734  -24.6430  -48.4864 N.am      17 UNK        -0.5000 
     95 CA         -6.5215  -23.6338  -48.6677 C.3       17 UNK         0.1400 
     96 CB         -7.8459  -24.0881  -48.0188 C.3       17 UNK        -0.1800 
     97 C          -6.6741  -23.2011  -50.1398 C.2       17 UNK         0.5000 
     98 O          -7.7841  -23.1780  -50.6767 O.2       17 UNK        -0.5000 
     99 N          -5.5369  -22.8782  -50.7676 N.am      18 UNK        -0.5000 
    100 CA        -5.4475  -22.3717  -52.1363 C.3       18 UNK         0.1400 
    101 CB        -3.9819  -22.4420  -52.5871 C.3       18 UNK        -0.1800 
    102 C         -5.9868  -20.9338  -52.2786 C.2       18 UNK         0.5000 
    103 O         -6.1627  -20.2246  -51.2850 O.2       18 UNK        -0.5000 
    104 N         -6.2111  -20.5249  -53.5295 N.am      19 UNK        -0.5000 
    105 CA        -6.6744  -19.2014  -53.9305 C.3       19 UNK         0.1400 
    106 CB        -8.2019  -19.1074  -53.7437 C.3       19 UNK        -0.1800 
    107 C         -6.2637  -18.9564  -55.3925 C.2       19 UNK         0.5000 
    108 O         -5.7597  -19.8768  -56.0435 O.2       19 UNK        -0.5000 
    109 N         -6.5198  -17.7294  -55.8668 N.am      20 UNK        -0.5000 
    110 CA        -6.1640  -17.1432  -57.1645 C.3       20 UNK         0.1400 
    111 CB        -6.5549  -18.0350  -58.3597 C.3       20 UNK        -0.1800 
    112 C         -4.6821  -16.7303  -57.2086 C.2       20 UNK         0.5000 
    113 O         -3.8023  -17.5274  -56.8773 O.2       20 UNK        -0.5000 
    114 N         -4.4446  -15.4705  -57.6023 N.am      21 UNK        -0.5000 
    115 CA        -3.1811  -14.7219  -57.5556 C.3       21 UNK         0.1400 
    116 CB        -2.0693  -15.3865  -58.3935 C.3       21 UNK        -0.1800 
    117 C         -2.7385  -14.4347  -56.1081 C.2       21 UNK         0.5000 
    118 O         -2.7375  -13.2754  -55.6918 O.2       21 UNK        -0.5000 
    119 N         -2.4163  -15.4945  -55.3628 N.am      22 UNK        -0.5000 
    120 CA        -2.2361  -15.4876  -53.9076 C.3       22 UNK         0.1400 
    121 C         -3.5870  -15.6134  -53.1491 C.2       22 UNK         0.5000 
    122 N         -3.6385  -15.1596  -51.9049 N.am      22 UNK        -0.7600 
    123 O         -4.5814  -16.1233  -53.6619 O.2       22 UNK        -0.5000 
    124 C124       -1.1985  -16.5428  -53.4399 C.3       23 UNK        -0.0398 
    125 S125       -1.2833  -18.1828  -54.2450 S.3       23 UNK        -0.2404 
    126 C126       -2.4280  -19.1177  -53.1777 C.3       23 UNK        -0.0205 
    127 H127       -2.2292  -14.4654  -48.0836 H         1 UNK         0.0600 
    128 H128       -1.7013  -16.1287  -47.8237 H         1 UNK         0.0600 
    129 H129       -2.9704  -15.7772  -49.0050 H         1 UNK         0.0600 
    130 H130        0.0927  -16.8086  -48.9823 H         1 UNK         0.3000 
    131 H131        0.8463  -15.7838  -51.5500 H         1 UNK         0.0600 
    132 H132        3.0276  -17.1856  -50.9468 H         1 UNK         0.0800 
    133 H133        1.5571  -17.9447  -51.4144 H         1 UNK         0.0800 
    134 H134        1.5819  -20.3249  -50.3288 H         1 UNK         0.0800 
    135 H135        1.0312  -20.4739  -48.6814 H         1 UNK         0.0800 
    136 H136        0.0140  -19.7085  -52.0606 H         1 UNK         0.1150 
    137 H137       -4.0014  -18.6400  -51.0242 H         1 UNK         0.1150 
    138 H138       -1.0661  -19.1799  -47.9493 H         1 UNK         0.1150 
    139 H139       -3.3364  -17.9268  -47.5666 H         1 UNK         0.0800 
    140 H140       -4.5614  -18.0822  -48.7921 H         1 UNK         0.0800 
    141 H141       -3.6557  -20.5442  -45.3017 H         1 UNK         0.0800 
    142 H142       -2.5486  -19.4946  -46.1108 H         1 UNK         0.0800 
    143 H143       -1.9965  -21.6239  -47.6200 H         1 UNK         0.0600 
    144 H144       -0.7082  -20.5728  -45.4231 H         1 UNK         0.3000 
    145 H145        1.8482  -22.9703  -44.9003 H         1 UNK         0.0600 
    146 H146        3.3320  -21.0334  -45.3842 H         1 UNK         0.0600 
    147 H147        2.7045  -21.7269  -46.8713 H         1 UNK         0.0600 
    148 H148        2.0247  -20.2296  -46.2527 H         1 UNK         0.0600 
    149 H149        1.5327  -20.4215  -43.7551 H         1 UNK         0.3000 
    150 H150       -0.8176  -21.3253  -41.1653 H         1 UNK         0.0600 
    151 H151        1.5142  -21.8343  -40.4457 H         1 UNK         0.0600 
    152 H152        1.0097  -20.2439  -39.8936 H         1 UNK         0.0600 
    153 H153        2.1009  -20.3942  -41.2673 H         1 UNK         0.0600 
    154 H154        0.2785  -18.7963  -41.8943 H         1 UNK         0.3000 
    155 H155       -2.3486  -17.8052  -44.1342 H         1 UNK         0.0600 
    156 H156       -2.2582  -15.8461  -42.5755 H         1 UNK         0.0600 
    157 H157       -1.5124  -16.8614  -41.3424 H         1 UNK         0.0600 
    158 H158       -3.1498  -17.1945  -41.8838 H         1 UNK         0.0600 
    159 H159        0.0357  -16.4674  -43.3652 H         1 UNK         0.3000 
    160 H160        2.2186  -17.9254  -45.7970 H         1 UNK         0.0600 
    161 H161        2.5224  -15.5183  -46.3096 H         1 UNK         0.0600 
    162 H162        0.9661  -15.1385  -45.5733 H         1 UNK         0.0600 
    163 H163        1.0339  -16.1456  -47.0077 H         1 UNK         0.0600 
    164 H164        2.4214  -15.9420  -43.6820 H         1 UNK         0.3000 
    165 H165        3.6320  -18.2106  -41.2097 H         1 UNK         0.0600 
    166 H166        5.5809  -16.6768  -41.2368 H         1 UNK         0.0600 
    167 H167        5.6445  -17.7558  -42.6211 H         1 UNK         0.0600 
    168 H168        5.1324  -16.0862  -42.8373 H         1 UNK         0.0600 
    169 H169        3.3497  -15.3597  -41.2834 H         1 UNK         0.3000 
    170 H170       -0.0721  -15.1722  -40.3823 H         1 UNK         0.0600 
    171 H171        1.0309  -15.6317  -38.1852 H         1 UNK         0.0600 
    172 H172        2.3934  -14.6183  -38.6468 H         1 UNK         0.0600 
    173 H173        0.7912  -13.9103  -38.4359 H         1 UNK         0.0600 
    174 H174        1.8459  -13.1260  -40.5813 H         1 UNK         0.3000 
    175 H175        1.4275  -11.6196  -42.4849 H         1 UNK         0.0600 
    176 H176        3.7013  -13.3737  -43.5873 H         1 UNK         0.0600 
    177 H177        3.7322  -11.6158  -43.4781 H         1 UNK         0.0600 
    178 H178        3.6958  -12.5812  -42.0153 H         1 UNK         0.0600 
    179 H179        2.0878  -12.3028  -45.1474 H         1 UNK         0.3000 
    180 H180       -1.0562  -12.3819  -46.6216 H         1 UNK         0.0600 
    181 H181       -0.4793  -10.3061  -47.8510 H         1 UNK         0.0600 
    182 H182        0.6893   -9.8667  -46.6056 H         1 UNK         0.0600 
    183 H183       -1.0241   -9.9365  -46.2231 H         1 UNK         0.0600 
    184 H184        0.4574  -13.2286  -47.9420 H         1 UNK         0.3000 
    185 H185        3.0666  -12.4814  -49.3505 H         1 UNK         0.0600 
    186 H186        4.8472  -14.1755  -48.8462 H         1 UNK         0.0600 
    187 H187        4.9551  -12.7843  -47.7851 H         1 UNK         0.0600 
    188 H188        4.2733  -14.2886  -47.1847 H         1 UNK         0.0600 
    189 H189        1.5932  -14.8019  -48.2840 H         1 UNK         0.3000 
    190 H190       -2.2956  -22.6762  -44.2179 H         1 UNK         0.3000 
    191 H191       -4.2083  -24.8137  -44.8772 H         1 UNK         0.0600 
    192 H192       -4.0477  -25.2871  -42.4350 H         1 UNK         0.0600 
    193 H193       -4.4345  -23.5995  -42.7352 H         1 UNK         0.0600 
    194 H194       -2.8002  -24.0574  -42.2618 H         1 UNK         0.0600 
    195 H195       -0.8003  -24.4994  -43.7680 H         1 UNK         0.3000 
    196 H196       -0.4180  -27.2889  -43.4586 H         1 UNK         0.0600 
    197 H197        1.6276  -25.0158  -43.5886 H         1 UNK         0.0600 
    198 H198        0.7855  -25.5701  -42.1433 H         1 UNK         0.0600 
    199 H199        1.9274  -26.6295  -42.9560 H         1 UNK         0.0600 
    200 H200        0.3670  -25.1586  -46.2224 H         1 UNK         0.3000 
    201 H201        1.7008  -27.4619  -47.6140 H         1 UNK         0.0600 
    202 H202        2.3596  -24.4740  -47.7452 H         1 UNK         0.0600 
    203 H203        3.1332  -25.7468  -48.6809 H         1 UNK         0.0600 
    204 H204        3.3156  -25.7112  -46.9339 H         1 UNK         0.0600 
    205 H205       -0.1875  -24.4254  -48.1188 H         1 UNK         0.3000 
    206 H206       -0.5879  -25.0035  -50.9129 H         1 UNK         0.0600 
    207 H207       -0.4919  -22.6847  -49.6448 H         1 UNK         0.0600 
    208 H208       -1.5632  -22.8833  -51.0146 H         1 UNK         0.0600 
    209 H209       -2.2183  -22.9507  -49.3902 H         1 UNK         0.0600 
    210 H210       -2.3904  -25.7535  -48.0351 H         1 UNK         0.3000 
    211 H211       -4.2294  -26.8639  -47.5321 H         1 UNK         0.0600 
    212 H212       -5.0136  -28.6920  -48.9926 H         1 UNK         0.0600 
    213 H213       -3.2578  -28.6622  -48.9614 H         1 UNK         0.0600 
    214 H214       -4.1270  -28.0365  -50.3616 H         1 UNK         0.0600 
    215 H215       -4.6707  -24.3305  -47.9382 H         1 UNK         0.3000 
    216 H216       -6.1835  -22.7486  -48.1266 H         1 UNK         0.0600 
    217 H217       -8.5868  -23.2884  -48.0476 H         1 UNK         0.0600 
    218 H218       -8.2765  -24.9496  -48.5298 H         1 UNK         0.0600 
    219 H219       -7.6996  -24.3566  -46.9726 H         1 UNK         0.0600 
    220 H220       -4.6755  -22.9146  -50.2448 H         1 UNK         0.3000 
    221 H221       -6.0416  -23.0244  -52.7794 H         1 UNK         0.0600 
    222 H222       -3.5922  -23.4565  -52.5133 H         1 UNK         0.0600 
    223 H223       -3.3528  -21.7911  -51.9802 H         1 UNK         0.0600 
    224 H224       -3.8723  -22.1342  -53.6273 H         1 UNK         0.0600 
    225 H225       -5.9791  -21.1235  -54.3132 H         1 UNK         0.3000 
    226 H226       -6.1809  -18.4476  -53.3131 H         1 UNK         0.0600 
    227 H227       -8.7254  -19.8360  -54.3639 H         1 UNK         0.0600 
    228 H228       -8.4867  -19.2863  -52.7068 H         1 UNK         0.0600 
    229 H229       -8.5755  -18.1185  -54.0106 H         1 UNK         0.0600 
    230 H230       -6.9008  -17.0632  -55.2093 H         1 UNK         0.3000 
    231 H231       -6.7672  -16.2366  -57.2352 H         1 UNK         0.0600 
    232 H232       -5.9215  -18.9188  -58.4376 H         1 UNK         0.0600 
    233 H233       -6.4531  -17.4865  -59.2967 H         1 UNK         0.0600 
    234 H234       -7.5909  -18.3658  -58.2862 H         1 UNK         0.0600 
    235 H235       -5.2459  -14.9068  -57.8509 H         1 UNK         0.3000 
    236 H236       -3.3929  -13.7559  -58.0169 H         1 UNK         0.0600 
    237 H237       -1.1818  -14.7536  -58.4252 H         1 UNK         0.0600 
    238 H238       -1.7612  -16.3515  -57.9910 H         1 UNK         0.0600 
    239 H239       -2.3938  -15.5425  -59.4222 H         1 UNK         0.0600 
    240 H240       -2.5519  -16.4120  -55.7767 H         1 UNK         0.3000 
    241 H241       -1.8300  -14.5123  -53.6306 H         1 UNK         0.0600 
    242 H242       -4.5062  -15.2249  -51.3981 H         1 UNK         0.3800 
    243 H243       -2.8267  -14.7386  -51.4640 H         1 UNK         0.3800 
    244 H244       -1.2201  -16.6613  -52.3569 H         1 UNK         0.0800 
    245 H245       -0.2040  -16.1557  -53.6627 H         1 UNK         0.0800 
    246 H246       -3.4298  -18.7028  -53.2990 H         1 UNK         0.0800 
    247 H247       -2.4741  -20.1399  -53.5508 H         1 UNK         0.0800 
@<TRIPOS>BOND
     1    1    2 1    
     2    1  127 1    
     3    1  128 1    
     4    1  129 1    
     5    2    3 2    
     6    2    4 am   BACKBONE|DICT|INTERRES
     7    4    5 1    
     8    4  130 1    
     9    5    6 1    
    10    5   65 1    
    11    5  131 1    
    12    6    7 1    
    13    6  132 1    
    14    6  133 1    
    15    7    8 1    
    16    8    9 1    
    17    8  134 1    
    18    8  135 1    
    19    9   10 ar   
    20    9   14 ar   
    21   10   11 ar   
    22   10  136 1    
    23   11   12 ar   
    24   11  126 1    
    25   12   13 ar   
    26   12  137 1    
    27   13   14 ar   
    28   13   15 1    
    29   14  138 1    
    30   15   16 1    
    31   15  139 1    
    32   15  140 1    
    33   16   17 1    
    34   17   18 1    
    35   17  141 1    
    36   17  142 1    
    37   18   19 1    
    38   18   67 1    
    39   18  143 1    
    40   19   20 am   BACKBONE|DICT|INTERRES
    41   19  144 1    
    42   20   21 2    
    43   20   22 1    
    44   22   23 1    
    45   22   24 1    
    46   22  145 1    
    47   23  146 1    
    48   23  147 1    
    49   23  148 1    
    50   24   25 am   BACKBONE|DICT|INTERRES
    51   24  149 1    
    52   25   26 2    
    53   25   27 1    
    54   27   28 1    
    55   27   29 1    
    56   27  150 1    
    57   28  151 1    
    58   28  152 1    
    59   28  153 1    
    60   29   30 am   BACKBONE|DICT|INTERRES
    61   29  154 1    
    62   30   31 2    
    63   30   32 1    
    64   32   33 1    
    65   32   34 1    
    66   32  155 1    
    67   33  156 1    
    68   33  157 1    
    69   33  158 1    
    70   34   35 am   BACKBONE|DICT|INTERRES
    71   34  159 1    
    72   35   36 2    
    73   35   37 1    
    74   37   38 1    
    75   37   39 1    
    76   37  160 1    
    77   38  161 1    
    78   38  162 1    
    79   38  163 1    
    80   39   40 am   BACKBONE|DICT|INTERRES
    81   39  164 1    
    82   40   41 2    
    83   40   42 1    
    84   42   43 1    
    85   42   44 1    
    86   42  165 1    
    87   43  166 1    
    88   43  167 1    
    89   43  168 1    
    90   44   45 am   BACKBONE|DICT|INTERRES
    91   44  169 1    
    92   45   46 2    
    93   45   47 1    
    94   47   48 1    
    95   47   49 1    
    96   47  170 1    
    97   48  171 1    
    98   48  172 1    
    99   48  173 1    
   100   49   50 am   BACKBONE|DICT|INTERRES
   101   49  174 1    
   102   50   51 2    
   103   50   52 1    
   104   52   53 1    
   105   52   54 1    
   106   52  175 1    
   107   53  176 1    
   108   53  177 1    
   109   53  178 1    
   110   54   55 am   BACKBONE|DICT|INTERRES
   111   54  179 1    
   112   55   56 2    
   113   55   57 1    
   114   57   58 1    
   115   57   59 1    
   116   57  180 1    
   117   58  181 1    
   118   58  182 1    
   119   58  183 1    
   120   59   60 am   BACKBONE|DICT|INTERRES
   121   59  184 1    
   122   60   61 2    
   123   60   62 1    
   124   62   63 1    
   125   62   64 1    
   126   62  185 1    
   127   63  186 1    
   128   63  187 1    
   129   63  188 1    
   130   64   65 am   BACKBONE|DICT|INTERRES
   131   64  189 1    
   132   65   66 2    
   133   67   68 2    
   134   67   69 am   BACKBONE|DICT|INTERRES
   135   69   70 1    
   136   69  190 1    
   137   70   71 1    
   138   70   72 1    
   139   70  191 1    
   140   71  192 1    
   141   71  193 1    
   142   71  194 1    
   143   72   73 2    
   144   72   74 am   BACKBONE|DICT|INTERRES
   145   74   75 1    
   146   74  195 1    
   147   75   76 1    
   148   75   77 1    
   149   75  196 1    
   150   76  197 1    
   151   76  198 1    
   152   76  199 1    
   153   77   78 2    
   154   77   79 am   BACKBONE|DICT|INTERRES
   155   79   80 1    
   156   79  200 1    
   157   80   81 1    
   158   80   82 1    
   159   80  201 1    
   160   81  202 1    
   161   81  203 1    
   162   81  204 1    
   163   82   83 2    
   164   82   84 am   BACKBONE|DICT|INTERRES
   165   84   85 1    
   166   84  205 1    
   167   85   86 1    
   168   85   87 1    
   169   85  206 1    
   170   86  207 1    
   171   86  208 1    
   172   86  209 1    
   173   87   88 2    
   174   87   89 am   BACKBONE|DICT|INTERRES
   175   89   90 1    
   176   89  210 1    
   177   90   91 1    
   178   90   92 1    
   179   90  211 1    
   180   91  212 1    
   181   91  213 1    
   182   91  214 1    
   183   92   93 2    
   184   92   94 am   BACKBONE|DICT|INTERRES
   185   94   95 1    
   186   94  215 1    
   187   95   96 1    
   188   95   97 1    
   189   95  216 1    
   190   96  217 1    
   191   96  218 1    
   192   96  219 1    
   193   97   98 2    
   194   97   99 am   BACKBONE|DICT|INTERRES
   195   99  100 1    
   196   99  220 1    
   197  100  101 1    
   198  100  102 1    
   199  100  221 1    
   200  101  222 1    
   201  101  223 1    
   202  101  224 1    
   203  102  103 2    
   204  102  104 am   BACKBONE|DICT|INTERRES
   205  104  105 1    
   206  104  225 1    
   207  105  106 1    
   208  105  107 1    
   209  105  226 1    
   210  106  227 1    
   211  106  228 1    
   212  106  229 1    
   213  107  108 2    
   214  107  109 am   BACKBONE|DICT|INTERRES
   215  109  110 1    
   216  109  230 1    
   217  110  111 1    
   218  110  112 1    
   219  110  231 1    
   220  111  232 1    
   221  111  233 1    
   222  111  234 1    
   223  112  113 2    
   224  112  114 am   BACKBONE|DICT|INTERRES
   225  114  115 1    
   226  114  235 1    
   227  115  116 1    
   228  115  117 1    
   229  115  236 1    
   230  116  237 1    
   231  116  238 1    
   232  116  239 1    
   233  117  118 2    
   234  117  119 am   BACKBONE|DICT|INTERRES
   235  119  120 1    
   236  119  240 1    
   237  120  121 1    
   238  120  124 1    
   239  120  241 1    
   240  121  122 am   BACKBONE|DICT|INTERRES
   241  121  123 2    
   242  122  242 1    
   243  122  243 1    
   244  124  125 1    
   245  124  244 1    
   246  124  245 1    
   247  125  126 1    
   248  126  246 1    
   249  126  247 1    
@<TRIPOS>SUBSTRUCTURE
     1 UNK         1 GROUP             0       ****    0 ROOT    
