@<TRIPOS>MOLECULE
3R540
247   249    1
SMALL
USER_CHARGES


@<TRIPOS>ATOM
      1 CA         -0.5655  -16.3191  -42.2268 C.3       0 UNK        -0.1800 
      2 C           0.6865  -15.6034  -42.7103 C.2       0 UNK         0.5000 
      3 O           0.8210  -14.4033  -42.4761 O.2       0 UNK        -0.5000 
      4 N           1.6107  -16.3361  -43.3503 N.am      1 UNK        -0.5000 
      5 CA          2.8442  -15.8272  -43.9763 C.3       1 UNK         0.1400 
      6 C6          3.6900  -16.9568  -44.6203 C.3       23 UNK        -0.0398 
      7 S7          2.7661  -17.9754  -45.8164 S.3       23 UNK        -0.2404 
      8 C8          3.1777  -17.1381  -47.3746 C.3       23 UNK        -0.0205 
      9 C9          2.3771  -17.6908  -48.5446 C.ar      23 UNK        -0.0193 
     10 C10         1.4952  -16.8634  -49.2427 C.ar      23 UNK        -0.1150 
     11 C11         0.8067  -17.3369  -50.3611 C.ar      23 UNK        -0.0193 
     12 C12         0.9923  -18.6599  -50.7718 C.ar      23 UNK        -0.1150 
     13 C13         1.8407  -19.5161  -50.0583 C.ar      23 UNK        -0.0193 
     14 C14         2.5402  -19.0171  -48.9547 C.ar      23 UNK        -0.1150 
     15 C15         2.0541  -20.9689  -50.4771 C.3       23 UNK        -0.0205 
     16 S16         0.5784  -21.8072  -51.1518 S.3       23 UNK        -0.2404 
     17 C17        -0.6525  -21.6333  -49.8181 C.3       23 UNK        -0.0398 
     18 CA         -0.5624  -22.7697  -48.7685 C.3       11 UNK         0.1400 
     19 N           0.4737  -22.5187  -47.7602 N.am      11 UNK        -0.5000 
     20 C           0.9547  -23.4555  -46.9305 C.2       10 UNK         0.5000 
     21 O           0.5741  -24.6256  -46.9275 O.2       10 UNK        -0.5000 
     22 CA          1.9830  -22.9854  -45.8874 C.3       10 UNK         0.1400 
     23 CB          3.3537  -22.7477  -46.5393 C.3       10 UNK        -0.1800 
     24 N           1.5633  -21.7735  -45.1777 N.am      10 UNK        -0.5000 
     25 C           0.4741  -21.6850  -44.3977 C.2       9 UNK         0.5000 
     26 O          -0.3274  -22.6042  -44.2378 O.2       9 UNK        -0.5000 
     27 CA          0.2014  -20.3218  -43.7484 C.3       9 UNK         0.1400 
     28 CB          1.3453  -19.9195  -42.7995 C.3       9 UNK        -0.1800 
     29 N           0.0481  -19.3379  -44.8170 N.am      9 UNK        -0.5000 
     30 C          -1.0697  -18.6658  -45.1064 C.2       8 UNK         0.5000 
     31 O          -2.0692  -18.6280  -44.3873 O.2       8 UNK        -0.5000 
     32 CA         -1.0924  -17.9875  -46.4816 C.3       8 UNK         0.1400 
     33 CB         -1.9083  -18.8445  -47.4595 C.3       8 UNK        -0.1800 
     34 N          -1.6818  -16.6552  -46.4047 N.am      8 UNK        -0.5000 
     35 C          -0.9724  -15.5220  -46.3929 C.2       7 UNK         0.5000 
     36 O           0.2586  -15.4834  -46.4128 O.2       7 UNK        -0.5000 
     37 CA         -1.7785  -14.2153  -46.3396 C.3       7 UNK         0.1400 
     38 CB         -2.0837  -13.8211  -44.8863 C.3       7 UNK        -0.1800 
     39 N          -1.0040  -13.1454  -46.9608 N.am      7 UNK        -0.5000 
     40 C          -1.2479  -12.6176  -48.1680 C.2       6 UNK         0.5000 
     41 O          -2.2262  -12.9130  -48.8553 O.2       6 UNK        -0.5000 
     42 CA         -0.2528  -11.5670  -48.7056 C.3       6 UNK         0.1400 
     43 CB         -0.8560  -10.1566  -48.6073 C.3       6 UNK        -0.1800 
     44 N           1.0291  -11.5734  -48.0027 N.am      6 UNK        -0.5000 
     45 C           1.9945  -12.4877  -48.1661 C.2       5 UNK         0.5000 
     46 O           1.9643  -13.3581  -49.0349 O.2       5 UNK        -0.5000 
     47 CA          3.1971  -12.4209  -47.1988 C.3       5 UNK         0.1400 
     48 CB          4.4617  -11.9560  -47.9375 C.3       5 UNK        -0.1800 
     49 N           2.9874  -11.5561  -46.0300 N.am      5 UNK        -0.5000 
     50 C           2.1093  -11.8014  -45.0498 C.2       4 UNK         0.5000 
     51 O           1.3416  -12.7623  -45.0497 O.2       4 UNK        -0.5000 
     52 CA          2.0177  -10.7672  -43.9251 C.3       4 UNK         0.1400 
     53 CB          0.8585   -9.7883  -44.1930 C.3       4 UNK        -0.1800 
     54 N           1.8157  -11.4688  -42.6628 N.am      4 UNK        -0.5000 
     55 C           2.0151  -10.9427  -41.4486 C.2       3 UNK         0.5000 
     56 O           2.3508   -9.7737  -41.2527 O.2       3 UNK        -0.5000 
     57 CA          1.8493  -11.8918  -40.2521 C.3       3 UNK         0.1400 
     58 CB          0.3649  -12.1620  -39.9570 C.3       3 UNK        -0.1800 
     59 N           2.5488  -13.1526  -40.4946 N.am      3 UNK        -0.5000 
     60 C           3.8559  -13.3429  -40.2634 C.2       2 UNK         0.5000 
     61 O           4.5872  -12.4936  -39.7523 O.2       2 UNK        -0.5000 
     62 CA          4.4589  -14.7061  -40.6565 C.3       2 UNK         0.1400 
     63 CB          4.5175  -15.6382  -39.4365 C.3       2 UNK        -0.1800 
     64 N           3.7271  -15.3793  -41.7284 N.am      2 UNK        -0.5000 
     65 C           3.7400  -15.0113  -43.0175 C.2       1 UNK         0.5000 
     66 O           4.4137  -14.0785  -43.4561 O.2       1 UNK        -0.5000 
     67 C          -1.9412  -23.0435  -48.1325 C.2       11 UNK         0.5000 
     68 O          -2.7538  -23.7257  -48.7549 O.2       11 UNK        -0.5000 
     69 N          -2.1915  -22.5346  -46.9182 N.am      12 UNK        -0.5000 
     70 CA         -3.4156  -22.8104  -46.1664 C.3       12 UNK         0.1400 
     71 CB         -3.6190  -21.7465  -45.0778 C.3       12 UNK        -0.1800 
     72 C          -3.3950  -24.2309  -45.5775 C.2       12 UNK         0.5000 
     73 O          -4.3795  -24.9565  -45.7143 O.2       12 UNK        -0.5000 
     74 N          -2.2552  -24.6200  -44.9879 N.am      13 UNK        -0.5000 
     75 CA         -2.0022  -25.9562  -44.4449 C.3       13 UNK         0.1400 
     76 CB         -0.6702  -25.9481  -43.6795 C.3       13 UNK        -0.1800 
     77 C          -2.0037  -27.0543  -45.5253 C.2       13 UNK         0.5000 
     78 O          -2.5494  -28.1338  -45.2950 O.2       13 UNK        -0.5000 
     79 N          -1.4223  -26.7483  -46.6934 N.am      14 UNK        -0.5000 
     80 CA         -1.3956  -27.6240  -47.8678 C.3       14 UNK         0.1400 
     81 CB         -0.2845  -27.1427  -48.8148 C.3       14 UNK        -0.1800 
     82 C          -2.7389  -27.6911  -48.6240 C.2       14 UNK         0.5000 
     83 O          -2.8954  -28.5583  -49.4838 O.2       14 UNK        -0.5000 
     84 N          -3.6588  -26.7603  -48.3243 N.am      15 UNK        -0.5000 
     85 CA         -4.9501  -26.5247  -48.9843 C.3       15 UNK         0.1400 
     86 CB         -5.8907  -27.7379  -48.8372 C.3       15 UNK        -0.1800 
     87 C          -4.8176  -26.0440  -50.4469 C.2       15 UNK         0.5000 
     88 O          -5.7792  -26.1151  -51.2123 O.2       15 UNK        -0.5000 
     89 N          -3.6409  -25.5121  -50.7989 N.am      16 UNK        -0.5000 
     90 CA         -3.3471  -24.8774  -52.0804 C.3       16 UNK         0.1400 
     91 CB         -1.8255  -24.7739  -52.2495 C.3       16 UNK        -0.1800 
     92 C          -4.0076  -23.4928  -52.1968 C.2       16 UNK         0.5000 
     93 O          -4.3520  -23.0763  -53.3016 O.2       16 UNK        -0.5000 
     94 N          -4.2231  -22.8133  -51.0605 N.am      17 UNK        -0.5000 
     95 CA         -4.9556  -21.5470  -50.9796 C.3       17 UNK         0.1400 
     96 CB         -4.8692  -20.9908  -49.5507 C.3       17 UNK        -0.1800 
     97 C          -6.4225  -21.6844  -51.4354 C.2       17 UNK         0.5000 
     98 O          -6.9372  -20.7892  -52.1035 O.2       17 UNK        -0.5000 
     99 N          -7.0417  -22.8371  -51.1385 N.am      18 UNK        -0.5000 
    100 CA        -8.3788  -23.2116  -51.6102 C.3       18 UNK         0.1400 
    101 CB        -8.8930  -24.4006  -50.7842 C.3       18 UNK        -0.1800 
    102 C         -8.4203  -23.5337  -53.1195 C.2       18 UNK         0.5000 
    103 O         -9.4832  -23.4262  -53.7311 O.2       18 UNK        -0.5000 
    104 N         -7.2627  -23.8823  -53.6983 N.am      19 UNK        -0.5000 
    105 CA        -7.0447  -24.0718  -55.1344 C.3       19 UNK         0.1400 
    106 CB        -6.0444  -25.2233  -55.3392 C.3       19 UNK        -0.1800 
    107 C         -6.5711  -22.7744  -55.8298 C.2       19 UNK         0.5000 
    108 O         -6.1596  -22.8275  -56.9894 O.2       19 UNK        -0.5000 
    109 N         -6.6473  -21.6384  -55.1192 N.am      20 UNK        -0.5000 
    110 CA        -6.3326  -20.2765  -55.5550 C.3       20 UNK         0.1400 
    111 CB        -7.1991  -19.8537  -56.7609 C.3       20 UNK        -0.1800 
    112 C         -4.8283  -20.0019  -55.7594 C.2       20 UNK         0.5000 
    113 O         -4.4767  -19.1026  -56.5252 O.2       20 UNK        -0.5000 
    114 N         -3.9569  -20.7210  -55.0329 N.am      21 UNK        -0.5000 
    115 CA        -2.5237  -20.4031  -54.9375 C.3       21 UNK         0.1400 
    116 CB        -1.7515  -21.6246  -54.4179 C.3       21 UNK        -0.1800 
    117 C         -2.2417  -19.1763  -54.0417 C.2       21 UNK         0.5000 
    118 O         -1.1299  -18.6486  -54.0661 O.2       21 UNK        -0.5000 
    119 N         -3.2479  -18.7453  -53.2738 N.am      22 UNK        -0.5000 
    120 CA        -3.2544  -17.5456  -52.4361 C.3       22 UNK         0.1400 
    121 C         -4.6973  -16.9799  -52.3067 C.2       22 UNK         0.5000 
    122 N         -4.8809  -15.8813  -51.5890 N.am      22 UNK        -0.7600 
    123 O         -5.6548  -17.5223  -52.8558 O.2       22 UNK        -0.5000 
    124 C124       -2.5578  -17.7915  -51.0699 C.3       23 UNK        -0.0398 
    125 S125       -1.7653  -16.2848  -50.4108 S.3       23 UNK        -0.2404 
    126 C126       -0.1025  -16.3998  -51.1413 C.3       23 UNK        -0.0205 
    127 H127       -0.5138  -17.3941  -42.3883 H         1 UNK         0.0600 
    128 H128       -1.4397  -15.9416  -42.7555 H         1 UNK         0.0600 
    129 H129       -0.7094  -16.1437  -41.1609 H         1 UNK         0.0600 
    130 H130        1.4237  -17.3120  -43.5240 H         1 UNK         0.3000 
    131 H131        2.5304  -15.1490  -44.7718 H         1 UNK         0.0600 
    132 H132        4.5680  -16.5425  -45.1198 H         1 UNK         0.0800 
    133 H133        4.0735  -17.6280  -43.8495 H         1 UNK         0.0800 
    134 H134        4.2426  -17.2529  -47.5807 H         1 UNK         0.0800 
    135 H135        2.9926  -16.0685  -47.2599 H         1 UNK         0.0800 
    136 H136        1.3538  -15.8403  -48.9254 H         1 UNK         0.1150 
    137 H137        0.4751  -19.0211  -51.6496 H         1 UNK         0.1150 
    138 H138        3.2248  -19.6564  -48.4152 H         1 UNK         0.1150 
    139 H139        2.4257  -21.5569  -49.6373 H         1 UNK         0.0800 
    140 H140        2.8380  -20.9930  -51.2348 H         1 UNK         0.0800 
    141 H141       -1.6219  -21.6360  -50.3201 H         1 UNK         0.0800 
    142 H142       -0.5681  -20.6520  -49.3541 H         1 UNK         0.0800 
    143 H143       -0.2942  -23.6906  -49.2904 H         1 UNK         0.0600 
    144 H144        0.8378  -21.5804  -47.6985 H         1 UNK         0.3000 
    145 H145        2.0911  -23.7838  -45.1501 H         1 UNK         0.0600 
    146 H146        3.6876  -23.6333  -47.0817 H         1 UNK         0.0600 
    147 H147        4.1119  -22.5239  -45.7887 H         1 UNK         0.0600 
    148 H148        3.3297  -21.9185  -47.2468 H         1 UNK         0.0600 
    149 H149        2.1884  -20.9841  -45.2411 H         1 UNK         0.3000 
    150 H150       -0.7174  -20.4084  -43.1642 H         1 UNK         0.0600 
    151 H151        2.2807  -19.7390  -43.3292 H         1 UNK         0.0600 
    152 H152        1.5333  -20.7049  -42.0661 H         1 UNK         0.0600 
    153 H153        1.1003  -19.0195  -42.2392 H         1 UNK         0.0600 
    154 H154        0.8219  -19.2630  -45.4642 H         1 UNK         0.3000 
    155 H155       -0.0729  -17.9299  -46.8672 H         1 UNK         0.0600 
    156 H156       -2.9755  -18.8202  -47.2358 H         1 UNK         0.0600 
    157 H157       -1.7655  -18.5018  -48.4811 H         1 UNK         0.0600 
    158 H158       -1.5915  -19.8850  -47.4234 H         1 UNK         0.0600 
    159 H159       -2.6868  -16.6178  -46.3170 H         1 UNK         0.3000 
    160 H160       -2.7235  -14.3646  -46.8660 H         1 UNK         0.0600 
    161 H161       -1.1703  -13.6803  -44.3074 H         1 UNK         0.0600 
    162 H162       -2.6772  -14.5883  -44.3885 H         1 UNK         0.0600 
    163 H163       -2.6512  -12.8916  -44.8422 H         1 UNK         0.0600 
    164 H164       -0.1337  -12.9252  -46.4869 H         1 UNK         0.3000 
    165 H165       -0.0752  -11.7913  -49.7596 H         1 UNK         0.0600 
    166 H166       -0.1888   -9.4106  -49.0396 H         1 UNK         0.0600 
    167 H167       -1.8014  -10.0969  -49.1481 H         1 UNK         0.0600 
    168 H168       -1.0517   -9.8742  -47.5720 H         1 UNK         0.0600 
    169 H169        1.1479  -10.8868  -47.2737 H         1 UNK         0.3000 
    170 H170        3.3684  -13.4365  -46.8351 H         1 UNK         0.0600 
    171 H171        4.3568  -10.9368  -48.3113 H         1 UNK         0.0600 
    172 H172        5.3345  -11.9882  -47.2850 H         1 UNK         0.0600 
    173 H173        4.6747  -12.5990  -48.7927 H         1 UNK         0.0600 
    174 H174        3.5691  -10.7323  -45.9746 H         1 UNK         0.3000 
    175 H175        2.9589  -10.2155  -43.8759 H         1 UNK         0.0600 
    176 H176       -0.1021  -10.3048  -44.2201 H         1 UNK         0.0600 
    177 H177        0.8006   -9.0160  -43.4261 H         1 UNK         0.0600 
    178 H178        0.9867   -9.2812  -45.1500 H         1 UNK         0.0600 
    179 H179        1.5355  -12.4427  -42.7536 H         1 UNK         0.3000 
    180 H180        2.2765  -11.4061  -39.3719 H         1 UNK         0.0600 
    181 H181       -0.1473  -12.6143  -40.8063 H         1 UNK         0.0600 
    182 H182       -0.1570  -11.2342  -39.7196 H         1 UNK         0.0600 
    183 H183        0.2485  -12.8286  -39.1025 H         1 UNK         0.0600 
    184 H184        2.0266  -13.8624  -40.9974 H         1 UNK         0.3000 
    185 H185        5.4807  -14.5277  -40.9983 H         1 UNK         0.0600 
    186 H186        5.0829  -15.1818  -38.6229 H         1 UNK         0.0600 
    187 H187        3.5210  -15.8662  -39.0559 H         1 UNK         0.0600 
    188 H188        5.0079  -16.5803  -39.6822 H         1 UNK         0.0600 
    189 H189        3.1362  -16.1519  -41.4583 H         1 UNK         0.3000 
    190 H190       -1.4604  -22.0381  -46.4332 H         1 UNK         0.3000 
    191 H191       -4.2657  -22.7476  -46.8490 H         1 UNK         0.0600 
    192 H192       -3.6883  -20.7492  -45.5120 H         1 UNK         0.0600 
    193 H193       -4.5444  -21.9253  -44.5292 H         1 UNK         0.0600 
    194 H194       -2.8070  -21.7385  -44.3516 H         1 UNK         0.0600 
    195 H195       -1.5050  -23.9426  -44.8789 H         1 UNK         0.3000 
    196 H196       -2.8012  -26.1856  -43.7369 H         1 UNK         0.0600 
    197 H197       -0.4612  -26.9270  -43.2464 H         1 UNK         0.0600 
    198 H198       -0.6909  -25.2274  -42.8618 H         1 UNK         0.0600 
    199 H199        0.1662  -25.6895  -44.3299 H         1 UNK         0.0600 
    200 H200       -0.9200  -25.8683  -46.7724 H         1 UNK         0.3000 
    201 H201       -1.1514  -28.6369  -47.5411 H         1 UNK         0.0600 
    202 H202       -0.1952  -27.7978  -49.6824 H         1 UNK         0.0600 
    203 H203        0.6842  -27.1342  -48.3148 H         1 UNK         0.0600 
    204 H204       -0.4800  -26.1354  -49.1835 H         1 UNK         0.0600 
    205 H205       -3.4283  -26.0996  -47.5941 H         1 UNK         0.3000 
    206 H206       -5.4058  -25.6942  -48.4433 H         1 UNK         0.0600 
    207 H207       -5.9660  -28.0537  -47.7967 H         1 UNK         0.0600 
    208 H208       -6.8985  -27.4932  -49.1747 H         1 UNK         0.0600 
    209 H209       -5.5506  -28.5909  -49.4247 H         1 UNK         0.0600 
    210 H210       -2.9475  -25.4027  -50.0709 H         1 UNK         0.3000 
    211 H211       -3.7415  -25.5075  -52.8800 H         1 UNK         0.0600 
    212 H212       -1.5670  -24.3539  -53.2217 H         1 UNK         0.0600 
    213 H213       -1.3543  -25.7549  -52.1855 H         1 UNK         0.0600 
    214 H214       -1.3785  -24.1383  -51.4860 H         1 UNK         0.0600 
    215 H215       -3.8812  -23.2097  -50.1895 H         1 UNK         0.3000 
    216 H216       -4.4674  -20.8368  -51.6494 H         1 UNK         0.0600 
    217 H217       -5.4000  -20.0413  -49.4691 H         1 UNK         0.0600 
    218 H218       -3.8356  -20.8076  -49.2579 H         1 UNK         0.0600 
    219 H219       -5.3080  -21.6766  -48.8255 H         1 UNK         0.0600 
    220 H220       -6.5371  -23.5365  -50.6144 H         1 UNK         0.3000 
    221 H221       -9.0483  -22.3660  -51.4379 H         1 UNK         0.0600 
    222 H222       -8.2801  -25.2901  -50.9294 H         1 UNK         0.0600 
    223 H223       -8.9025  -24.1683  -49.7191 H         1 UNK         0.0600 
    224 H224       -9.9138  -24.6589  -51.0687 H         1 UNK         0.0600 
    225 H225       -6.4302  -23.9166  -53.1259 H         1 UNK         0.3000 
    226 H226       -7.9850  -24.3617  -55.6074 H         1 UNK         0.0600 
    227 H227       -5.9581  -25.4817  -56.3951 H         1 UNK         0.0600 
    228 H228       -5.0468  -24.9633  -54.9868 H         1 UNK         0.0600 
    229 H229       -6.3631  -26.1225  -54.8115 H         1 UNK         0.0600 
    230 H230       -6.9649  -21.7095  -54.1612 H         1 UNK         0.3000 
    231 H231       -6.6251  -19.6376  -54.7204 H         1 UNK         0.0600 
    232 H232       -6.9106  -20.3763  -57.6731 H         1 UNK         0.0600 
    233 H233       -7.1025  -18.7850  -56.9555 H         1 UNK         0.0600 
    234 H234       -8.2550  -20.0527  -56.5778 H         1 UNK         0.0600 
    235 H235       -4.2921  -21.4885  -54.4570 H         1 UNK         0.3000 
    236 H236       -2.1532  -20.1746  -55.9389 H         1 UNK         0.0600 
    237 H237       -1.9518  -21.8055  -53.3622 H         1 UNK         0.0600 
    238 H238       -2.0065  -22.5260  -54.9754 H         1 UNK         0.0600 
    239 H239       -0.6760  -21.4729  -54.5161 H         1 UNK         0.0600 
    240 H240       -4.1513  -19.1887  -53.3654 H         1 UNK         0.3000 
    241 H241       -2.6980  -16.7861  -52.9889 H         1 UNK         0.0600 
    242 H242       -4.1079  -15.4311  -51.1210 H         1 UNK         0.3800 
    243 H243       -5.8099  -15.5004  -51.4998 H         1 UNK         0.3800 
    244 H244       -1.7970  -18.5663  -51.1576 H         1 UNK         0.0800 
    245 H245       -3.2697  -18.1710  -50.3352 H         1 UNK         0.0800 
    246 H246       -0.1756  -16.7137  -52.1839 H         1 UNK         0.0800 
    247 H247        0.3383  -15.4017  -51.1561 H         1 UNK         0.0800 
@<TRIPOS>BOND
     1    1    2 1    
     2    1  127 1    
     3    1  128 1    
     4    1  129 1    
     5    2    3 2    
     6    2    4 am   BACKBONE|DICT|INTERRES
     7    4    5 1    
     8    4  130 1    
     9    5    6 1    
    10    5   65 1    
    11    5  131 1    
    12    6    7 1    
    13    6  132 1    
    14    6  133 1    
    15    7    8 1    
    16    8    9 1    
    17    8  134 1    
    18    8  135 1    
    19    9   10 ar   
    20    9   14 ar   
    21   10   11 ar   
    22   10  136 1    
    23   11   12 ar   
    24   11  126 1    
    25   12   13 ar   
    26   12  137 1    
    27   13   14 ar   
    28   13   15 1    
    29   14  138 1    
    30   15   16 1    
    31   15  139 1    
    32   15  140 1    
    33   16   17 1    
    34   17   18 1    
    35   17  141 1    
    36   17  142 1    
    37   18   19 1    
    38   18   67 1    
    39   18  143 1    
    40   19   20 am   BACKBONE|DICT|INTERRES
    41   19  144 1    
    42   20   21 2    
    43   20   22 1    
    44   22   23 1    
    45   22   24 1    
    46   22  145 1    
    47   23  146 1    
    48   23  147 1    
    49   23  148 1    
    50   24   25 am   BACKBONE|DICT|INTERRES
    51   24  149 1    
    52   25   26 2    
    53   25   27 1    
    54   27   28 1    
    55   27   29 1    
    56   27  150 1    
    57   28  151 1    
    58   28  152 1    
    59   28  153 1    
    60   29   30 am   BACKBONE|DICT|INTERRES
    61   29  154 1    
    62   30   31 2    
    63   30   32 1    
    64   32   33 1    
    65   32   34 1    
    66   32  155 1    
    67   33  156 1    
    68   33  157 1    
    69   33  158 1    
    70   34   35 am   BACKBONE|DICT|INTERRES
    71   34  159 1    
    72   35   36 2    
    73   35   37 1    
    74   37   38 1    
    75   37   39 1    
    76   37  160 1    
    77   38  161 1    
    78   38  162 1    
    79   38  163 1    
    80   39   40 am   BACKBONE|DICT|INTERRES
    81   39  164 1    
    82   40   41 2    
    83   40   42 1    
    84   42   43 1    
    85   42   44 1    
    86   42  165 1    
    87   43  166 1    
    88   43  167 1    
    89   43  168 1    
    90   44   45 am   BACKBONE|DICT|INTERRES
    91   44  169 1    
    92   45   46 2    
    93   45   47 1    
    94   47   48 1    
    95   47   49 1    
    96   47  170 1    
    97   48  171 1    
    98   48  172 1    
    99   48  173 1    
   100   49   50 am   BACKBONE|DICT|INTERRES
   101   49  174 1    
   102   50   51 2    
   103   50   52 1    
   104   52   53 1    
   105   52   54 1    
   106   52  175 1    
   107   53  176 1    
   108   53  177 1    
   109   53  178 1    
   110   54   55 am   BACKBONE|DICT|INTERRES
   111   54  179 1    
   112   55   56 2    
   113   55   57 1    
   114   57   58 1    
   115   57   59 1    
   116   57  180 1    
   117   58  181 1    
   118   58  182 1    
   119   58  183 1    
   120   59   60 am   BACKBONE|DICT|INTERRES
   121   59  184 1    
   122   60   61 2    
   123   60   62 1    
   124   62   63 1    
   125   62   64 1    
   126   62  185 1    
   127   63  186 1    
   128   63  187 1    
   129   63  188 1    
   130   64   65 am   BACKBONE|DICT|INTERRES
   131   64  189 1    
   132   65   66 2    
   133   67   68 2    
   134   67   69 am   BACKBONE|DICT|INTERRES
   135   69   70 1    
   136   69  190 1    
   137   70   71 1    
   138   70   72 1    
   139   70  191 1    
   140   71  192 1    
   141   71  193 1    
   142   71  194 1    
   143   72   73 2    
   144   72   74 am   BACKBONE|DICT|INTERRES
   145   74   75 1    
   146   74  195 1    
   147   75   76 1    
   148   75   77 1    
   149   75  196 1    
   150   76  197 1    
   151   76  198 1    
   152   76  199 1    
   153   77   78 2    
   154   77   79 am   BACKBONE|DICT|INTERRES
   155   79   80 1    
   156   79  200 1    
   157   80   81 1    
   158   80   82 1    
   159   80  201 1    
   160   81  202 1    
   161   81  203 1    
   162   81  204 1    
   163   82   83 2    
   164   82   84 am   BACKBONE|DICT|INTERRES
   165   84   85 1    
   166   84  205 1    
   167   85   86 1    
   168   85   87 1    
   169   85  206 1    
   170   86  207 1    
   171   86  208 1    
   172   86  209 1    
   173   87   88 2    
   174   87   89 am   BACKBONE|DICT|INTERRES
   175   89   90 1    
   176   89  210 1    
   177   90   91 1    
   178   90   92 1    
   179   90  211 1    
   180   91  212 1    
   181   91  213 1    
   182   91  214 1    
   183   92   93 2    
   184   92   94 am   BACKBONE|DICT|INTERRES
   185   94   95 1    
   186   94  215 1    
   187   95   96 1    
   188   95   97 1    
   189   95  216 1    
   190   96  217 1    
   191   96  218 1    
   192   96  219 1    
   193   97   98 2    
   194   97   99 am   BACKBONE|DICT|INTERRES
   195   99  100 1    
   196   99  220 1    
   197  100  101 1    
   198  100  102 1    
   199  100  221 1    
   200  101  222 1    
   201  101  223 1    
   202  101  224 1    
   203  102  103 2    
   204  102  104 am   BACKBONE|DICT|INTERRES
   205  104  105 1    
   206  104  225 1    
   207  105  106 1    
   208  105  107 1    
   209  105  226 1    
   210  106  227 1    
   211  106  228 1    
   212  106  229 1    
   213  107  108 2    
   214  107  109 am   BACKBONE|DICT|INTERRES
   215  109  110 1    
   216  109  230 1    
   217  110  111 1    
   218  110  112 1    
   219  110  231 1    
   220  111  232 1    
   221  111  233 1    
   222  111  234 1    
   223  112  113 2    
   224  112  114 am   BACKBONE|DICT|INTERRES
   225  114  115 1    
   226  114  235 1    
   227  115  116 1    
   228  115  117 1    
   229  115  236 1    
   230  116  237 1    
   231  116  238 1    
   232  116  239 1    
   233  117  118 2    
   234  117  119 am   BACKBONE|DICT|INTERRES
   235  119  120 1    
   236  119  240 1    
   237  120  121 1    
   238  120  124 1    
   239  120  241 1    
   240  121  122 am   BACKBONE|DICT|INTERRES
   241  121  123 2    
   242  122  242 1    
   243  122  243 1    
   244  124  125 1    
   245  124  244 1    
   246  124  245 1    
   247  125  126 1    
   248  126  246 1    
   249  126  247 1    
@<TRIPOS>SUBSTRUCTURE
     1 UNK         1 GROUP             0       ****    0 ROOT    
