@<TRIPOS>MOLECULE
3R540
247   249    1
SMALL
USER_CHARGES


@<TRIPOS>ATOM
      1 CA         -3.4683  -16.3059  -46.5324 C.3       0 UNK        -0.1800 
      2 C          -2.3178  -15.9266  -47.4520 C.2       0 UNK         0.5000 
      3 O          -1.3268  -16.6508  -47.5318 O.2       0 UNK        -0.5000 
      4 N          -2.4540  -14.7882  -48.1434 N.am      1 UNK        -0.5000 
      5 CA         -1.5418  -14.2159  -49.1457 C.3       1 UNK         0.1400 
      6 C6         -1.2411  -15.1499  -50.3461 C.3       23 UNK        -0.0398 
      7 S7         -2.7421  -15.6616  -51.2576 S.3       23 UNK        -0.2404 
      8 C8         -2.6261  -17.4831  -51.2177 C.3       23 UNK        -0.0205 
      9 C9         -1.2836  -17.9975  -51.7201 C.ar      23 UNK        -0.0193 
     10 C10        -0.8233  -17.6580  -52.9951 C.ar      23 UNK        -0.1150 
     11 C11         0.4338  -18.0825  -53.4316 C.ar      23 UNK        -0.0193 
     12 C12         1.2320  -18.8550  -52.5826 C.ar      23 UNK        -0.1150 
     13 C13         0.7749  -19.2217  -51.3132 C.ar      23 UNK        -0.0193 
     14 C14        -0.4888  -18.7965  -50.8941 C.ar      23 UNK        -0.1150 
     15 C15         1.6340  -20.1071  -50.4203 C.3       23 UNK        -0.0205 
     16 S16         2.4098  -19.2024  -49.0352 S.3       23 UNK        -0.2404 
     17 C17         1.1257  -19.1844  -47.7320 C.3       23 UNK        -0.0398 
     18 CA          0.7136  -20.6033  -47.2432 C.3       11 UNK         0.1400 
     19 N           0.9668  -20.8426  -45.8195 N.am      11 UNK        -0.5000 
     20 C           0.9476  -22.0609  -45.2564 C.2       10 UNK         0.5000 
     21 O           0.7292  -23.0988  -45.8833 O.2       10 UNK        -0.5000 
     22 CA          1.1666  -22.1362  -43.7349 C.3       10 UNK         0.1400 
     23 CB          2.6478  -21.9433  -43.3771 C.3       10 UNK        -0.1800 
     24 N           0.3462  -21.1746  -42.9998 N.am      10 UNK        -0.5000 
     25 C          -0.9945  -21.1914  -42.9736 C.2       9 UNK         0.5000 
     26 O          -1.6817  -22.0408  -43.5425 O.2       9 UNK        -0.5000 
     27 CA         -1.6860  -20.0411  -42.2190 C.3       9 UNK         0.1400 
     28 CB         -1.6870  -20.3041  -40.7059 C.3       9 UNK        -0.1800 
     29 N          -1.0809  -18.7365  -42.4914 N.am      9 UNK        -0.5000 
     30 C          -1.0191  -18.1707  -43.7057 C.2       8 UNK         0.5000 
     31 O          -1.4870  -18.6805  -44.7201 O.2       8 UNK        -0.5000 
     32 CA         -0.2504  -16.8459  -43.8212 C.3       8 UNK         0.1400 
     33 CB         -1.0705  -15.6852  -43.2385 C.3       8 UNK        -0.1800 
     34 N           1.0571  -16.9121  -43.1688 N.am      8 UNK        -0.5000 
     35 C           2.0320  -17.7776  -43.4832 C.2       7 UNK         0.5000 
     36 O           1.9608  -18.5834  -44.4088 O.2       7 UNK        -0.5000 
     37 CA          3.2758  -17.7868  -42.5816 C.3       7 UNK         0.1400 
     38 CB          4.2721  -16.7007  -43.0016 C.3       7 UNK        -0.1800 
     39 N           2.9271  -17.6186  -41.1729 N.am      7 UNK        -0.5000 
     40 C           2.3222  -18.5568  -40.4327 C.2       6 UNK         0.5000 
     41 O           2.0229  -19.6753  -40.8529 O.2       6 UNK        -0.5000 
     42 CA          1.9588  -18.1570  -38.9916 C.3       6 UNK         0.1400 
     43 CB          3.1868  -18.2479  -38.0732 C.3       6 UNK        -0.1800 
     44 N           1.3871  -16.8109  -38.9111 N.am      6 UNK        -0.5000 
     45 C           0.1972  -16.4729  -39.4257 C.2       5 UNK         0.5000 
     46 O          -0.5387  -17.2611  -40.0194 O.2       5 UNK        -0.5000 
     47 CA         -0.2374  -15.0035  -39.2750 C.3       5 UNK         0.1400 
     48 CB         -0.8988  -14.7787  -37.9068 C.3       5 UNK        -0.1800 
     49 N           0.8304  -14.0148  -39.4646 N.am      5 UNK        -0.5000 
     50 C           1.5838  -13.8860  -40.5654 C.2       4 UNK         0.5000 
     51 O           1.5848  -14.7014  -41.4873 O.2       4 UNK        -0.5000 
     52 CA          2.4739  -12.6313  -40.6375 C.3       4 UNK         0.1400 
     53 CB          3.9271  -12.9434  -40.2287 C.3       4 UNK        -0.1800 
     54 N           2.3753  -11.9675  -41.9466 N.am      4 UNK        -0.5000 
     55 C           2.9120  -12.3345  -43.1200 C.2       3 UNK         0.5000 
     56 O           3.7417  -13.2333  -43.2661 O.2       3 UNK        -0.5000 
     57 CA          2.4777  -11.5145  -44.3484 C.3       3 UNK         0.1400 
     58 CB          3.4376  -10.3364  -44.5779 C.3       3 UNK        -0.1800 
     59 N           2.4643  -12.3556  -45.5455 N.am      3 UNK        -0.5000 
     60 C           1.4644  -13.1805  -45.8768 C.2       2 UNK         0.5000 
     61 O           0.3927  -13.2362  -45.2696 O.2       2 UNK        -0.5000 
     62 CA          1.7215  -14.1104  -47.0781 C.3       2 UNK         0.1400 
     63 CB          2.4400  -15.3943  -46.6330 C.3       2 UNK        -0.1800 
     64 N           0.4814  -14.4752  -47.7614 N.am      2 UNK        -0.5000 
     65 C          -0.2324  -13.6591  -48.5448 C.2       1 UNK         0.5000 
     66 O           0.1088  -12.5053  -48.8112 O.2       1 UNK        -0.5000 
     67 C          -0.7408  -20.9416  -47.6240 C.2       11 UNK         0.5000 
     68 O          -0.9515  -21.5687  -48.6590 O.2       11 UNK        -0.5000 
     69 N          -1.7158  -20.5771  -46.7784 N.am      12 UNK        -0.5000 
     70 CA         -3.1279  -20.9104  -46.9686 C.3       12 UNK         0.1400 
     71 CB         -3.9878  -20.2647  -45.8734 C.3       12 UNK        -0.1800 
     72 C          -3.3801  -22.4248  -47.0247 C.2       12 UNK         0.5000 
     73 O          -4.1192  -22.8735  -47.9001 O.2       12 UNK        -0.5000 
     74 N          -2.7344  -23.1820  -46.1271 N.am      13 UNK        -0.5000 
     75 CA         -2.7645  -24.6436  -46.1116 C.3       13 UNK         0.1400 
     76 CB         -2.0969  -25.1615  -44.8288 C.3       13 UNK        -0.1800 
     77 C          -2.1117  -25.2584  -47.3633 C.2       13 UNK         0.5000 
     78 O          -2.7058  -26.1428  -47.9817 O.2       13 UNK        -0.5000 
     79 N          -0.9240  -24.7570  -47.7344 N.am      14 UNK        -0.5000 
     80 CA         -0.1701  -25.1852  -48.9162 C.3       14 UNK         0.1400 
     81 CB          1.2091  -24.5085  -48.9181 C.3       14 UNK        -0.1800 
     82 C          -0.9085  -24.9119  -50.2404 C.2       14 UNK         0.5000 
     83 O          -0.8915  -25.7592  -51.1333 O.2       14 UNK        -0.5000 
     84 N          -1.5698  -23.7520  -50.3248 N.am      15 UNK        -0.5000 
     85 CA         -2.3649  -23.3040  -51.4662 C.3       15 UNK         0.1400 
     86 CB         -2.2350  -21.7770  -51.5918 C.3       15 UNK        -0.1800 
     87 C          -3.8386  -23.7539  -51.4002 C.2       15 UNK         0.5000 
     88 O          -4.6666  -23.1674  -52.0949 O.2       15 UNK        -0.5000 
     89 N          -4.1491  -24.7761  -50.5871 N.am      16 UNK        -0.5000 
     90 CA         -5.4402  -25.4680  -50.4887 C.3       16 UNK         0.1400 
     91 CB         -5.6817  -26.3130  -51.7569 C.3       16 UNK        -0.1800 
     92 C          -6.6171  -24.5222  -50.1679 C.2       16 UNK         0.5000 
     93 O          -7.5631  -24.4135  -50.9503 O.2       16 UNK        -0.5000 
     94 N          -6.5075  -23.8467  -49.0176 N.am      17 UNK        -0.5000 
     95 CA         -7.3898  -22.7948  -48.5045 C.3       17 UNK         0.1400 
     96 CB         -8.8568  -23.2613  -48.3830 C.3       17 UNK        -0.1800 
     97 C          -7.2128  -21.4725  -49.2765 C.2       17 UNK         0.5000 
     98 O          -8.1953  -20.7951  -49.5832 O.2       17 UNK        -0.5000 
     99 N          -5.9428  -21.1268  -49.5393 N.am      18 UNK        -0.5000 
    100 CA        -5.4673  -19.8773  -50.1437 C.3       18 UNK         0.1400 
    101 CB        -5.6978  -18.6948  -49.1777 C.3       18 UNK        -0.1800 
    102 C         -6.0294  -19.6153  -51.5570 C.2       18 UNK         0.5000 
    103 O         -6.4649  -18.4996  -51.8501 O.2       18 UNK        -0.5000 
    104 N         -6.0141  -20.6445  -52.4139 N.am      19 UNK        -0.5000 
    105 CA        -6.4255  -20.5438  -53.8125 C.3       19 UNK         0.1400 
    106 CB        -6.6219  -21.9557  -54.3871 C.3       19 UNK        -0.1800 
    107 C         -5.3961  -19.7659  -54.6527 C.2       19 UNK         0.5000 
    108 O         -4.1954  -19.8169  -54.3727 O.2       19 UNK        -0.5000 
    109 N         -5.8835  -19.1142  -55.7169 N.am      20 UNK        -0.5000 
    110 CA        -5.0887  -18.3383  -56.6777 C.3       20 UNK         0.1400 
    111 CB        -6.0460  -17.5588  -57.5931 C.3       20 UNK        -0.1800 
    112 C         -4.1023  -19.1809  -57.5155 C.2       20 UNK         0.5000 
    113 O         -3.2147  -18.6165  -58.1553 O.2       20 UNK        -0.5000 
    114 N         -4.2656  -20.5107  -57.4887 N.am      21 UNK        -0.5000 
    115 CA        -3.3498  -21.4923  -58.0684 C.3       21 UNK         0.1400 
    116 CB        -4.0524  -22.8591  -58.0952 C.3       21 UNK        -0.1800 
    117 C         -2.0001  -21.5944  -57.3249 C.2       21 UNK         0.5000 
    118 O         -1.0463  -22.1141  -57.9065 O.2       21 UNK        -0.5000 
    119 N         -1.9411  -21.1005  -56.0777 N.am      22 UNK        -0.5000 
    120 CA        -0.7701  -21.1063  -55.1824 C.3       22 UNK         0.1400 
    121 C         -0.3784  -22.5273  -54.6716 C.2       22 UNK         0.5000 
    122 N          0.6400  -22.6359  -53.8274 N.am      22 UNK        -0.7600 
    123 O         -1.0010  -23.5370  -54.9935 O.2       22 UNK        -0.5000 
    124 C124        0.4465  -20.3244  -55.7645 C.3       23 UNK        -0.0398 
    125 S125        0.0470  -18.5814  -56.1400 S.3       23 UNK        -0.2404 
    126 C126        0.9323  -17.6967  -54.8165 C.3       23 UNK        -0.0205 
    127 H127       -3.0913  -16.7248  -45.6013 H         1 UNK         0.0600 
    128 H128       -4.0954  -17.0543  -47.0145 H         1 UNK         0.0600 
    129 H129       -4.0895  -15.4444  -46.2875 H         1 UNK         0.0600 
    130 H130       -3.2913  -14.2431  -47.9946 H         1 UNK         0.3000 
    131 H131       -2.0756  -13.3518  -49.5450 H         1 UNK         0.0600 
    132 H132       -0.5903  -14.6465  -51.0632 H         1 UNK         0.0800 
    133 H133       -0.6862  -16.0258  -50.0098 H         1 UNK         0.0800 
    134 H134       -2.8094  -17.8190  -50.1960 H         1 UNK         0.0800 
    135 H135       -3.4203  -17.9040  -51.8357 H         1 UNK         0.0800 
    136 H136       -1.4392  -17.0509  -53.6438 H         1 UNK         0.1150 
    137 H137        2.2083  -19.1790  -52.9147 H         1 UNK         0.1150 
    138 H138       -0.8573  -19.0845  -49.9220 H         1 UNK         0.1150 
    139 H139        1.0481  -20.9515  -50.0650 H         1 UNK         0.0800 
    140 H140        2.4373  -20.5502  -51.0105 H         1 UNK         0.0800 
    141 H141        0.2793  -18.5967  -48.0847 H         1 UNK         0.0800 
    142 H142        1.5304  -18.5978  -46.9089 H         1 UNK         0.0800 
    143 H143        1.3360  -21.3329  -47.7642 H         1 UNK         0.0600 
    144 H144        1.1786  -20.0297  -45.2442 H         1 UNK         0.3000 
    145 H145        0.8718  -23.1361  -43.4096 H         1 UNK         0.0600 
    146 H146        2.8133  -22.0643  -42.3064 H         1 UNK         0.0600 
    147 H147        3.2705  -22.6784  -43.8882 H         1 UNK         0.0600 
    148 H148        3.0084  -20.9549  -43.6607 H         1 UNK         0.0600 
    149 H149        0.8376  -20.4540  -42.4838 H         1 UNK         0.3000 
    150 H150       -2.7233  -20.0010  -42.5572 H         1 UNK         0.0600 
    151 H151       -2.1366  -21.2711  -40.4767 H         1 UNK         0.0600 
    152 H152       -2.2613  -19.5444  -40.1754 H         1 UNK         0.0600 
    153 H153       -0.6763  -20.3044  -40.2963 H         1 UNK         0.0600 
    154 H154       -0.6966  -18.2377  -41.6937 H         1 UNK         0.3000 
    155 H155       -0.0880  -16.6468  -44.8814 H         1 UNK         0.0600 
    156 H156       -1.3265  -15.8541  -42.1936 H         1 UNK         0.0600 
    157 H157       -0.5235  -14.7450  -43.2977 H         1 UNK         0.0600 
    158 H158       -2.0034  -15.5523  -43.7861 H         1 UNK         0.0600 
    159 H159        1.2287  -16.2329  -42.4301 H         1 UNK         0.3000 
    160 H160        3.7662  -18.7552  -42.7011 H         1 UNK         0.0600 
    161 H161        5.1980  -16.7700  -42.4307 H         1 UNK         0.0600 
    162 H162        3.8560  -15.7076  -42.8456 H         1 UNK         0.0600 
    163 H163        4.5294  -16.7891  -44.0578 H         1 UNK         0.0600 
    164 H164        3.0754  -16.7033  -40.7737 H         1 UNK         0.3000 
    165 H165        1.2109  -18.8661  -38.6299 H         1 UNK         0.0600 
    166 H166        2.9185  -18.0465  -37.0359 H         1 UNK         0.0600 
    167 H167        3.6251  -19.2463  -38.1064 H         1 UNK         0.0600 
    168 H168        3.9630  -17.5386  -38.3632 H         1 UNK         0.0600 
    169 H169        1.9337  -16.1016  -38.4455 H         1 UNK         0.3000 
    170 H170       -0.9890  -14.8112  -40.0428 H         1 UNK         0.0600 
    171 H171       -0.1869  -14.9028  -37.0899 H         1 UNK         0.0600 
    172 H172       -1.3243  -13.7778  -37.8331 H         1 UNK         0.0600 
    173 H173       -1.7120  -15.4876  -37.7442 H         1 UNK         0.0600 
    174 H174        0.9121  -13.3148  -38.7413 H         1 UNK         0.3000 
    175 H175        2.0863  -11.9050  -39.9214 H         1 UNK         0.0600 
    176 H176        4.5676  -12.0689  -40.3426 H         1 UNK         0.0600 
    177 H177        4.3550  -13.7550  -40.8178 H         1 UNK         0.0600 
    178 H178        3.9754  -13.2487  -39.1830 H         1 UNK         0.0600 
    179 H179        1.7184  -11.1999  -41.9671 H         1 UNK         0.3000 
    180 H180        1.4749  -11.1166  -44.1773 H         1 UNK         0.0600 
    181 H181        4.4594  -10.6767  -44.7510 H         1 UNK         0.0600 
    182 H182        3.4555   -9.6727  -43.7125 H         1 UNK         0.0600 
    183 H183        3.1317   -9.7402  -45.4378 H         1 UNK         0.0600 
    184 H184        3.3317  -12.4058  -46.0595 H         1 UNK         0.3000 
    185 H185        2.3633  -13.5868  -47.7899 H         1 UNK         0.0600 
    186 H186        3.3787  -15.1656  -46.1267 H         1 UNK         0.0600 
    187 H187        1.8320  -15.9759  -45.9425 H         1 UNK         0.0600 
    188 H188        2.6761  -16.0314  -47.4857 H         1 UNK         0.0600 
    189 H189        0.0844  -15.3877  -47.5547 H         1 UNK         0.3000 
    190 H190       -1.4901  -20.0122  -45.9611 H         1 UNK         0.3000 
    191 H191       -3.4290  -20.4907  -47.9294 H         1 UNK         0.0600 
    192 H192       -3.8906  -19.1804  -45.8838 H         1 UNK         0.0600 
    193 H193       -5.0439  -20.4966  -46.0171 H         1 UNK         0.0600 
    194 H194       -3.7049  -20.6149  -44.8805 H         1 UNK         0.0600 
    195 H195       -2.1715  -22.7285  -45.4144 H         1 UNK         0.3000 
    196 H196       -3.8109  -24.9554  -46.0965 H         1 UNK         0.0600 
    197 H197       -2.1171  -26.2513  -44.7897 H         1 UNK         0.0600 
    198 H198       -2.6132  -24.7939  -43.9418 H         1 UNK         0.0600 
    199 H199       -1.0548  -24.8485  -44.7598 H         1 UNK         0.0600 
    200 H200       -0.4920  -24.0431  -47.1550 H         1 UNK         0.3000 
    201 H201       -0.0189  -26.2636  -48.8379 H         1 UNK         0.0600 
    202 H202        1.7669  -24.7457  -48.0120 H         1 UNK         0.0600 
    203 H203        1.1243  -23.4239  -48.9847 H         1 UNK         0.0600 
    204 H204        1.8074  -24.8432  -49.7663 H         1 UNK         0.0600 
    205 H205       -1.4847  -23.0878  -49.5577 H         1 UNK         0.3000 
    206 H206       -1.9548  -23.7431  -52.3768 H         1 UNK         0.0600 
    207 H207       -1.1928  -21.4875  -51.7205 H         1 UNK         0.0600 
    208 H208       -2.7838  -21.3924  -52.4523 H         1 UNK         0.0600 
    209 H209       -2.6098  -21.2723  -50.7036 H         1 UNK         0.0600 
    210 H210       -3.4111  -25.1514  -50.0054 H         1 UNK         0.3000 
    211 H211       -5.3571  -26.1568  -49.6466 H         1 UNK         0.0600 
    212 H212       -5.7778  -25.6900  -52.6470 H         1 UNK         0.0600 
    213 H213       -6.5967  -26.8996  -51.6671 H         1 UNK         0.0600 
    214 H214       -4.8630  -27.0127  -51.9252 H         1 UNK         0.0600 
    215 H215       -5.6322  -23.9355  -48.5091 H         1 UNK         0.3000 
    216 H216       -7.0399  -22.5912  -47.4913 H         1 UNK         0.0600 
    217 H217       -9.4484  -22.5321  -47.8286 H         1 UNK         0.0600 
    218 H218       -8.9274  -24.2091  -47.8495 H         1 UNK         0.0600 
    219 H219       -9.3311  -23.3854  -49.3565 H         1 UNK         0.0600 
    220 H220       -5.2246  -21.7807  -49.2477 H         1 UNK         0.3000 
    221 H221       -4.3909  -19.9838  -50.2663 H         1 UNK         0.0600 
    222 H222       -6.7594  -18.4895  -49.0370 H         1 UNK         0.0600 
    223 H223       -5.2658  -18.8920  -48.1979 H         1 UNK         0.0600 
    224 H224       -5.2380  -17.7811  -49.5559 H         1 UNK         0.0600 
    225 H225       -5.6014  -21.5318  -52.1352 H         1 UNK         0.3000 
    226 H226       -7.3832  -20.0201  -53.8495 H         1 UNK         0.0600 
    227 H227       -7.2967  -22.5457  -53.7660 H         1 UNK         0.0600 
    228 H228       -7.0524  -21.9151  -55.3882 H         1 UNK         0.0600 
    229 H229       -5.6775  -22.4965  -54.4600 H         1 UNK         0.0600 
    230 H230       -6.8789  -19.1386  -55.8869 H         1 UNK         0.3000 
    231 H231       -4.4930  -17.6186  -56.1123 H         1 UNK         0.0600 
    232 H232       -6.6818  -18.2289  -58.1732 H         1 UNK         0.0600 
    233 H233       -5.4941  -16.9372  -58.2995 H         1 UNK         0.0600 
    234 H234       -6.6917  -16.8958  -57.0170 H         1 UNK         0.0600 
    235 H235       -5.0333  -20.8777  -56.9473 H         1 UNK         0.3000 
    236 H236       -3.1367  -21.1942  -59.0970 H         1 UNK         0.0600 
    237 H237       -4.9749  -22.8189  -58.6746 H         1 UNK         0.0600 
    238 H238       -3.4153  -23.6170  -58.5530 H         1 UNK         0.0600 
    239 H239       -4.2996  -23.2029  -57.0898 H         1 UNK         0.0600 
    240 H240       -2.7810  -20.7003  -55.6757 H         1 UNK         0.3000 
    241 H241       -1.1059  -20.5751  -54.2909 H         1 UNK         0.0600 
    242 H242        1.1609  -21.8353  -53.5103 H         1 UNK         0.3800 
    243 H243        0.8886  -23.5526  -53.4908 H         1 UNK         0.3800 
    244 H244        1.2922  -20.3438  -55.0777 H         1 UNK         0.0800 
    245 H245        0.8100  -20.7966  -56.6773 H         1 UNK         0.0800 
    246 H246        0.7977  -16.6235  -54.9589 H         1 UNK         0.0800 
    247 H247        2.0029  -17.8843  -54.9115 H         1 UNK         0.0800 
@<TRIPOS>BOND
     1    1    2 1    
     2    1  127 1    
     3    1  128 1    
     4    1  129 1    
     5    2    3 2    
     6    2    4 am   BACKBONE|DICT|INTERRES
     7    4    5 1    
     8    4  130 1    
     9    5    6 1    
    10    5   65 1    
    11    5  131 1    
    12    6    7 1    
    13    6  132 1    
    14    6  133 1    
    15    7    8 1    
    16    8    9 1    
    17    8  134 1    
    18    8  135 1    
    19    9   10 ar   
    20    9   14 ar   
    21   10   11 ar   
    22   10  136 1    
    23   11   12 ar   
    24   11  126 1    
    25   12   13 ar   
    26   12  137 1    
    27   13   14 ar   
    28   13   15 1    
    29   14  138 1    
    30   15   16 1    
    31   15  139 1    
    32   15  140 1    
    33   16   17 1    
    34   17   18 1    
    35   17  141 1    
    36   17  142 1    
    37   18   19 1    
    38   18   67 1    
    39   18  143 1    
    40   19   20 am   BACKBONE|DICT|INTERRES
    41   19  144 1    
    42   20   21 2    
    43   20   22 1    
    44   22   23 1    
    45   22   24 1    
    46   22  145 1    
    47   23  146 1    
    48   23  147 1    
    49   23  148 1    
    50   24   25 am   BACKBONE|DICT|INTERRES
    51   24  149 1    
    52   25   26 2    
    53   25   27 1    
    54   27   28 1    
    55   27   29 1    
    56   27  150 1    
    57   28  151 1    
    58   28  152 1    
    59   28  153 1    
    60   29   30 am   BACKBONE|DICT|INTERRES
    61   29  154 1    
    62   30   31 2    
    63   30   32 1    
    64   32   33 1    
    65   32   34 1    
    66   32  155 1    
    67   33  156 1    
    68   33  157 1    
    69   33  158 1    
    70   34   35 am   BACKBONE|DICT|INTERRES
    71   34  159 1    
    72   35   36 2    
    73   35   37 1    
    74   37   38 1    
    75   37   39 1    
    76   37  160 1    
    77   38  161 1    
    78   38  162 1    
    79   38  163 1    
    80   39   40 am   BACKBONE|DICT|INTERRES
    81   39  164 1    
    82   40   41 2    
    83   40   42 1    
    84   42   43 1    
    85   42   44 1    
    86   42  165 1    
    87   43  166 1    
    88   43  167 1    
    89   43  168 1    
    90   44   45 am   BACKBONE|DICT|INTERRES
    91   44  169 1    
    92   45   46 2    
    93   45   47 1    
    94   47   48 1    
    95   47   49 1    
    96   47  170 1    
    97   48  171 1    
    98   48  172 1    
    99   48  173 1    
   100   49   50 am   BACKBONE|DICT|INTERRES
   101   49  174 1    
   102   50   51 2    
   103   50   52 1    
   104   52   53 1    
   105   52   54 1    
   106   52  175 1    
   107   53  176 1    
   108   53  177 1    
   109   53  178 1    
   110   54   55 am   BACKBONE|DICT|INTERRES
   111   54  179 1    
   112   55   56 2    
   113   55   57 1    
   114   57   58 1    
   115   57   59 1    
   116   57  180 1    
   117   58  181 1    
   118   58  182 1    
   119   58  183 1    
   120   59   60 am   BACKBONE|DICT|INTERRES
   121   59  184 1    
   122   60   61 2    
   123   60   62 1    
   124   62   63 1    
   125   62   64 1    
   126   62  185 1    
   127   63  186 1    
   128   63  187 1    
   129   63  188 1    
   130   64   65 am   BACKBONE|DICT|INTERRES
   131   64  189 1    
   132   65   66 2    
   133   67   68 2    
   134   67   69 am   BACKBONE|DICT|INTERRES
   135   69   70 1    
   136   69  190 1    
   137   70   71 1    
   138   70   72 1    
   139   70  191 1    
   140   71  192 1    
   141   71  193 1    
   142   71  194 1    
   143   72   73 2    
   144   72   74 am   BACKBONE|DICT|INTERRES
   145   74   75 1    
   146   74  195 1    
   147   75   76 1    
   148   75   77 1    
   149   75  196 1    
   150   76  197 1    
   151   76  198 1    
   152   76  199 1    
   153   77   78 2    
   154   77   79 am   BACKBONE|DICT|INTERRES
   155   79   80 1    
   156   79  200 1    
   157   80   81 1    
   158   80   82 1    
   159   80  201 1    
   160   81  202 1    
   161   81  203 1    
   162   81  204 1    
   163   82   83 2    
   164   82   84 am   BACKBONE|DICT|INTERRES
   165   84   85 1    
   166   84  205 1    
   167   85   86 1    
   168   85   87 1    
   169   85  206 1    
   170   86  207 1    
   171   86  208 1    
   172   86  209 1    
   173   87   88 2    
   174   87   89 am   BACKBONE|DICT|INTERRES
   175   89   90 1    
   176   89  210 1    
   177   90   91 1    
   178   90   92 1    
   179   90  211 1    
   180   91  212 1    
   181   91  213 1    
   182   91  214 1    
   183   92   93 2    
   184   92   94 am   BACKBONE|DICT|INTERRES
   185   94   95 1    
   186   94  215 1    
   187   95   96 1    
   188   95   97 1    
   189   95  216 1    
   190   96  217 1    
   191   96  218 1    
   192   96  219 1    
   193   97   98 2    
   194   97   99 am   BACKBONE|DICT|INTERRES
   195   99  100 1    
   196   99  220 1    
   197  100  101 1    
   198  100  102 1    
   199  100  221 1    
   200  101  222 1    
   201  101  223 1    
   202  101  224 1    
   203  102  103 2    
   204  102  104 am   BACKBONE|DICT|INTERRES
   205  104  105 1    
   206  104  225 1    
   207  105  106 1    
   208  105  107 1    
   209  105  226 1    
   210  106  227 1    
   211  106  228 1    
   212  106  229 1    
   213  107  108 2    
   214  107  109 am   BACKBONE|DICT|INTERRES
   215  109  110 1    
   216  109  230 1    
   217  110  111 1    
   218  110  112 1    
   219  110  231 1    
   220  111  232 1    
   221  111  233 1    
   222  111  234 1    
   223  112  113 2    
   224  112  114 am   BACKBONE|DICT|INTERRES
   225  114  115 1    
   226  114  235 1    
   227  115  116 1    
   228  115  117 1    
   229  115  236 1    
   230  116  237 1    
   231  116  238 1    
   232  116  239 1    
   233  117  118 2    
   234  117  119 am   BACKBONE|DICT|INTERRES
   235  119  120 1    
   236  119  240 1    
   237  120  121 1    
   238  120  124 1    
   239  120  241 1    
   240  121  122 am   BACKBONE|DICT|INTERRES
   241  121  123 2    
   242  122  242 1    
   243  122  243 1    
   244  124  125 1    
   245  124  244 1    
   246  124  245 1    
   247  125  126 1    
   248  126  246 1    
   249  126  247 1    
@<TRIPOS>SUBSTRUCTURE
     1 UNK         1 GROUP             0       ****    0 ROOT    
