@<TRIPOS>MOLECULE
3R540
247   249    1
SMALL
USER_CHARGES


@<TRIPOS>ATOM
      1 CA          3.4985  -12.0392  -42.7891 C.3       0 UNK        -0.1800 
      2 C           2.9644  -11.3824  -44.0526 C.2       0 UNK         0.5000 
      3 O           3.6659  -10.5809  -44.6695 O.2       0 UNK        -0.5000 
      4 N           1.7261  -11.7160  -44.4384 N.am      1 UNK        -0.5000 
      5 CA          1.0411  -11.1784  -45.6217 C.3       1 UNK         0.1400 
      6 C6         -0.4994  -11.2590  -45.4812 C.3       23 UNK        -0.0398 
      7 S7         -1.1442  -12.9520  -45.2485 S.3       23 UNK        -0.2404 
      8 C8         -2.3608  -13.0352  -46.5979 C.3       23 UNK        -0.0205 
      9 C9         -2.8469  -14.4592  -46.7921 C.ar      23 UNK        -0.0193 
     10 C10        -3.9980  -14.9227  -46.1502 C.ar      23 UNK        -0.1150 
     11 C11        -4.4114  -16.2507  -46.3034 C.ar      23 UNK        -0.0193 
     12 C12        -3.6448  -17.1177  -47.0924 C.ar      23 UNK        -0.1150 
     13 C13        -2.5096  -16.6537  -47.7631 C.ar      23 UNK        -0.0193 
     14 C14        -2.1235  -15.3231  -47.6121 C.ar      23 UNK        -0.1150 
     15 C15        -1.6898  -17.5804  -48.6476 C.3       23 UNK        -0.0205 
     16 S16         0.0284  -17.7753  -48.0588 S.3       23 UNK        -0.2404 
     17 C17        -0.2021  -18.4035  -46.3616 C.3       23 UNK        -0.0398 
     18 CA         -0.2141  -19.9454  -46.2421 C.3       11 UNK         0.1400 
     19 N          -0.0747  -20.3743  -44.8516 N.am      11 UNK        -0.5000 
     20 C           0.0567  -21.6384  -44.4269 C.2       10 UNK         0.5000 
     21 O           0.0953  -22.6145  -45.1749 O.2       10 UNK        -0.5000 
     22 CA          0.1071  -21.8416  -42.9037 C.3       10 UNK         0.1400 
     23 CB          1.5224  -21.6029  -42.3567 C.3       10 UNK        -0.1800 
     24 N          -0.8356  -20.9600  -42.2167 N.am      10 UNK        -0.5000 
     25 C          -2.1649  -21.1277  -42.2279 C.2       9 UNK         0.5000 
     26 O          -2.7300  -22.0845  -42.7587 O.2       9 UNK        -0.5000 
     27 CA         -3.0004  -20.0197  -41.5599 C.3       9 UNK         0.1400 
     28 CB         -3.0944  -20.2502  -40.0442 C.3       9 UNK        -0.1800 
     29 N          -2.4738  -18.6758  -41.8147 N.am      9 UNK        -0.5000 
     30 C          -2.4632  -18.0892  -43.0198 C.2       8 UNK         0.5000 
     31 O          -2.8825  -18.6281  -44.0421 O.2       8 UNK        -0.5000 
     32 CA         -1.8440  -16.6818  -43.1051 C.3       8 UNK         0.1400 
     33 CB         -2.8721  -15.6174  -42.6939 C.3       8 UNK        -0.1800 
     34 N          -0.6257  -16.5128  -42.3055 N.am      8 UNK        -0.5000 
     35 C           0.4940  -17.2352  -42.4404 C.2       7 UNK         0.5000 
     36 O           0.6018  -18.2096  -43.1872 O.2       7 UNK        -0.5000 
     37 CA          1.6915  -16.8228  -41.5797 C.3       7 UNK         0.1400 
     38 CB          1.7524  -17.6669  -40.2967 C.3       7 UNK        -0.1800 
     39 N           2.9093  -17.0324  -42.3577 N.am      7 UNK        -0.5000 
     40 C           3.9437  -16.1861  -42.4181 C.2       6 UNK         0.5000 
     41 O           4.0019  -15.1470  -41.7608 O.2       6 UNK        -0.5000 
     42 CA          5.1238  -16.5473  -43.3462 C.3       6 UNK         0.1400 
     43 CB          6.4187  -16.7127  -42.5333 C.3       6 UNK        -0.1800 
     44 N           4.9133  -17.7669  -44.1309 N.am      6 UNK        -0.5000 
     45 C           4.2604  -17.8312  -45.2968 C.2       5 UNK         0.5000 
     46 O           3.7315  -16.8608  -45.8478 O.2       5 UNK        -0.5000 
     47 CA          4.1767  -19.2255  -45.9385 C.3       5 UNK         0.1400 
     48 CB          3.3484  -20.1846  -45.0693 C.3       5 UNK        -0.1800 
     49 N           3.5860  -19.0928  -47.2641 N.am      5 UNK        -0.5000 
     50 C           3.7256  -19.9546  -48.2789 C.2       4 UNK         0.5000 
     51 O           4.2570  -21.0597  -48.1686 O.2       4 UNK        -0.5000 
     52 CA          3.2307  -19.4896  -49.6646 C.3       4 UNK         0.1400 
     53 CB          1.8959  -20.1545  -50.0398 C.3       4 UNK        -0.1800 
     54 N           3.1224  -18.0262  -49.7661 N.am      4 UNK        -0.5000 
     55 C           4.1930  -17.2243  -49.8914 C.2       3 UNK         0.5000 
     56 O           5.3456  -17.6541  -49.9566 O.2       3 UNK        -0.5000 
     57 CA          3.9806  -15.7004  -49.9490 C.3       3 UNK         0.1400 
     58 CB          4.4603  -15.1463  -51.3031 C.3       3 UNK        -0.1800 
     59 N           2.5853  -15.2950  -49.7501 N.am      3 UNK        -0.5000 
     60 C           2.0964  -14.3441  -48.9374 C.2       2 UNK         0.5000 
     61 O           0.8970  -14.0771  -48.9637 O.2       2 UNK        -0.5000 
     62 CA          3.0327  -13.5767  -47.9652 C.3       2 UNK         0.1400 
     63 CB          3.9652  -12.5837  -48.6995 C.3       2 UNK        -0.1800 
     64 N           2.3152  -12.8768  -46.8874 N.am      2 UNK        -0.5000 
     65 C           1.5603  -11.7652  -46.9581 C.2       1 UNK         0.5000 
     66 O           1.3036  -11.1649  -48.0033 O.2       1 UNK        -0.5000 
     67 C          -1.4667  -20.5653  -46.8843 C.2       11 UNK         0.5000 
     68 O          -1.3667  -21.1135  -47.9784 O.2       11 UNK        -0.5000 
     69 N          -2.6028  -20.5212  -46.1733 N.am      12 UNK        -0.5000 
     70 CA         -3.8764  -21.1125  -46.5847 C.3       12 UNK         0.1400 
     71 CB         -4.9326  -20.8406  -45.5046 C.3       12 UNK        -0.1800 
     72 C          -3.7872  -22.6224  -46.8656 C.2       12 UNK         0.5000 
     73 O          -4.3944  -23.0916  -47.8263 O.2       12 UNK        -0.5000 
     74 N          -3.0163  -23.3426  -46.0393 N.am      13 UNK        -0.5000 
     75 CA         -2.7412  -24.7681  -46.2025 C.3       13 UNK         0.1400 
     76 CB         -2.2075  -25.3398  -44.8802 C.3       13 UNK        -0.1800 
     77 C          -1.7633  -25.0456  -47.3587 C.2       13 UNK         0.5000 
     78 O          -1.9823  -25.9846  -48.1229 O.2       13 UNK        -0.5000 
     79 N          -0.7101  -24.2260  -47.4766 N.am      14 UNK        -0.5000 
     80 CA          0.3150  -24.3322  -48.5168 C.3       14 UNK         0.1400 
     81 CB          1.4970  -23.4198  -48.1549 C.3       14 UNK        -0.1800 
     82 C          -0.2163  -24.0094  -49.9269 C.2       14 UNK         0.5000 
     83 O           0.1267  -24.7049  -50.8831 O.2       14 UNK        -0.5000 
     84 N          -1.0532  -22.9706  -50.0255 N.am      15 UNK        -0.5000 
     85 CA         -1.6680  -22.4889  -51.2615 C.3       15 UNK         0.1400 
     86 CB         -1.8825  -20.9708  -51.1402 C.3       15 UNK        -0.1800 
     87 C          -2.9896  -23.1992  -51.6115 C.2       15 UNK         0.5000 
     88 O          -3.6036  -22.8367  -52.6182 O.2       15 UNK        -0.5000 
     89 N          -3.4347  -24.1618  -50.7890 N.am      16 UNK        -0.5000 
     90 CA         -4.6675  -24.9334  -50.9745 C.3       16 UNK         0.1400 
     91 CB         -4.8238  -25.9522  -49.8358 C.3       16 UNK        -0.1800 
     92 C          -4.6928  -25.6440  -52.3389 C.2       16 UNK         0.5000 
     93 O          -3.7895  -26.4310  -52.6294 O.2       16 UNK        -0.5000 
     94 N          -5.6858  -25.2951  -53.1689 N.am      17 UNK        -0.5000 
     95 CA         -5.8962  -25.6857  -54.5720 C.3       17 UNK         0.1400 
     96 CB         -6.0696  -27.2098  -54.7147 C.3       17 UNK        -0.1800 
     97 C          -4.8341  -25.1521  -55.5592 C.2       17 UNK         0.5000 
     98 O          -5.1913  -24.7773  -56.6759 O.2       17 UNK        -0.5000 
     99 N          -3.5651  -25.1057  -55.1359 N.am      18 UNK        -0.5000 
    100 CA        -2.4081  -24.6436  -55.9028 C.3       18 UNK         0.1400 
    101 CB        -1.1316  -24.9300  -55.0967 C.3       18 UNK        -0.1800 
    102 C         -2.4757  -23.1551  -56.2902 C.2       18 UNK         0.5000 
    103 O         -2.0811  -22.8024  -57.4026 O.2       18 UNK        -0.5000 
    104 N         -2.9804  -22.3168  -55.3772 N.am      19 UNK        -0.5000 
    105 CA        -3.1527  -20.8762  -55.5680 C.3       19 UNK         0.1400 
    106 CB        -1.8742  -20.1330  -55.1359 C.3       19 UNK        -0.1800 
    107 C         -4.4320  -20.3677  -54.8751 C.2       19 UNK         0.5000 
    108 O         -4.5125  -19.1908  -54.5228 O.2       19 UNK        -0.5000 
    109 N         -5.4173  -21.2663  -54.7177 N.am      20 UNK        -0.5000 
    110 CA        -6.7569  -21.0381  -54.1632 C.3       20 UNK         0.1400 
    111 CB        -7.5820  -20.1315  -55.1007 C.3       20 UNK        -0.1800 
    112 C         -6.7614  -20.5487  -52.6980 C.2       20 UNK         0.5000 
    113 O         -7.6119  -19.7366  -52.3251 O.2       20 UNK        -0.5000 
    114 N         -5.8249  -21.0673  -51.8883 N.am      21 UNK        -0.5000 
    115 CA        -5.6401  -20.7758  -50.4622 C.3       21 UNK         0.1400 
    116 CB        -6.7827  -21.3994  -49.6285 C.3       21 UNK        -0.1800 
    117 C         -5.4252  -19.2674  -50.2134 C.2       21 UNK         0.5000 
    118 O         -4.3978  -18.7319  -50.6283 O.2       21 UNK        -0.5000 
    119 N         -6.3911  -18.6144  -49.5583 N.am      22 UNK        -0.5000 
    120 CA        -6.4014  -17.1656  -49.2980 C.3       22 UNK         0.1400 
    121 C         -6.8921  -16.3073  -50.5016 C.2       22 UNK         0.5000 
    122 N         -7.3599  -16.8894  -51.6004 N.am      22 UNK        -0.7600 
    123 O         -6.8453  -15.0819  -50.4399 O.2       22 UNK        -0.5000 
    124 C124       -7.1855  -16.8089  -48.0047 C.3       23 UNK        -0.0398 
    125 S125       -6.7308  -17.8406  -46.5661 S.3       23 UNK        -0.2404 
    126 C126       -5.6657  -16.7331  -45.5798 C.3       23 UNK        -0.0205 
    127 H127        4.3890  -12.6245  -43.0182 H         1 UNK         0.0600 
    128 H128        2.7621  -12.7029  -42.3354 H         1 UNK         0.0600 
    129 H129        3.7680  -11.2798  -42.0553 H         1 UNK         0.0600 
    130 H130        1.1915  -12.3791  -43.8947 H         1 UNK         0.3000 
    131 H131        1.2811  -10.1136  -45.6667 H         1 UNK         0.0600 
    132 H132       -0.8128  -10.6682  -44.6195 H         1 UNK         0.0800 
    133 H133       -0.9791  -10.7876  -46.3406 H         1 UNK         0.0800 
    134 H134       -1.9075  -12.6759  -47.5236 H         1 UNK         0.0800 
    135 H135       -3.1981  -12.3708  -46.3790 H         1 UNK         0.0800 
    136 H136       -4.5624  -14.2507  -45.5190 H         1 UNK         0.1150 
    137 H137       -3.9438  -18.1499  -47.1987 H         1 UNK         0.1150 
    138 H138       -1.2385  -14.9670  -48.1156 H         1 UNK         0.1150 
    139 H139       -2.1677  -18.5557  -48.7389 H         1 UNK         0.0800 
    140 H140       -1.6668  -17.1686  -49.6573 H         1 UNK         0.0800 
    141 H141       -1.0947  -17.9694  -45.9150 H         1 UNK         0.0800 
    142 H142        0.6344  -18.0056  -45.7866 H         1 UNK         0.0800 
    143 H143        0.6565  -20.3313  -46.7759 H         1 UNK         0.0600 
    144 H144       -0.0414  -19.6294  -44.1598 H         1 UNK         0.3000 
    145 H145       -0.1669  -22.8784  -42.6964 H         1 UNK         0.0600 
    146 H146        1.5783  -21.8456  -41.2955 H         1 UNK         0.0600 
    147 H147        2.2511  -22.2299  -42.8721 H         1 UNK         0.0600 
    148 H148        1.8352  -20.5658  -42.4770 H         1 UNK         0.0600 
    149 H149       -0.4565  -20.1236  -41.7981 H         1 UNK         0.3000 
    150 H150       -4.0090  -20.0715  -41.9760 H         1 UNK         0.0600 
    151 H151       -3.4998  -21.2389  -39.8247 H         1 UNK         0.0600 
    152 H152       -3.7525  -19.5190  -39.5745 H         1 UNK         0.0600 
    153 H153       -2.1177  -20.1815  -39.5636 H         1 UNK         0.0600 
    154 H154       -2.1027  -18.1685  -41.0251 H         1 UNK         0.3000 
    155 H155       -1.5793  -16.5013  -44.1487 H         1 UNK         0.0600 
    156 H156       -3.1319  -15.6925  -41.6374 H         1 UNK         0.0600 
    157 H157       -2.4928  -14.6120  -42.8773 H         1 UNK         0.0600 
    158 H158       -3.7944  -15.7219  -43.2659 H         1 UNK         0.0600 
    159 H159       -0.6307  -15.7435  -41.6516 H         1 UNK         0.3000 
    160 H160        1.5822  -15.7688  -41.3152 H         1 UNK         0.0600 
    161 H161        1.8523  -18.7303  -40.5180 H         1 UNK         0.0600 
    162 H162        0.8498  -17.5373  -39.6983 H         1 UNK         0.0600 
    163 H163        2.5991  -17.3746  -39.6755 H         1 UNK         0.0600 
    164 H164        2.8916  -17.8362  -42.9694 H         1 UNK         0.3000 
    165 H165        5.2609  -15.7064  -44.0295 H         1 UNK         0.0600 
    166 H166        7.2702  -16.9130  -43.1840 H         1 UNK         0.0600 
    167 H167        6.6499  -15.8065  -41.9717 H         1 UNK         0.0600 
    168 H168        6.3422  -17.5318  -41.8171 H         1 UNK         0.0600 
    169 H169        5.3083  -18.6127  -43.7450 H         1 UNK         0.3000 
    170 H170        5.1918  -19.6133  -46.0469 H         1 UNK         0.0600 
    171 H171        3.8984  -20.4752  -44.1741 H         1 UNK         0.0600 
    172 H172        2.4283  -19.7062  -44.7423 H         1 UNK         0.0600 
    173 H173        3.0870  -21.1009  -45.5990 H         1 UNK         0.0600 
    174 H174        3.1744  -18.1842  -47.4378 H         1 UNK         0.3000 
    175 H175        3.9686  -19.8226  -50.3978 H         1 UNK         0.0600 
    176 H176        2.0340  -21.2236  -50.2025 H         1 UNK         0.0600 
    177 H177        1.1449  -20.0483  -49.2594 H         1 UNK         0.0600 
    178 H178        1.4891  -19.7399  -50.9619 H         1 UNK         0.0600 
    179 H179        2.2001  -17.6271  -49.6689 H         1 UNK         0.3000 
    180 H180        4.6232  -15.3052  -49.1647 H         1 UNK         0.0600 
    181 H181        3.9075  -15.5879  -52.1332 H         1 UNK         0.0600 
    182 H182        5.5181  -15.3585  -51.4638 H         1 UNK         0.0600 
    183 H183        4.3354  -14.0655  -51.3636 H         1 UNK         0.0600 
    184 H184        1.9257  -15.7462  -50.3660 H         1 UNK         0.3000 
    185 H185        3.6457  -14.3133  -47.4449 H         1 UNK         0.0600 
    186 H186        4.7523  -13.0873  -49.2557 H         1 UNK         0.0600 
    187 H187        3.4161  -11.9640  -49.4092 H         1 UNK         0.0600 
    188 H188        4.4654  -11.9178  -47.9959 H         1 UNK         0.0600 
    189 H189        2.4201  -13.2883  -45.9716 H         1 UNK         0.3000 
    190 H190       -2.6113  -20.0027  -45.2978 H         1 UNK         0.3000 
    191 H191       -4.1854  -20.6157  -47.5062 H         1 UNK         0.0600 
    192 H192       -4.7007  -21.3589  -44.5738 H         1 UNK         0.0600 
    193 H193       -5.9194  -21.1708  -45.8308 H         1 UNK         0.0600 
    194 H194       -5.0016  -19.7782  -45.2779 H         1 UNK         0.0600 
    195 H195       -2.5487  -22.8700  -45.2777 H         1 UNK         0.3000 
    196 H196       -3.6812  -25.2747  -46.4322 H         1 UNK         0.0600 
    197 H197       -2.0278  -26.4123  -44.9641 H         1 UNK         0.0600 
    198 H198       -2.9222  -25.1915  -44.0703 H         1 UNK         0.0600 
    199 H199       -1.2680  -24.8721  -44.5850 H         1 UNK         0.0600 
    200 H200       -0.5741  -23.5011  -46.7777 H         1 UNK         0.3000 
    201 H201        0.6760  -25.3627  -48.5282 H         1 UNK         0.0600 
    202 H202        1.9400  -23.7075  -47.2013 H         1 UNK         0.0600 
    203 H203        1.1898  -22.3772  -48.0746 H         1 UNK         0.0600 
    204 H204        2.2835  -23.4752  -48.9085 H         1 UNK         0.0600 
    205 H205       -1.2458  -22.4189  -49.1895 H         1 UNK         0.3000 
    206 H206       -0.9864  -22.6638  -52.0963 H         1 UNK         0.0600 
    207 H207       -0.9327  -20.4433  -51.0610 H         1 UNK         0.0600 
    208 H208       -2.4117  -20.5624  -52.0004 H         1 UNK         0.0600 
    209 H209       -2.4722  -20.7177  -50.2609 H         1 UNK         0.0600 
    210 H210       -2.8720  -24.4018  -49.9853 H         1 UNK         0.3000 
    211 H211       -5.5019  -24.2321  -50.9198 H         1 UNK         0.0600 
    212 H212       -4.0041  -26.6715  -49.8256 H         1 UNK         0.0600 
    213 H213       -5.7519  -26.5152  -49.9413 H         1 UNK         0.0600 
    214 H214       -4.8520  -25.4635  -48.8630 H         1 UNK         0.0600 
    215 H215       -6.3555  -24.6224  -52.8241 H         1 UNK         0.3000 
    216 H216       -6.8419  -25.2250  -54.8622 H         1 UNK         0.0600 
    217 H217       -6.3471  -27.4740  -55.7358 H         1 UNK         0.0600 
    218 H218       -6.8567  -27.5804  -54.0581 H         1 UNK         0.0600 
    219 H219       -5.1529  -27.7508  -54.4790 H         1 UNK         0.0600 
    220 H220       -3.3808  -25.4742  -54.2072 H         1 UNK         0.3000 
    221 H221       -2.3688  -25.2248  -56.8263 H         1 UNK         0.0600 
    222 H222       -1.1344  -24.4080  -54.1388 H         1 UNK         0.0600 
    223 H223       -1.0239  -25.9959  -54.8950 H         1 UNK         0.0600 
    224 H224       -0.2430  -24.6113  -55.6431 H         1 UNK         0.0600 
    225 H225       -3.2507  -22.6766  -54.4642 H         1 UNK         0.3000 
    226 H226       -3.3109  -20.6737  -56.6292 H         1 UNK         0.0600 
    227 H227       -1.0219  -20.4376  -55.7433 H         1 UNK         0.0600 
    228 H228       -1.9807  -19.0540  -55.2525 H         1 UNK         0.0600 
    229 H229       -1.6243  -20.3317  -54.0956 H         1 UNK         0.0600 
    230 H230       -5.2402  -22.2004  -55.0572 H         1 UNK         0.3000 
    231 H231       -7.2440  -22.0141  -54.1476 H         1 UNK         0.0600 
    232 H232       -8.6216  -20.0738  -54.7763 H         1 UNK         0.0600 
    233 H233       -7.5839  -20.5160  -56.1206 H         1 UNK         0.0600 
    234 H234       -7.1911  -19.1138  -55.1262 H         1 UNK         0.0600 
    235 H235       -5.1226  -21.6730  -52.3026 H         1 UNK         0.3000 
    236 H236       -4.7196  -21.2705  -50.1548 H         1 UNK         0.0600 
    237 H237       -7.7625  -21.0074  -49.9027 H         1 UNK         0.0600 
    238 H238       -6.8131  -22.4805  -49.7620 H         1 UNK         0.0600 
    239 H239       -6.6354  -21.2184  -48.5629 H         1 UNK         0.0600 
    240 H240       -7.2128  -19.1226  -49.2677 H         1 UNK         0.3000 
    241 H241       -5.3692  -16.8531  -49.1410 H         1 UNK         0.0600 
    242 H242       -7.6694  -16.3145  -52.3674 H         1 UNK         0.3800 
    243 H243       -7.4031  -17.9008  -51.6875 H         1 UNK         0.3800 
    244 H244       -7.0407  -15.7578  -47.7491 H         1 UNK         0.0800 
    245 H245       -8.2569  -16.9342  -48.1699 H         1 UNK         0.0800 
    246 H246       -6.2665  -15.8853  -45.2472 H         1 UNK         0.0800 
    247 H247       -5.3569  -17.2645  -44.6789 H         1 UNK         0.0800 
@<TRIPOS>BOND
     1    1    2 1    
     2    1  127 1    
     3    1  128 1    
     4    1  129 1    
     5    2    3 2    
     6    2    4 am   BACKBONE|DICT|INTERRES
     7    4    5 1    
     8    4  130 1    
     9    5    6 1    
    10    5   65 1    
    11    5  131 1    
    12    6    7 1    
    13    6  132 1    
    14    6  133 1    
    15    7    8 1    
    16    8    9 1    
    17    8  134 1    
    18    8  135 1    
    19    9   10 ar   
    20    9   14 ar   
    21   10   11 ar   
    22   10  136 1    
    23   11   12 ar   
    24   11  126 1    
    25   12   13 ar   
    26   12  137 1    
    27   13   14 ar   
    28   13   15 1    
    29   14  138 1    
    30   15   16 1    
    31   15  139 1    
    32   15  140 1    
    33   16   17 1    
    34   17   18 1    
    35   17  141 1    
    36   17  142 1    
    37   18   19 1    
    38   18   67 1    
    39   18  143 1    
    40   19   20 am   BACKBONE|DICT|INTERRES
    41   19  144 1    
    42   20   21 2    
    43   20   22 1    
    44   22   23 1    
    45   22   24 1    
    46   22  145 1    
    47   23  146 1    
    48   23  147 1    
    49   23  148 1    
    50   24   25 am   BACKBONE|DICT|INTERRES
    51   24  149 1    
    52   25   26 2    
    53   25   27 1    
    54   27   28 1    
    55   27   29 1    
    56   27  150 1    
    57   28  151 1    
    58   28  152 1    
    59   28  153 1    
    60   29   30 am   BACKBONE|DICT|INTERRES
    61   29  154 1    
    62   30   31 2    
    63   30   32 1    
    64   32   33 1    
    65   32   34 1    
    66   32  155 1    
    67   33  156 1    
    68   33  157 1    
    69   33  158 1    
    70   34   35 am   BACKBONE|DICT|INTERRES
    71   34  159 1    
    72   35   36 2    
    73   35   37 1    
    74   37   38 1    
    75   37   39 1    
    76   37  160 1    
    77   38  161 1    
    78   38  162 1    
    79   38  163 1    
    80   39   40 am   BACKBONE|DICT|INTERRES
    81   39  164 1    
    82   40   41 2    
    83   40   42 1    
    84   42   43 1    
    85   42   44 1    
    86   42  165 1    
    87   43  166 1    
    88   43  167 1    
    89   43  168 1    
    90   44   45 am   BACKBONE|DICT|INTERRES
    91   44  169 1    
    92   45   46 2    
    93   45   47 1    
    94   47   48 1    
    95   47   49 1    
    96   47  170 1    
    97   48  171 1    
    98   48  172 1    
    99   48  173 1    
   100   49   50 am   BACKBONE|DICT|INTERRES
   101   49  174 1    
   102   50   51 2    
   103   50   52 1    
   104   52   53 1    
   105   52   54 1    
   106   52  175 1    
   107   53  176 1    
   108   53  177 1    
   109   53  178 1    
   110   54   55 am   BACKBONE|DICT|INTERRES
   111   54  179 1    
   112   55   56 2    
   113   55   57 1    
   114   57   58 1    
   115   57   59 1    
   116   57  180 1    
   117   58  181 1    
   118   58  182 1    
   119   58  183 1    
   120   59   60 am   BACKBONE|DICT|INTERRES
   121   59  184 1    
   122   60   61 2    
   123   60   62 1    
   124   62   63 1    
   125   62   64 1    
   126   62  185 1    
   127   63  186 1    
   128   63  187 1    
   129   63  188 1    
   130   64   65 am   BACKBONE|DICT|INTERRES
   131   64  189 1    
   132   65   66 2    
   133   67   68 2    
   134   67   69 am   BACKBONE|DICT|INTERRES
   135   69   70 1    
   136   69  190 1    
   137   70   71 1    
   138   70   72 1    
   139   70  191 1    
   140   71  192 1    
   141   71  193 1    
   142   71  194 1    
   143   72   73 2    
   144   72   74 am   BACKBONE|DICT|INTERRES
   145   74   75 1    
   146   74  195 1    
   147   75   76 1    
   148   75   77 1    
   149   75  196 1    
   150   76  197 1    
   151   76  198 1    
   152   76  199 1    
   153   77   78 2    
   154   77   79 am   BACKBONE|DICT|INTERRES
   155   79   80 1    
   156   79  200 1    
   157   80   81 1    
   158   80   82 1    
   159   80  201 1    
   160   81  202 1    
   161   81  203 1    
   162   81  204 1    
   163   82   83 2    
   164   82   84 am   BACKBONE|DICT|INTERRES
   165   84   85 1    
   166   84  205 1    
   167   85   86 1    
   168   85   87 1    
   169   85  206 1    
   170   86  207 1    
   171   86  208 1    
   172   86  209 1    
   173   87   88 2    
   174   87   89 am   BACKBONE|DICT|INTERRES
   175   89   90 1    
   176   89  210 1    
   177   90   91 1    
   178   90   92 1    
   179   90  211 1    
   180   91  212 1    
   181   91  213 1    
   182   91  214 1    
   183   92   93 2    
   184   92   94 am   BACKBONE|DICT|INTERRES
   185   94   95 1    
   186   94  215 1    
   187   95   96 1    
   188   95   97 1    
   189   95  216 1    
   190   96  217 1    
   191   96  218 1    
   192   96  219 1    
   193   97   98 2    
   194   97   99 am   BACKBONE|DICT|INTERRES
   195   99  100 1    
   196   99  220 1    
   197  100  101 1    
   198  100  102 1    
   199  100  221 1    
   200  101  222 1    
   201  101  223 1    
   202  101  224 1    
   203  102  103 2    
   204  102  104 am   BACKBONE|DICT|INTERRES
   205  104  105 1    
   206  104  225 1    
   207  105  106 1    
   208  105  107 1    
   209  105  226 1    
   210  106  227 1    
   211  106  228 1    
   212  106  229 1    
   213  107  108 2    
   214  107  109 am   BACKBONE|DICT|INTERRES
   215  109  110 1    
   216  109  230 1    
   217  110  111 1    
   218  110  112 1    
   219  110  231 1    
   220  111  232 1    
   221  111  233 1    
   222  111  234 1    
   223  112  113 2    
   224  112  114 am   BACKBONE|DICT|INTERRES
   225  114  115 1    
   226  114  235 1    
   227  115  116 1    
   228  115  117 1    
   229  115  236 1    
   230  116  237 1    
   231  116  238 1    
   232  116  239 1    
   233  117  118 2    
   234  117  119 am   BACKBONE|DICT|INTERRES
   235  119  120 1    
   236  119  240 1    
   237  120  121 1    
   238  120  124 1    
   239  120  241 1    
   240  121  122 am   BACKBONE|DICT|INTERRES
   241  121  123 2    
   242  122  242 1    
   243  122  243 1    
   244  124  125 1    
   245  124  244 1    
   246  124  245 1    
   247  125  126 1    
   248  126  246 1    
   249  126  247 1    
@<TRIPOS>SUBSTRUCTURE
     1 UNK         1 GROUP             0       ****    0 ROOT    
