@<TRIPOS>MOLECULE
3R540
247   249    1
SMALL
USER_CHARGES


@<TRIPOS>ATOM
      1 CA          1.5137   -8.4277  -48.5655 C.3       0 UNK        -0.1800 
      2 C           1.6674   -9.8642  -48.0881 C.2       0 UNK         0.5000 
      3 O           2.7893  -10.3256  -47.8796 O.2       0 UNK        -0.5000 
      4 N           0.5451  -10.5697  -47.8917 N.am      1 UNK        -0.5000 
      5 CA          0.4862  -11.9863  -47.4955 C.3       1 UNK         0.1400 
      6 C6         -0.9332  -12.5832  -47.6480 C.3       23 UNK        -0.0398 
      7 S7         -1.5735  -12.4288  -49.3487 S.3       23 UNK        -0.2404 
      8 C8         -3.0228  -13.5326  -49.2945 C.3       23 UNK        -0.0205 
      9 C9         -2.6445  -14.9981  -49.1217 C.ar      23 UNK        -0.0193 
     10 C10        -1.8400  -15.6352  -50.0728 C.ar      23 UNK        -0.1150 
     11 C11        -1.4977  -16.9814  -49.9239 C.ar      23 UNK        -0.0193 
     12 C12        -1.9722  -17.6922  -48.8201 C.ar      23 UNK        -0.1150 
     13 C13        -2.7916  -17.0749  -47.8733 C.ar      23 UNK        -0.0193 
     14 C14        -3.1199  -15.7246  -48.0240 C.ar      23 UNK        -0.1150 
     15 C15        -3.3345  -17.8894  -46.7116 C.3       23 UNK        -0.0205 
     16 S16        -4.6613  -18.9910  -47.2896 S.3       23 UNK        -0.2404 
     17 C17        -4.7488  -20.2440  -45.9726 C.3       23 UNK        -0.0398 
     18 CA         -3.9626  -21.5252  -46.3471 C.3       11 UNK         0.1400 
     19 N          -2.5181  -21.2787  -46.3602 N.am      11 UNK        -0.5000 
     20 C          -1.5695  -22.1104  -46.8091 C.2       10 UNK         0.5000 
     21 O          -1.8055  -23.1812  -47.3681 O.2       10 UNK        -0.5000 
     22 CA         -0.1127  -21.7032  -46.5108 C.3       10 UNK         0.1400 
     23 CB          0.5170  -20.9926  -47.7164 C.3       10 UNK        -0.1800 
     24 N          -0.0018  -20.8403  -45.3295 N.am      10 UNK        -0.5000 
     25 C          -0.2957  -21.2185  -44.0809 C.2       9 UNK         0.5000 
     26 O          -0.6649  -22.3572  -43.7863 O.2       9 UNK        -0.5000 
     27 CA         -0.2835  -20.1248  -43.0060 C.3       9 UNK         0.1400 
     28 CB         -1.6925  -19.5240  -42.8880 C.3       9 UNK        -0.1800 
     29 N           0.0663  -20.7223  -41.7188 N.am      9 UNK        -0.5000 
     30 C           1.2469  -20.7425  -41.0819 C.2       8 UNK         0.5000 
     31 O           1.4080  -21.4559  -40.0928 O.2       8 UNK        -0.5000 
     32 CA          2.4308  -19.8569  -41.5381 C.3       8 UNK         0.1400 
     33 CB          3.1211  -20.4128  -42.7963 C.3       8 UNK        -0.1800 
     34 N           2.1175  -18.4380  -41.7162 N.am      8 UNK        -0.5000 
     35 C           1.6440  -17.6137  -40.7709 C.2       7 UNK         0.5000 
     36 O           1.4070  -17.9585  -39.6129 O.2       7 UNK        -0.5000 
     37 CA          1.4064  -16.1501  -41.1834 C.3       7 UNK         0.1400 
     38 CB          2.7106  -15.3426  -41.1019 C.3       7 UNK        -0.1800 
     39 N           0.8546  -16.0394  -42.5342 N.am      7 UNK        -0.5000 
     40 C          -0.4549  -16.0466  -42.8153 C.2       6 UNK         0.5000 
     41 O          -1.3300  -16.1520  -41.9559 O.2       6 UNK        -0.5000 
     42 CA         -0.8739  -15.8920  -44.2899 C.3       6 UNK         0.1400 
     43 CB         -1.6513  -14.5818  -44.4938 C.3       6 UNK        -0.1800 
     44 N           0.2663  -15.9182  -45.2081 N.am      6 UNK        -0.5000 
     45 C           0.6962  -17.0059  -45.8548 C.2       5 UNK         0.5000 
     46 O           0.1630  -18.1114  -45.7599 O.2       5 UNK        -0.5000 
     47 CA          1.9636  -16.8490  -46.7169 C.3       5 UNK         0.1400 
     48 CB          1.6535  -16.1091  -48.0253 C.3       5 UNK        -0.1800 
     49 N           3.0967  -16.1998  -46.0481 N.am      5 UNK        -0.5000 
     50 C           3.6410  -16.5717  -44.8833 C.2       4 UNK         0.5000 
     51 O           3.1334  -17.4025  -44.1315 O.2       4 UNK        -0.5000 
     52 CA          4.9776  -15.9268  -44.4695 C.3       4 UNK         0.1400 
     53 CB          6.1650  -16.6573  -45.1242 C.3       4 UNK        -0.1800 
     54 N           5.0647  -14.4746  -44.6603 N.am      4 UNK        -0.5000 
     55 C           5.1252  -13.7658  -45.7943 C.2       3 UNK         0.5000 
     56 O           5.0287  -14.2577  -46.9202 O.2       3 UNK        -0.5000 
     57 CA          5.2825  -12.2408  -45.6172 C.3       3 UNK         0.1400 
     58 CB          5.8288  -11.5571  -46.8824 C.3       3 UNK        -0.1800 
     59 N           4.0036  -11.6315  -45.2620 N.am      3 UNK        -0.5000 
     60 C           3.3919  -11.7481  -44.0731 C.2       2 UNK         0.5000 
     61 O           3.9248  -12.2531  -43.0836 O.2       2 UNK        -0.5000 
     62 CA          1.9297  -11.2602  -43.9773 C.3       2 UNK         0.1400 
     63 CB          1.8662   -9.8721  -43.3234 C.3       2 UNK        -0.1800 
     64 N           1.2426  -11.2090  -45.2709 N.am      2 UNK        -0.5000 
     65 C           1.0393  -12.2601  -46.0788 C.2       1 UNK         0.5000 
     66 O           1.3088  -13.4151  -45.7526 O.2       1 UNK        -0.5000 
     67 C          -4.3654  -22.6869  -45.4108 C.2       11 UNK         0.5000 
     68 O          -5.4127  -23.2922  -45.6366 O.2       11 UNK        -0.5000 
     69 N          -3.5450  -22.9821  -44.3933 N.am      12 UNK        -0.5000 
     70 CA         -3.7593  -24.0796  -43.4519 C.3       12 UNK         0.1400 
     71 CB         -3.4884  -23.5795  -42.0233 C.3       12 UNK        -0.1800 
     72 C          -2.8554  -25.2759  -43.7879 C.2       12 UNK         0.5000 
     73 O          -3.3278  -26.4128  -43.7849 O.2       12 UNK        -0.5000 
     74 N          -1.5726  -25.0004  -44.0606 N.am      13 UNK        -0.5000 
     75 CA         -0.5339  -26.0066  -44.2729 C.3       13 UNK         0.1400 
     76 CB          0.8443  -25.3349  -44.1668 C.3       13 UNK        -0.1800 
     77 C          -0.6637  -26.7618  -45.6066 C.2       13 UNK         0.5000 
     78 O          -0.4283  -27.9708  -45.6340 O.2       13 UNK        -0.5000 
     79 N          -1.0139  -26.0427  -46.6809 N.am      14 UNK        -0.5000 
     80 CA         -1.0767  -26.5774  -48.0445 C.3       14 UNK         0.1400 
     81 CB         -0.0037  -25.8703  -48.8903 C.3       14 UNK        -0.1800 
     82 C          -2.4602  -26.4081  -48.6949 C.2       14 UNK         0.5000 
     83 O          -2.7140  -27.0428  -49.7191 O.2       14 UNK        -0.5000 
     84 N          -3.3083  -25.5396  -48.1212 N.am      15 UNK        -0.5000 
     85 CA         -4.5667  -25.0334  -48.6841 C.3       15 UNK         0.1400 
     86 CB         -5.6190  -26.1544  -48.8070 C.3       15 UNK        -0.1800 
     87 C          -4.3330  -24.2646  -50.0022 C.2       15 UNK         0.5000 
     88 O          -5.1279  -24.3729  -50.9361 O.2       15 UNK        -0.5000 
     89 N          -3.2218  -23.5148  -50.0561 N.am      16 UNK        -0.5000 
     90 CA         -2.6657  -22.9057  -51.2664 C.3       16 UNK         0.1400 
     91 CB         -1.3392  -22.2202  -50.9135 C.3       16 UNK        -0.1800 
     92 C          -3.6110  -21.9316  -51.9921 C.2       16 UNK         0.5000 
     93 O          -3.6530  -21.9329  -53.2232 O.2       16 UNK        -0.5000 
     94 N          -4.3735  -21.1398  -51.2269 N.am      17 UNK        -0.5000 
     95 CA         -5.3500  -20.1933  -51.7675 C.3       17 UNK         0.1400 
     96 CB         -5.7258  -19.1674  -50.6915 C.3       17 UNK        -0.1800 
     97 C          -6.6042  -20.8894  -52.3268 C.2       17 UNK         0.5000 
     98 O          -7.1498  -20.4301  -53.3297 O.2       17 UNK        -0.5000 
     99 N          -7.0170  -22.0017  -51.7012 N.am      18 UNK        -0.5000 
    100 CA        -8.1310  -22.8409  -52.1531 C.3       18 UNK         0.1400 
    101 CB        -8.5881  -23.7544  -51.0061 C.3       18 UNK        -0.1800 
    102 C         -7.7579  -23.6651  -53.3990 C.2       18 UNK         0.5000 
    103 O         -8.5922  -23.8454  -54.2862 O.2       18 UNK        -0.5000 
    104 N         -6.4931  -24.1035  -53.4628 N.am      19 UNK        -0.5000 
    105 CA        -5.8717  -24.7498  -54.6208 C.3       19 UNK         0.1400 
    106 CB        -4.5671  -25.4209  -54.1620 C.3       19 UNK        -0.1800 
    107 C         -5.5951  -23.7801  -55.7910 C.2       19 UNK         0.5000 
    108 O         -5.2709  -24.2398  -56.8864 O.2       19 UNK        -0.5000 
    109 N         -5.7146  -22.4683  -55.5345 N.am      20 UNK        -0.5000 
    110 CA        -5.4802  -21.3398  -56.4403 C.3       20 UNK         0.1400 
    111 CB        -6.4450  -21.3774  -57.6435 C.3       20 UNK        -0.1800 
    112 C         -4.0030  -21.1789  -56.8561 C.2       20 UNK         0.5000 
    113 O         -3.7179  -20.5640  -57.8852 O.2       20 UNK        -0.5000 
    114 N         -3.0807  -21.6893  -56.0283 N.am      21 UNK        -0.5000 
    115 CA        -1.6335  -21.5473  -56.1994 C.3       21 UNK         0.1400 
    116 CB        -0.9197  -22.5620  -55.2928 C.3       21 UNK        -0.1800 
    117 C         -1.1516  -20.1151  -55.8992 C.2       21 UNK         0.5000 
    118 O         -0.1475  -19.6771  -56.4616 O.2       21 UNK        -0.5000 
    119 N         -1.8935  -19.4117  -55.0355 N.am      22 UNK        -0.5000 
    120 CA        -1.6710  -18.0073  -54.6557 C.3       22 UNK         0.1400 
    121 C         -2.1738  -16.9714  -55.7058 C.2       22 UNK         0.5000 
    122 N         -2.8026  -17.3756  -56.8041 N.am      22 UNK        -0.7600 
    123 O         -1.9811  -15.7723  -55.5257 O.2       22 UNK        -0.5000 
    124 C124       -2.2505  -17.7056  -53.2491 C.3       23 UNK        -0.0398 
    125 S125       -1.5591  -18.8190  -51.9797 S.3       23 UNK        -0.2404 
    126 C126       -0.6056  -17.6771  -50.9381 C.3       23 UNK        -0.0205 
    127 H127        1.9574   -7.7429  -47.8429 H         1 UNK         0.0600 
    128 H128        0.4666   -8.1538  -48.6967 H         1 UNK         0.0600 
    129 H129        2.0225   -8.2944  -49.5202 H         1 UNK         0.0600 
    130 H130       -0.3479  -10.1388  -48.0863 H         1 UNK         0.3000 
    131 H131        1.1425  -12.5299  -48.1788 H         1 UNK         0.0600 
    132 H132       -1.6347  -12.1057  -46.9617 H         1 UNK         0.0800 
    133 H133       -0.9162  -13.6439  -47.3932 H         1 UNK         0.0800 
    134 H134       -3.6904  -13.2038  -48.4966 H         1 UNK         0.0800 
    135 H135       -3.5811  -13.4240  -50.2252 H         1 UNK         0.0800 
    136 H136       -1.4765  -15.0780  -50.9246 H         1 UNK         0.1150 
    137 H137       -1.7256  -18.7381  -48.7114 H         1 UNK         0.1150 
    138 H138       -3.7573  -15.2449  -47.2949 H         1 UNK         0.1150 
    139 H139       -3.7164  -17.2405  -45.9222 H         1 UNK         0.0800 
    140 H140       -2.5213  -18.4690  -46.2761 H         1 UNK         0.0800 
    141 H141       -5.8077  -20.4689  -45.8298 H         1 UNK         0.0800 
    142 H142       -4.3993  -19.8231  -45.0282 H         1 UNK         0.0800 
    143 H143       -4.2529  -21.8263  -47.3561 H         1 UNK         0.0600 
    144 H144       -2.2117  -20.4185  -45.9343 H         1 UNK         0.3000 
    145 H145        0.4514  -22.6178  -46.3198 H         1 UNK         0.0600 
    146 H146        0.4863  -21.6247  -48.6040 H         1 UNK         0.0600 
    147 H147        1.5634  -20.7529  -47.5270 H         1 UNK         0.0600 
    148 H148        0.0018  -20.0618  -47.9521 H         1 UNK         0.0600 
    149 H149        0.2124  -19.8585  -45.5074 H         1 UNK         0.3000 
    150 H150        0.4048  -19.3381  -43.3050 H         1 UNK         0.0600 
    151 H151       -2.4464  -20.2876  -42.6898 H         1 UNK         0.0600 
    152 H152       -1.9788  -19.0093  -43.8052 H         1 UNK         0.0600 
    153 H153       -1.7422  -18.7982  -42.0771 H         1 UNK         0.0600 
    154 H154       -0.6413  -21.3482  -41.3652 H         1 UNK         0.3000 
    155 H155        3.1688  -19.9031  -40.7345 H         1 UNK         0.0600 
    156 H156        2.5355  -20.2490  -43.6998 H         1 UNK         0.0600 
    157 H157        3.2984  -21.4854  -42.7075 H         1 UNK         0.0600 
    158 H158        4.0901  -19.9369  -42.9479 H         1 UNK         0.0600 
    159 H159        2.3412  -18.0490  -42.6296 H         1 UNK         0.3000 
    160 H160        0.7056  -15.7123  -40.4690 H         1 UNK         0.0600 
    161 H161        3.4790  -15.7502  -41.7564 H         1 UNK         0.0600 
    162 H162        3.1095  -15.3502  -40.0868 H         1 UNK         0.0600 
    163 H163        2.5500  -14.3008  -41.3807 H         1 UNK         0.0600 
    164 H164        1.5113  -16.0063  -43.3012 H         1 UNK         0.3000 
    165 H165       -1.5521  -16.7154  -44.5182 H         1 UNK         0.0600 
    166 H166       -2.0187  -14.4992  -45.5153 H         1 UNK         0.0600 
    167 H167       -2.5218  -14.5353  -43.8382 H         1 UNK         0.0600 
    168 H168       -1.0347  -13.7083  -44.2807 H         1 UNK         0.0600 
    169 H169        0.7553  -15.0350  -45.3565 H         1 UNK         0.3000 
    170 H170        2.2925  -17.8567  -46.9782 H         1 UNK         0.0600 
    171 H171        0.8492  -16.6043  -48.5652 H         1 UNK         0.0600 
    172 H172        2.5216  -16.0891  -48.6843 H         1 UNK         0.0600 
    173 H173        1.3436  -15.0798  -47.8485 H         1 UNK         0.0600 
    174 H174        3.5909  -15.4861  -46.5758 H         1 UNK         0.3000 
    175 H175        5.0740  -16.0798  -43.3944 H         1 UNK         0.0600 
    176 H176        6.1504  -17.7195  -44.8764 H         1 UNK         0.0600 
    177 H177        6.1461  -16.5790  -46.2115 H         1 UNK         0.0600 
    178 H178        7.1164  -16.2560  -44.7749 H         1 UNK         0.0600 
    179 H179        5.0332  -13.9333  -43.8031 H         1 UNK         0.3000 
    180 H180        5.9958  -12.0634  -44.8095 H         1 UNK         0.0600 
    181 H181        5.9662  -10.4874  -46.7244 H         1 UNK         0.0600 
    182 H182        5.1591  -11.6849  -47.7338 H         1 UNK         0.0600 
    183 H183        6.7975  -11.9728  -47.1619 H         1 UNK         0.0600 
    184 H184        3.4884  -11.2150  -46.0293 H         1 UNK         0.3000 
    185 H185        1.3921  -11.9672  -43.3420 H         1 UNK         0.0600 
    186 H186        2.3456   -9.8794  -42.3436 H         1 UNK         0.0600 
    187 H187        2.3702   -9.1187  -43.9303 H         1 UNK         0.0600 
    188 H188        0.8347   -9.5515  -43.1763 H         1 UNK         0.0600 
    189 H189        0.9978  -10.2931  -45.6175 H         1 UNK         0.3000 
    190 H190       -2.6761  -22.4739  -44.2929 H         1 UNK         0.3000 
    191 H191       -4.7954  -24.4229  -43.4909 H         1 UNK         0.0600 
    192 H192       -4.1569  -22.7591  -41.7619 H         1 UNK         0.0600 
    193 H193       -3.6501  -24.3751  -41.2949 H         1 UNK         0.0600 
    194 H194       -2.4640  -23.2265  -41.9009 H         1 UNK         0.0600 
    195 H195       -1.2523  -24.0365  -43.9958 H         1 UNK         0.3000 
    196 H196       -0.6102  -26.7420  -43.4690 H         1 UNK         0.0600 
    197 H197        1.6459  -26.0654  -44.2826 H         1 UNK         0.0600 
    198 H198        0.9765  -24.8580  -43.1953 H         1 UNK         0.0600 
    199 H199        0.9815  -24.5719  -44.9333 H         1 UNK         0.0600 
    200 H200       -1.1806  -25.0494  -46.5788 H         1 UNK         0.3000 
    201 H201       -0.8616  -27.6477  -48.0537 H         1 UNK         0.0600 
    202 H202       -0.0113  -26.2309  -49.9197 H         1 UNK         0.0600 
    203 H203        0.9939  -26.0525  -48.4906 H         1 UNK         0.0600 
    204 H204       -0.1599  -24.7917  -48.9186 H         1 UNK         0.0600 
    205 H205       -2.9717  -25.0401  -47.3104 H         1 UNK         0.3000 
    206 H206       -4.9524  -24.3017  -47.9770 H         1 UNK         0.0600 
    207 H207       -5.7302  -26.6943  -47.8667 H         1 UNK         0.0600 
    208 H208       -6.5963  -25.7438  -49.0606 H         1 UNK         0.0600 
    209 H209       -5.3591  -26.8764  -49.5814 H         1 UNK         0.0600 
    210 H210       -2.6421  -23.4712  -49.2250 H         1 UNK         0.3000 
    211 H211       -2.4476  -23.7182  -51.9622 H         1 UNK         0.0600 
    212 H212       -1.4836  -21.4169  -50.1899 H         1 UNK         0.0600 
    213 H213       -0.8740  -21.7868  -51.7994 H         1 UNK         0.0600 
    214 H214       -0.6279  -22.9298  -50.4918 H         1 UNK         0.0600 
    215 H215       -4.2754  -21.1853  -50.2241 H         1 UNK         0.3000 
    216 H216       -4.8804  -19.6527  -52.5918 H         1 UNK         0.0600 
    217 H217       -6.1946  -19.6424  -49.8292 H         1 UNK         0.0600 
    218 H218       -6.4282  -18.4303  -51.0825 H         1 UNK         0.0600 
    219 H219       -4.8464  -18.6234  -50.3446 H         1 UNK         0.0600 
    220 H220       -6.4751  -22.3504  -50.9239 H         1 UNK         0.3000 
    221 H221       -8.9666  -22.1902  -52.4201 H         1 UNK         0.0600 
    222 H222       -7.8050  -24.4504  -50.7070 H         1 UNK         0.0600 
    223 H223       -8.8764  -23.1744  -50.1293 H         1 UNK         0.0600 
    224 H224       -9.4543  -24.3467  -51.3037 H         1 UNK         0.0600 
    225 H225       -5.9037  -23.9861  -52.6427 H         1 UNK         0.3000 
    226 H226       -6.5484  -25.5242  -54.9871 H         1 UNK         0.0600 
    227 H227       -4.7498  -26.1308  -53.3549 H         1 UNK         0.0600 
    228 H228       -4.0998  -25.9709  -54.9797 H         1 UNK         0.0600 
    229 H229       -3.8437  -24.6878  -53.8045 H         1 UNK         0.0600 
    230 H230       -5.9635  -22.2115  -54.5894 H         1 UNK         0.3000 
    231 H231       -5.7202  -20.4465  -55.8622 H         1 UNK         0.0600 
    232 H232       -6.2149  -22.1971  -58.3244 H         1 UNK         0.0600 
    233 H233       -6.3891  -20.4523  -58.2183 H         1 UNK         0.0600 
    234 H234       -7.4784  -21.4917  -57.3160 H         1 UNK         0.0600 
    235 H235       -3.3935  -22.0986  -55.1527 H         1 UNK         0.3000 
    236 H236       -1.3827  -21.7765  -57.2371 H         1 UNK         0.0600 
    237 H237       -1.1210  -22.3716  -54.2384 H         1 UNK         0.0600 
    238 H238       -1.2359  -23.5812  -55.5156 H         1 UNK         0.0600 
    239 H239        0.1610  -22.5174  -55.4333 H         1 UNK         0.0600 
    240 H240       -2.6794  -19.8731  -54.6010 H         1 UNK         0.3000 
    241 H241       -0.5919  -17.8532  -54.5960 H         1 UNK         0.0600 
    242 H242       -3.1148  -16.6902  -57.4740 H         1 UNK         0.3800 
    243 H243       -2.9460  -18.3568  -56.9898 H         1 UNK         0.3800 
    244 H244       -3.3353  -17.8186  -53.2502 H         1 UNK         0.0800 
    245 H245       -2.0560  -16.6706  -52.9640 H         1 UNK         0.0800 
    246 H246        0.1588  -18.2472  -50.4082 H         1 UNK         0.0800 
    247 H247       -0.0721  -16.9559  -51.5592 H         1 UNK         0.0800 
@<TRIPOS>BOND
     1    1    2 1    
     2    1  127 1    
     3    1  128 1    
     4    1  129 1    
     5    2    3 2    
     6    2    4 am   BACKBONE|DICT|INTERRES
     7    4    5 1    
     8    4  130 1    
     9    5    6 1    
    10    5   65 1    
    11    5  131 1    
    12    6    7 1    
    13    6  132 1    
    14    6  133 1    
    15    7    8 1    
    16    8    9 1    
    17    8  134 1    
    18    8  135 1    
    19    9   10 ar   
    20    9   14 ar   
    21   10   11 ar   
    22   10  136 1    
    23   11   12 ar   
    24   11  126 1    
    25   12   13 ar   
    26   12  137 1    
    27   13   14 ar   
    28   13   15 1    
    29   14  138 1    
    30   15   16 1    
    31   15  139 1    
    32   15  140 1    
    33   16   17 1    
    34   17   18 1    
    35   17  141 1    
    36   17  142 1    
    37   18   19 1    
    38   18   67 1    
    39   18  143 1    
    40   19   20 am   BACKBONE|DICT|INTERRES
    41   19  144 1    
    42   20   21 2    
    43   20   22 1    
    44   22   23 1    
    45   22   24 1    
    46   22  145 1    
    47   23  146 1    
    48   23  147 1    
    49   23  148 1    
    50   24   25 am   BACKBONE|DICT|INTERRES
    51   24  149 1    
    52   25   26 2    
    53   25   27 1    
    54   27   28 1    
    55   27   29 1    
    56   27  150 1    
    57   28  151 1    
    58   28  152 1    
    59   28  153 1    
    60   29   30 am   BACKBONE|DICT|INTERRES
    61   29  154 1    
    62   30   31 2    
    63   30   32 1    
    64   32   33 1    
    65   32   34 1    
    66   32  155 1    
    67   33  156 1    
    68   33  157 1    
    69   33  158 1    
    70   34   35 am   BACKBONE|DICT|INTERRES
    71   34  159 1    
    72   35   36 2    
    73   35   37 1    
    74   37   38 1    
    75   37   39 1    
    76   37  160 1    
    77   38  161 1    
    78   38  162 1    
    79   38  163 1    
    80   39   40 am   BACKBONE|DICT|INTERRES
    81   39  164 1    
    82   40   41 2    
    83   40   42 1    
    84   42   43 1    
    85   42   44 1    
    86   42  165 1    
    87   43  166 1    
    88   43  167 1    
    89   43  168 1    
    90   44   45 am   BACKBONE|DICT|INTERRES
    91   44  169 1    
    92   45   46 2    
    93   45   47 1    
    94   47   48 1    
    95   47   49 1    
    96   47  170 1    
    97   48  171 1    
    98   48  172 1    
    99   48  173 1    
   100   49   50 am   BACKBONE|DICT|INTERRES
   101   49  174 1    
   102   50   51 2    
   103   50   52 1    
   104   52   53 1    
   105   52   54 1    
   106   52  175 1    
   107   53  176 1    
   108   53  177 1    
   109   53  178 1    
   110   54   55 am   BACKBONE|DICT|INTERRES
   111   54  179 1    
   112   55   56 2    
   113   55   57 1    
   114   57   58 1    
   115   57   59 1    
   116   57  180 1    
   117   58  181 1    
   118   58  182 1    
   119   58  183 1    
   120   59   60 am   BACKBONE|DICT|INTERRES
   121   59  184 1    
   122   60   61 2    
   123   60   62 1    
   124   62   63 1    
   125   62   64 1    
   126   62  185 1    
   127   63  186 1    
   128   63  187 1    
   129   63  188 1    
   130   64   65 am   BACKBONE|DICT|INTERRES
   131   64  189 1    
   132   65   66 2    
   133   67   68 2    
   134   67   69 am   BACKBONE|DICT|INTERRES
   135   69   70 1    
   136   69  190 1    
   137   70   71 1    
   138   70   72 1    
   139   70  191 1    
   140   71  192 1    
   141   71  193 1    
   142   71  194 1    
   143   72   73 2    
   144   72   74 am   BACKBONE|DICT|INTERRES
   145   74   75 1    
   146   74  195 1    
   147   75   76 1    
   148   75   77 1    
   149   75  196 1    
   150   76  197 1    
   151   76  198 1    
   152   76  199 1    
   153   77   78 2    
   154   77   79 am   BACKBONE|DICT|INTERRES
   155   79   80 1    
   156   79  200 1    
   157   80   81 1    
   158   80   82 1    
   159   80  201 1    
   160   81  202 1    
   161   81  203 1    
   162   81  204 1    
   163   82   83 2    
   164   82   84 am   BACKBONE|DICT|INTERRES
   165   84   85 1    
   166   84  205 1    
   167   85   86 1    
   168   85   87 1    
   169   85  206 1    
   170   86  207 1    
   171   86  208 1    
   172   86  209 1    
   173   87   88 2    
   174   87   89 am   BACKBONE|DICT|INTERRES
   175   89   90 1    
   176   89  210 1    
   177   90   91 1    
   178   90   92 1    
   179   90  211 1    
   180   91  212 1    
   181   91  213 1    
   182   91  214 1    
   183   92   93 2    
   184   92   94 am   BACKBONE|DICT|INTERRES
   185   94   95 1    
   186   94  215 1    
   187   95   96 1    
   188   95   97 1    
   189   95  216 1    
   190   96  217 1    
   191   96  218 1    
   192   96  219 1    
   193   97   98 2    
   194   97   99 am   BACKBONE|DICT|INTERRES
   195   99  100 1    
   196   99  220 1    
   197  100  101 1    
   198  100  102 1    
   199  100  221 1    
   200  101  222 1    
   201  101  223 1    
   202  101  224 1    
   203  102  103 2    
   204  102  104 am   BACKBONE|DICT|INTERRES
   205  104  105 1    
   206  104  225 1    
   207  105  106 1    
   208  105  107 1    
   209  105  226 1    
   210  106  227 1    
   211  106  228 1    
   212  106  229 1    
   213  107  108 2    
   214  107  109 am   BACKBONE|DICT|INTERRES
   215  109  110 1    
   216  109  230 1    
   217  110  111 1    
   218  110  112 1    
   219  110  231 1    
   220  111  232 1    
   221  111  233 1    
   222  111  234 1    
   223  112  113 2    
   224  112  114 am   BACKBONE|DICT|INTERRES
   225  114  115 1    
   226  114  235 1    
   227  115  116 1    
   228  115  117 1    
   229  115  236 1    
   230  116  237 1    
   231  116  238 1    
   232  116  239 1    
   233  117  118 2    
   234  117  119 am   BACKBONE|DICT|INTERRES
   235  119  120 1    
   236  119  240 1    
   237  120  121 1    
   238  120  124 1    
   239  120  241 1    
   240  121  122 am   BACKBONE|DICT|INTERRES
   241  121  123 2    
   242  122  242 1    
   243  122  243 1    
   244  124  125 1    
   245  124  244 1    
   246  124  245 1    
   247  125  126 1    
   248  126  246 1    
   249  126  247 1    
@<TRIPOS>SUBSTRUCTURE
     1 UNK         1 GROUP             0       ****    0 ROOT    
