@<TRIPOS>MOLECULE
3R540
247   249    1
SMALL
USER_CHARGES


@<TRIPOS>ATOM
      1 CA         -2.9619  -15.6059  -48.8953 C.3       0 UNK        -0.1800 
      2 C          -1.8935  -15.0747  -47.9520 C.2       0 UNK         0.5000 
      3 O          -2.2078  -14.3054  -47.0436 O.2       0 UNK        -0.5000 
      4 N          -0.6368  -15.5011  -48.1407 N.am      1 UNK        -0.5000 
      5 CA          0.5310  -15.0878  -47.3485 C.3       1 UNK         0.1400 
      6 C6          1.8511  -15.6863  -47.8839 C.3       23 UNK        -0.0398 
      7 S7          2.2148  -15.1846  -49.5967 S.3       23 UNK        -0.2404 
      8 C8          3.6143  -16.2807  -49.9959 C.3       23 UNK        -0.0205 
      9 C9          3.1909  -17.7405  -50.0652 C.ar      23 UNK        -0.0193 
     10 C10         2.4025  -18.1904  -51.1271 C.ar      23 UNK        -0.1150 
     11 C11         1.9809  -19.5215  -51.1833 C.ar      23 UNK        -0.0193 
     12 C12         2.3594  -20.4074  -50.1709 C.ar      23 UNK        -0.1150 
     13 C13         3.1572  -19.9727  -49.1084 C.ar      23 UNK        -0.0193 
     14 C14         3.5784  -18.6402  -49.0679 C.ar      23 UNK        -0.1150 
     15 C15         3.5705  -20.9471  -48.0130 C.3       23 UNK        -0.0205 
     16 S16         2.9970  -20.4416  -46.3587 S.3       23 UNK        -0.2404 
     17 C17         1.1814  -20.5221  -46.5330 C.3       23 UNK        -0.0398 
     18 CA          0.5870  -21.8568  -46.0225 C.3       11 UNK         0.1400 
     19 N           0.9432  -22.1402  -44.6262 N.am      11 UNK        -0.5000 
     20 C           0.7709  -23.3318  -44.0339 C.2       10 UNK         0.5000 
     21 O           0.3098  -24.3109  -44.6189 O.2       10 UNK        -0.5000 
     22 CA          1.1190  -23.4530  -42.5367 C.3       10 UNK         0.1400 
     23 CB          2.5280  -24.0393  -42.3637 C.3       10 UNK        -0.1800 
     24 N           1.0374  -22.1948  -41.7938 N.am      10 UNK        -0.5000 
     25 C          -0.0421  -21.4065  -41.6884 C.2       9 UNK         0.5000 
     26 O          -1.1331  -21.6730  -42.1906 O.2       9 UNK        -0.5000 
     27 CA          0.1437  -20.0710  -40.9401 C.3       9 UNK         0.1400 
     28 CB         -0.3577  -20.1937  -39.4938 C.3       9 UNK        -0.1800 
     29 N           1.5255  -19.5773  -40.9293 N.am      9 UNK        -0.5000 
     30 C           2.2525  -19.2858  -42.0168 C.2       8 UNK         0.5000 
     31 O           1.8444  -19.4270  -43.1722 O.2       8 UNK        -0.5000 
     32 CA          3.7020  -18.8384  -41.7517 C.3       8 UNK         0.1400 
     33 CB          4.5991  -20.0670  -41.5298 C.3       8 UNK        -0.1800 
     34 N           4.2603  -18.0486  -42.8473 N.am      8 UNK        -0.5000 
     35 C           3.8285  -16.8387  -43.2192 C.2       7 UNK         0.5000 
     36 O           2.9311  -16.2185  -42.6399 O.2       7 UNK        -0.5000 
     37 CA          4.5369  -16.2196  -44.4344 C.3       7 UNK         0.1400 
     38 CB          4.3644  -17.0809  -45.6966 C.3       7 UNK        -0.1800 
     39 N           3.9848  -14.8930  -44.6697 N.am      7 UNK        -0.5000 
     40 C           4.6588  -13.8167  -45.0888 C.2       6 UNK         0.5000 
     41 O           5.8415  -13.8394  -45.4311 O.2       6 UNK        -0.5000 
     42 CA          3.8845  -12.4851  -45.1207 C.3       6 UNK         0.1400 
     43 CB          3.4492  -12.1441  -46.5545 C.3       6 UNK        -0.1800 
     44 N           2.6969  -12.5321  -44.2698 N.am      6 UNK        -0.5000 
     45 C           2.6689  -12.2841  -42.9545 C.2       5 UNK         0.5000 
     46 O           3.6433  -11.8853  -42.3143 O.2       5 UNK        -0.5000 
     47 CA          1.3214  -12.5490  -42.2470 C.3       5 UNK         0.1400 
     48 CB          1.1532  -11.7525  -40.9366 C.3       5 UNK        -0.1800 
     49 N           0.1693  -12.3651  -43.1377 N.am      5 UNK        -0.5000 
     50 C          -0.2420  -11.2309  -43.7262 C.2       4 UNK         0.5000 
     51 O           0.2583  -10.1253  -43.5180 O.2       4 UNK        -0.5000 
     52 CA         -1.3870  -11.3529  -44.7531 C.3       4 UNK         0.1400 
     53 CB         -0.8325  -11.2166  -46.1798 C.3       4 UNK        -0.1800 
     54 N          -2.1255  -12.6136  -44.6593 N.am      4 UNK        -0.5000 
     55 C          -2.9789  -12.9320  -43.6766 C.2       3 UNK         0.5000 
     56 O          -3.2796  -12.1725  -42.7553 O.2       3 UNK        -0.5000 
     57 CA         -3.5690  -14.3513  -43.7181 C.3       3 UNK         0.1400 
     58 CB         -4.8129  -14.4000  -44.6186 C.3       3 UNK        -0.1800 
     59 N          -2.5914  -15.3351  -44.1861 N.am      3 UNK        -0.5000 
     60 C          -1.5945  -15.8301  -43.4394 C.2       2 UNK         0.5000 
     61 O          -1.3927  -15.5115  -42.2680 O.2       2 UNK        -0.5000 
     62 CA         -0.6637  -16.8484  -44.1243 C.3       2 UNK         0.1400 
     63 CB         -1.3203  -18.2385  -44.1242 C.3       2 UNK        -0.1800 
     64 N          -0.3248  -16.4737  -45.4988 N.am      2 UNK        -0.5000 
     65 C           0.3929  -15.3942  -45.8419 C.2       1 UNK         0.5000 
     66 O           0.9134  -14.6313  -45.0284 O.2       1 UNK        -0.5000 
     67 C          -0.9394  -21.9141  -46.2725 C.2       11 UNK         0.5000 
     68 O          -1.3514  -22.1442  -47.4093 O.2       11 UNK        -0.5000 
     69 N          -1.7557  -21.7516  -45.2177 N.am      12 UNK        -0.5000 
     70 CA         -3.2153  -21.8730  -45.2751 C.3       12 UNK         0.1400 
     71 CB         -3.8355  -21.1611  -44.0621 C.3       12 UNK        -0.1800 
     72 C          -3.7105  -23.3327  -45.3490 C.2       12 UNK         0.5000 
     73 O          -4.8938  -23.5449  -45.6138 O.2       12 UNK        -0.5000 
     74 N          -2.8231  -24.3134  -45.1174 N.am      13 UNK        -0.5000 
     75 CA         -3.1346  -25.7453  -45.1811 C.3       13 UNK         0.1400 
     76 CB         -2.0931  -26.5255  -44.3630 C.3       13 UNK        -0.1800 
     77 C          -3.2196  -26.2941  -46.6215 C.2       13 UNK         0.5000 
     78 O          -3.6153  -27.4473  -46.8006 O.2       13 UNK        -0.5000 
     79 N          -2.8416  -25.4803  -47.6180 N.am      14 UNK        -0.5000 
     80 CA         -2.9515  -25.7800  -49.0455 C.3       14 UNK         0.1400 
     81 CB         -2.2741  -24.6470  -49.8345 C.3       14 UNK        -0.1800 
     82 C          -4.4142  -25.9499  -49.5048 C.2       14 UNK         0.5000 
     83 O          -5.3217  -25.3559  -48.9163 O.2       14 UNK        -0.5000 
     84 N          -4.6089  -26.7342  -50.5734 N.am      15 UNK        -0.5000 
     85 CA         -5.8923  -26.9029  -51.2606 C.3       15 UNK         0.1400 
     86 CB         -5.7420  -27.9945  -52.3310 C.3       15 UNK        -0.1800 
     87 C          -6.3588  -25.5866  -51.9076 C.2       15 UNK         0.5000 
     88 O          -5.5152  -24.7778  -52.2964 O.2       15 UNK        -0.5000 
     89 N          -7.6797  -25.4046  -52.0382 N.am      16 UNK        -0.5000 
     90 CA         -8.3275  -24.1658  -52.4901 C.3       16 UNK         0.1400 
     91 CB         -9.8475  -24.3804  -52.5470 C.3       16 UNK        -0.1800 
     92 C          -7.8118  -23.6136  -53.8336 C.2       16 UNK         0.5000 
     93 O          -7.6280  -22.4033  -53.9619 O.2       16 UNK        -0.5000 
     94 N          -7.5466  -24.5136  -54.7901 N.am      17 UNK        -0.5000 
     95 CA         -7.0031  -24.1857  -56.1098 C.3       17 UNK         0.1400 
     96 CB         -7.0949  -25.4257  -57.0119 C.3       17 UNK        -0.1800 
     97 C          -5.5554  -23.6579  -56.0643 C.2       17 UNK         0.5000 
     98 O          -5.1872  -22.8349  -56.9029 O.2       17 UNK        -0.5000 
     99 N          -4.7682  -24.1290  -55.0881 N.am      18 UNK        -0.5000 
    100 CA        -3.4054  -23.6678  -54.8344 C.3       18 UNK         0.1400 
    101 CB        -2.5963  -24.7869  -54.1596 C.3       18 UNK        -0.1800 
    102 C         -3.4139  -22.3944  -53.9760 C.2       18 UNK         0.5000 
    103 O         -2.7281  -21.4324  -54.3152 O.2       18 UNK        -0.5000 
    104 N         -4.2267  -22.3941  -52.9097 N.am      19 UNK        -0.5000 
    105 CA        -4.3938  -21.2922  -51.9598 C.3       19 UNK         0.1400 
    106 CB        -5.3572  -21.7240  -50.8451 C.3       19 UNK        -0.1800 
    107 C         -4.8698  -19.9816  -52.6131 C.2       19 UNK         0.5000 
    108 O         -4.4525  -18.9064  -52.1842 O.2       19 UNK        -0.5000 
    109 N         -5.6876  -20.0910  -53.6700 N.am      20 UNK        -0.5000 
    110 CA        -6.1348  -18.9740  -54.5039 C.3       20 UNK         0.1400 
    111 CB        -7.1657  -19.4867  -55.5208 C.3       20 UNK        -0.1800 
    112 C         -4.9885  -18.2384  -55.2288 C.2       20 UNK         0.5000 
    113 O         -5.1013  -17.0345  -55.4626 O.2       20 UNK        -0.5000 
    114 N         -3.9026  -18.9549  -55.5539 N.am      21 UNK        -0.5000 
    115 CA        -2.7050  -18.3941  -56.1826 C.3       21 UNK         0.1400 
    116 CB        -1.9866  -19.4942  -56.9804 C.3       21 UNK        -0.1800 
    117 C         -1.7485  -17.7436  -55.1638 C.2       21 UNK         0.5000 
    118 O         -0.8778  -16.9729  -55.5700 O.2       21 UNK        -0.5000 
    119 N         -1.9196  -18.0497  -53.8706 N.am      22 UNK        -0.5000 
    120 CA        -1.1293  -17.4890  -52.7626 C.3       22 UNK         0.1400 
    121 C         -1.5372  -16.0441  -52.3510 C.2       22 UNK         0.5000 
    122 N         -2.6152  -15.4738  -52.8763 N.am      22 UNK        -0.7600 
    123 O         -0.8575  -15.4260  -51.5383 O.2       22 UNK        -0.5000 
    124 C124       -1.1027  -18.4217  -51.5215 C.3       23 UNK        -0.0398 
    125 S125       -0.6337  -20.1513  -51.8771 S.3       23 UNK        -0.2404 
    126 C126        1.1204  -20.0052  -52.3393 C.3       23 UNK        -0.0205 
    127 H127       -3.8514  -15.8929  -48.3347 H         1 UNK         0.0600 
    128 H128       -2.6137  -16.4797  -49.4456 H         1 UNK         0.0600 
    129 H129       -3.2425  -14.8363  -49.6140 H         1 UNK         0.0600 
    130 H130       -0.4308  -16.0719  -48.9487 H         1 UNK         0.3000 
    131 H131        0.5979  -14.0027  -47.4402 H         1 UNK         0.0600 
    132 H132        2.6938  -15.3632  -47.2718 H         1 UNK         0.0800 
    133 H133        1.8187  -16.7752  -47.8255 H         1 UNK         0.0800 
    134 H134        4.0324  -15.9832  -50.9585 H         1 UNK         0.0800 
    135 H135        4.4073  -16.1382  -49.2601 H         1 UNK         0.0800 
    136 H136        2.1059  -17.4963  -51.9007 H         1 UNK         0.1150 
    137 H137        2.0281  -21.4356  -50.2129 H         1 UNK         0.1150 
    138 H138        4.1962  -18.3039  -48.2484 H         1 UNK         0.1150 
    139 H139        3.2008  -21.9519  -48.2231 H         1 UNK         0.0800 
    140 H140        4.6588  -21.0177  -47.9994 H         1 UNK         0.0800 
    141 H141        0.9099  -20.3563  -47.5766 H         1 UNK         0.0800 
    142 H142        0.7667  -19.6796  -45.9811 H         1 UNK         0.0800 
    143 H143        1.0224  -22.6535  -46.6296 H         1 UNK         0.0600 
    144 H144        1.3269  -21.3671  -44.0941 H         1 UNK         0.3000 
    145 H145        0.4002  -24.1441  -42.0919 H         1 UNK         0.0600 
    146 H146        2.7550  -24.2206  -41.3130 H         1 UNK         0.0600 
    147 H147        2.6212  -24.9938  -42.8838 H         1 UNK         0.0600 
    148 H148        3.2924  -23.3714  -42.7634 H         1 UNK         0.0600 
    149 H149        1.8885  -21.8818  -41.3522 H         1 UNK         0.3000 
    150 H150       -0.4665  -19.3240  -41.4483 H         1 UNK         0.0600 
    151 H151        0.2363  -20.9069  -38.9209 H         1 UNK         0.0600 
    152 H152       -1.3941  -20.5332  -39.4671 H         1 UNK         0.0600 
    153 H153       -0.3196  -19.2332  -38.9795 H         1 UNK         0.0600 
    154 H154        1.9428  -19.4507  -40.0183 H         1 UNK         0.3000 
    155 H155        3.7159  -18.2224  -40.8501 H         1 UNK         0.0600 
    156 H156        4.6172  -20.7147  -42.4077 H         1 UNK         0.0600 
    157 H157        4.2491  -20.6656  -40.6879 H         1 UNK         0.0600 
    158 H158        5.6253  -19.7722  -41.3092 H         1 UNK         0.0600 
    159 H159        4.9748  -18.4997  -43.3987 H         1 UNK         0.3000 
    160 H160        5.5986  -16.1368  -44.1926 H         1 UNK         0.0600 
    161 H161        3.3144  -17.3062  -45.8856 H         1 UNK         0.0600 
    162 H162        4.8882  -18.0320  -45.5995 H         1 UNK         0.0600 
    163 H163        4.7707  -16.5811  -46.5759 H         1 UNK         0.0600 
    164 H164        3.0268  -14.7798  -44.3558 H         1 UNK         0.3000 
    165 H165        4.5541  -11.6982  -44.7675 H         1 UNK         0.0600 
    166 H166        4.3107  -12.0823  -47.2206 H         1 UNK         0.0600 
    167 H167        2.7733  -12.8955  -46.9616 H         1 UNK         0.0600 
    168 H168        2.9393  -11.1812  -46.5919 H         1 UNK         0.0600 
    169 H169        1.8646  -12.9422  -44.6802 H         1 UNK         0.3000 
    170 H170        1.3271  -13.6088  -41.9867 H         1 UNK         0.0600 
    171 H171        1.9250  -12.0226  -40.2151 H         1 UNK         0.0600 
    172 H172        1.2245  -10.6772  -41.1011 H         1 UNK         0.0600 
    173 H173        0.1892  -11.9588  -40.4716 H         1 UNK         0.0600 
    174 H174       -0.2953  -13.2193  -43.4147 H         1 UNK         0.3000 
    175 H175       -2.0829  -10.5309  -44.5734 H         1 UNK         0.0600 
    176 H176       -1.6285  -11.2786  -46.9222 H         1 UNK         0.0600 
    177 H177       -0.3337  -10.2562  -46.3164 H         1 UNK         0.0600 
    178 H178       -0.1051  -11.9971  -46.4020 H         1 UNK         0.0600 
    179 H179       -1.9954  -13.2773  -45.4183 H         1 UNK         0.3000 
    180 H180       -3.8750  -14.6173  -42.7039 H         1 UNK         0.0600 
    181 H181       -4.5755  -14.1468  -45.6525 H         1 UNK         0.0600 
    182 H182       -5.5705  -13.6948  -44.2744 H         1 UNK         0.0600 
    183 H183       -5.2654  -15.3917  -44.6119 H         1 UNK         0.0600 
    184 H184       -2.6448  -15.5915  -45.1620 H         1 UNK         0.3000 
    185 H185        0.2588  -16.9007  -43.5414 H         1 UNK         0.0600 
    186 H186       -1.7695  -18.4648  -43.1570 H         1 UNK         0.0600 
    187 H187       -2.1107  -18.3126  -44.8717 H         1 UNK         0.0600 
    188 H188       -0.5917  -19.0211  -44.3239 H         1 UNK         0.0600 
    189 H189       -0.7224  -17.0357  -46.2361 H         1 UNK         0.3000 
    190 H190       -1.3561  -21.6141  -44.2956 H         1 UNK         0.3000 
    191 H191       -3.5668  -21.3654  -46.1759 H         1 UNK         0.0600 
    192 H192       -3.5074  -20.1253  -43.9944 H         1 UNK         0.0600 
    193 H193       -4.9238  -21.1489  -44.1331 H         1 UNK         0.0600 
    194 H194       -3.5786  -21.6590  -43.1271 H         1 UNK         0.0600 
    195 H195       -1.8599  -24.0727  -44.9171 H         1 UNK         0.3000 
    196 H196       -4.1098  -25.9054  -44.7166 H         1 UNK         0.0600 
    197 H197       -2.3806  -27.5731  -44.2664 H         1 UNK         0.0600 
    198 H198       -1.9935  -26.1220  -43.3551 H         1 UNK         0.0600 
    199 H199       -1.1110  -26.5023  -44.8355 H         1 UNK         0.0600 
    200 H200       -2.5466  -24.5446  -47.3790 H         1 UNK         0.3000 
    201 H201       -2.4154  -26.7120  -49.2357 H         1 UNK         0.0600 
    202 H202       -2.3070  -24.8384  -50.9073 H         1 UNK         0.0600 
    203 H203       -2.7629  -23.6874  -49.6595 H         1 UNK         0.0600 
    204 H204       -1.2254  -24.5417  -49.5558 H         1 UNK         0.0600 
    205 H205       -3.8091  -27.1606  -51.0170 H         1 UNK         0.3000 
    206 H206       -6.6365  -27.2203  -50.5274 H         1 UNK         0.0600 
    207 H207       -5.4340  -28.9419  -51.8882 H         1 UNK         0.0600 
    208 H208       -6.6866  -28.1711  -52.8471 H         1 UNK         0.0600 
    209 H209       -5.0027  -27.7198  -53.0850 H         1 UNK         0.0600 
    210 H210       -8.2999  -26.1336  -51.7165 H         1 UNK         0.3000 
    211 H211       -8.1267  -23.4071  -51.7322 H         1 UNK         0.0600 
    212 H212      -10.1169  -25.1696  -53.2499 H         1 UNK         0.0600 
    213 H213      -10.3595  -23.4703  -52.8628 H         1 UNK         0.0600 
    214 H214      -10.2452  -24.6511  -51.5687 H         1 UNK         0.0600 
    215 H215       -7.7146  -25.4892  -54.5929 H         1 UNK         0.3000 
    216 H216       -7.6251  -23.4002  -56.5447 H         1 UNK         0.0600 
    217 H217       -6.7196  -25.2090  -58.0129 H         1 UNK         0.0600 
    218 H218       -8.1269  -25.7606  -57.1188 H         1 UNK         0.0600 
    219 H219       -6.5105  -26.2566  -56.6147 H         1 UNK         0.0600 
    220 H220       -5.1735  -24.7357  -54.3867 H         1 UNK         0.3000 
    221 H221       -2.9196  -23.4309  -55.7835 H         1 UNK         0.0600 
    222 H222       -3.0427  -25.1024  -53.2170 H         1 UNK         0.0600 
    223 H223       -2.5270  -25.6632  -54.8042 H         1 UNK         0.0600 
    224 H224       -1.5784  -24.4576  -53.9467 H         1 UNK         0.0600 
    225 H225       -4.7487  -23.2450  -52.7049 H         1 UNK         0.3000 
    226 H226       -3.4193  -21.1019  -51.5082 H         1 UNK         0.0600 
    227 H227       -5.4484  -20.9470  -50.0853 H         1 UNK         0.0600 
    228 H228       -6.3551  -21.9210  -51.2358 H         1 UNK         0.0600 
    229 H229       -5.0081  -22.6285  -50.3463 H         1 UNK         0.0600 
    230 H230       -6.0391  -21.0096  -53.9171 H         1 UNK         0.3000 
    231 H231       -6.6274  -18.2496  -53.8523 H         1 UNK         0.0600 
    232 H232       -6.7481  -20.2699  -56.1553 H         1 UNK         0.0600 
    233 H233       -7.5099  -18.6822  -56.1721 H         1 UNK         0.0600 
    234 H234       -8.0438  -19.8941  -55.0197 H         1 UNK         0.0600 
    235 H235       -3.8457  -19.9276  -55.2739 H         1 UNK         0.3000 
    236 H236       -3.0079  -17.6181  -56.8889 H         1 UNK         0.0600 
    237 H237       -2.6610  -19.9746  -57.6895 H         1 UNK         0.0600 
    238 H238       -1.1561  -19.0783  -57.5520 H         1 UNK         0.0600 
    239 H239       -1.5763  -20.2663  -56.3298 H         1 UNK         0.0600 
    240 H240       -2.6618  -18.6846  -53.6090 H         1 UNK         0.3000 
    241 H241       -0.1009  -17.3988  -53.1144 H         1 UNK         0.0600 
    242 H242       -3.1895  -15.9727  -53.5375 H         1 UNK         0.3800 
    243 H243       -2.8604  -14.5353  -52.6047 H         1 UNK         0.3800 
    244 H244       -2.0869  -18.4444  -51.0523 H         1 UNK         0.0800 
    245 H245       -0.4246  -18.0314  -50.7613 H         1 UNK         0.0800 
    246 H246        1.2212  -19.3473  -53.2032 H         1 UNK         0.0800 
    247 H247        1.4754  -20.9834  -52.6666 H         1 UNK         0.0800 
@<TRIPOS>BOND
     1    1    2 1    
     2    1  127 1    
     3    1  128 1    
     4    1  129 1    
     5    2    3 2    
     6    2    4 am   BACKBONE|DICT|INTERRES
     7    4    5 1    
     8    4  130 1    
     9    5    6 1    
    10    5   65 1    
    11    5  131 1    
    12    6    7 1    
    13    6  132 1    
    14    6  133 1    
    15    7    8 1    
    16    8    9 1    
    17    8  134 1    
    18    8  135 1    
    19    9   10 ar   
    20    9   14 ar   
    21   10   11 ar   
    22   10  136 1    
    23   11   12 ar   
    24   11  126 1    
    25   12   13 ar   
    26   12  137 1    
    27   13   14 ar   
    28   13   15 1    
    29   14  138 1    
    30   15   16 1    
    31   15  139 1    
    32   15  140 1    
    33   16   17 1    
    34   17   18 1    
    35   17  141 1    
    36   17  142 1    
    37   18   19 1    
    38   18   67 1    
    39   18  143 1    
    40   19   20 am   BACKBONE|DICT|INTERRES
    41   19  144 1    
    42   20   21 2    
    43   20   22 1    
    44   22   23 1    
    45   22   24 1    
    46   22  145 1    
    47   23  146 1    
    48   23  147 1    
    49   23  148 1    
    50   24   25 am   BACKBONE|DICT|INTERRES
    51   24  149 1    
    52   25   26 2    
    53   25   27 1    
    54   27   28 1    
    55   27   29 1    
    56   27  150 1    
    57   28  151 1    
    58   28  152 1    
    59   28  153 1    
    60   29   30 am   BACKBONE|DICT|INTERRES
    61   29  154 1    
    62   30   31 2    
    63   30   32 1    
    64   32   33 1    
    65   32   34 1    
    66   32  155 1    
    67   33  156 1    
    68   33  157 1    
    69   33  158 1    
    70   34   35 am   BACKBONE|DICT|INTERRES
    71   34  159 1    
    72   35   36 2    
    73   35   37 1    
    74   37   38 1    
    75   37   39 1    
    76   37  160 1    
    77   38  161 1    
    78   38  162 1    
    79   38  163 1    
    80   39   40 am   BACKBONE|DICT|INTERRES
    81   39  164 1    
    82   40   41 2    
    83   40   42 1    
    84   42   43 1    
    85   42   44 1    
    86   42  165 1    
    87   43  166 1    
    88   43  167 1    
    89   43  168 1    
    90   44   45 am   BACKBONE|DICT|INTERRES
    91   44  169 1    
    92   45   46 2    
    93   45   47 1    
    94   47   48 1    
    95   47   49 1    
    96   47  170 1    
    97   48  171 1    
    98   48  172 1    
    99   48  173 1    
   100   49   50 am   BACKBONE|DICT|INTERRES
   101   49  174 1    
   102   50   51 2    
   103   50   52 1    
   104   52   53 1    
   105   52   54 1    
   106   52  175 1    
   107   53  176 1    
   108   53  177 1    
   109   53  178 1    
   110   54   55 am   BACKBONE|DICT|INTERRES
   111   54  179 1    
   112   55   56 2    
   113   55   57 1    
   114   57   58 1    
   115   57   59 1    
   116   57  180 1    
   117   58  181 1    
   118   58  182 1    
   119   58  183 1    
   120   59   60 am   BACKBONE|DICT|INTERRES
   121   59  184 1    
   122   60   61 2    
   123   60   62 1    
   124   62   63 1    
   125   62   64 1    
   126   62  185 1    
   127   63  186 1    
   128   63  187 1    
   129   63  188 1    
   130   64   65 am   BACKBONE|DICT|INTERRES
   131   64  189 1    
   132   65   66 2    
   133   67   68 2    
   134   67   69 am   BACKBONE|DICT|INTERRES
   135   69   70 1    
   136   69  190 1    
   137   70   71 1    
   138   70   72 1    
   139   70  191 1    
   140   71  192 1    
   141   71  193 1    
   142   71  194 1    
   143   72   73 2    
   144   72   74 am   BACKBONE|DICT|INTERRES
   145   74   75 1    
   146   74  195 1    
   147   75   76 1    
   148   75   77 1    
   149   75  196 1    
   150   76  197 1    
   151   76  198 1    
   152   76  199 1    
   153   77   78 2    
   154   77   79 am   BACKBONE|DICT|INTERRES
   155   79   80 1    
   156   79  200 1    
   157   80   81 1    
   158   80   82 1    
   159   80  201 1    
   160   81  202 1    
   161   81  203 1    
   162   81  204 1    
   163   82   83 2    
   164   82   84 am   BACKBONE|DICT|INTERRES
   165   84   85 1    
   166   84  205 1    
   167   85   86 1    
   168   85   87 1    
   169   85  206 1    
   170   86  207 1    
   171   86  208 1    
   172   86  209 1    
   173   87   88 2    
   174   87   89 am   BACKBONE|DICT|INTERRES
   175   89   90 1    
   176   89  210 1    
   177   90   91 1    
   178   90   92 1    
   179   90  211 1    
   180   91  212 1    
   181   91  213 1    
   182   91  214 1    
   183   92   93 2    
   184   92   94 am   BACKBONE|DICT|INTERRES
   185   94   95 1    
   186   94  215 1    
   187   95   96 1    
   188   95   97 1    
   189   95  216 1    
   190   96  217 1    
   191   96  218 1    
   192   96  219 1    
   193   97   98 2    
   194   97   99 am   BACKBONE|DICT|INTERRES
   195   99  100 1    
   196   99  220 1    
   197  100  101 1    
   198  100  102 1    
   199  100  221 1    
   200  101  222 1    
   201  101  223 1    
   202  101  224 1    
   203  102  103 2    
   204  102  104 am   BACKBONE|DICT|INTERRES
   205  104  105 1    
   206  104  225 1    
   207  105  106 1    
   208  105  107 1    
   209  105  226 1    
   210  106  227 1    
   211  106  228 1    
   212  106  229 1    
   213  107  108 2    
   214  107  109 am   BACKBONE|DICT|INTERRES
   215  109  110 1    
   216  109  230 1    
   217  110  111 1    
   218  110  112 1    
   219  110  231 1    
   220  111  232 1    
   221  111  233 1    
   222  111  234 1    
   223  112  113 2    
   224  112  114 am   BACKBONE|DICT|INTERRES
   225  114  115 1    
   226  114  235 1    
   227  115  116 1    
   228  115  117 1    
   229  115  236 1    
   230  116  237 1    
   231  116  238 1    
   232  116  239 1    
   233  117  118 2    
   234  117  119 am   BACKBONE|DICT|INTERRES
   235  119  120 1    
   236  119  240 1    
   237  120  121 1    
   238  120  124 1    
   239  120  241 1    
   240  121  122 am   BACKBONE|DICT|INTERRES
   241  121  123 2    
   242  122  242 1    
   243  122  243 1    
   244  124  125 1    
   245  124  244 1    
   246  124  245 1    
   247  125  126 1    
   248  126  246 1    
   249  126  247 1    
@<TRIPOS>SUBSTRUCTURE
     1 UNK         1 GROUP             0       ****    0 ROOT    
