@<TRIPOS>MOLECULE
3R540
247   249    1
SMALL
USER_CHARGES


@<TRIPOS>ATOM
      1 CA          4.2086  -13.6567  -48.9730 C.3       0 UNK        -0.1800 
      2 C           2.7970  -14.1413  -48.6815 C.2       0 UNK         0.5000 
      3 O           2.5617  -14.7785  -47.6555 O.2       0 UNK        -0.5000 
      4 N           1.8513  -13.8303  -49.5776 N.am      1 UNK        -0.5000 
      5 CA          0.4507  -14.2882  -49.5640 C.3       1 UNK         0.1400 
      6 C6         -0.2586  -13.9515  -50.9068 C.3       23 UNK        -0.0398 
      7 S7         -1.2439  -15.3406  -51.5741 S.3       23 UNK        -0.2404 
      8 C8         -0.3141  -15.8362  -53.0641 C.3       23 UNK        -0.0205 
      9 C9          0.7079  -16.9357  -52.7951 C.ar      23 UNK        -0.0193 
     10 C10         0.5005  -18.2291  -53.2915 C.ar      23 UNK        -0.1150 
     11 C11         1.4622  -19.2280  -53.1023 C.ar      23 UNK        -0.0193 
     12 C12         2.6320  -18.9255  -52.4026 C.ar      23 UNK        -0.1150 
     13 C13         2.8318  -17.6548  -51.8630 C.ar      23 UNK        -0.0193 
     14 C14         1.8781  -16.6564  -52.0824 C.ar      23 UNK        -0.1150 
     15 C15         4.0592  -17.3863  -51.0057 C.3       23 UNK        -0.0205 
     16 S16         4.0200  -18.3596  -49.4612 S.3       23 UNK        -0.2404 
     17 C17         2.4345  -17.8180  -48.7415 C.3       23 UNK        -0.0398 
     18 CA          1.3160  -18.8851  -48.8277 C.3       11 UNK         0.1400 
     19 N           1.6487  -20.0723  -48.0361 N.am      11 UNK        -0.5000 
     20 C           0.8865  -21.1658  -47.8944 C.2       10 UNK         0.5000 
     21 O          -0.1768  -21.3429  -48.4850 O.2       10 UNK        -0.5000 
     22 CA          1.3585  -22.2019  -46.8569 C.3       10 UNK         0.1400 
     23 CB          2.2135  -23.2839  -47.5323 C.3       10 UNK        -0.1800 
     24 N           2.1106  -21.5982  -45.7503 N.am      10 UNK        -0.5000 
     25 C           1.6030  -20.7195  -44.8735 C.2       9 UNK         0.5000 
     26 O           0.4279  -20.3476  -44.8772 O.2       9 UNK        -0.5000 
     27 CA          2.5958  -20.0855  -43.8928 C.3       9 UNK         0.1400 
     28 CB          2.8056  -18.6003  -44.2352 C.3       9 UNK        -0.1800 
     29 N           2.0928  -20.1928  -42.5268 N.am      9 UNK        -0.5000 
     30 C           2.7668  -20.7431  -41.5084 C.2       8 UNK         0.5000 
     31 O           3.8791  -21.2601  -41.6231 O.2       8 UNK        -0.5000 
     32 CA          2.1011  -20.7138  -40.1235 C.3       8 UNK         0.1400 
     33 CB          2.2919  -19.3398  -39.4621 C.3       8 UNK        -0.1800 
     34 N           0.6729  -21.0115  -40.1976 N.am      8 UNK        -0.5000 
     35 C           0.1235  -22.2008  -39.9150 C.2       7 UNK         0.5000 
     36 O           0.7758  -23.1941  -39.5909 O.2       7 UNK        -0.5000 
     37 CA         -1.4148  -22.3040  -39.9748 C.3       7 UNK         0.1400 
     38 CB         -2.0093  -22.2343  -38.5595 C.3       7 UNK        -0.1800 
     39 N          -2.0287  -21.2573  -40.7910 N.am      7 UNK        -0.5000 
     40 C          -2.0258  -21.2413  -42.1301 C.2       6 UNK         0.5000 
     41 O          -1.5868  -22.1615  -42.8186 O.2       6 UNK        -0.5000 
     42 CA         -2.5918  -19.9770  -42.8093 C.3       6 UNK         0.1400 
     43 CB         -4.0573  -20.1966  -43.2133 C.3       6 UNK        -0.1800 
     44 N          -2.5038  -18.7591  -41.9912 N.am      6 UNK        -0.5000 
     45 C          -1.3653  -18.2119  -41.5457 C.2       5 UNK         0.5000 
     46 O          -0.2514  -18.6978  -41.7552 O.2       5 UNK        -0.5000 
     47 CA         -1.5019  -16.9626  -40.6560 C.3       5 UNK         0.1400 
     48 CB         -1.8076  -17.3809  -39.2090 C.3       5 UNK        -0.1800 
     49 N          -0.2716  -16.1717  -40.6609 N.am      5 UNK        -0.5000 
     50 C           0.1270  -15.3980  -41.6768 C.2       4 UNK         0.5000 
     51 O          -0.5756  -15.1431  -42.6582 O.2       4 UNK        -0.5000 
     52 CA          1.5468  -14.8152  -41.5799 C.3       4 UNK         0.1400 
     53 CB          2.5949  -15.8909  -41.2237 C.3       4 UNK        -0.1800 
     54 N           1.8853  -14.1903  -42.8546 N.am      4 UNK        -0.5000 
     55 C           2.8242  -13.2586  -43.0462 C.2       3 UNK         0.5000 
     56 O           3.5328  -12.8094  -42.1440 O.2       3 UNK        -0.5000 
     57 CA          3.0216  -12.7433  -44.4854 C.3       3 UNK         0.1400 
     58 CB          4.2265  -13.4430  -45.1327 C.3       3 UNK        -0.1800 
     59 N           1.8455  -12.9044  -45.3495 N.am      3 UNK        -0.5000 
     60 C           0.7279  -12.1668  -45.2445 C.2       2 UNK         0.5000 
     61 O           0.5776  -11.2952  -44.3869 O.2       2 UNK        -0.5000 
     62 CA         -0.3910  -12.4247  -46.2741 C.3       2 UNK         0.1400 
     63 CB         -1.2850  -11.1933  -46.5143 C.3       2 UNK        -0.1800 
     64 N           0.1657  -12.8787  -47.5479 N.am      2 UNK        -0.5000 
     65 C          -0.3688  -13.8239  -48.3311 C.2       1 UNK         0.5000 
     66 O          -1.4606  -14.3400  -48.1015 O.2       1 UNK        -0.5000 
     67 C          -0.0269  -18.2598  -48.3939 C.2       11 UNK         0.5000 
     68 O          -0.8517  -17.9233  -49.2407 O.2       11 UNK        -0.5000 
     69 N          -0.2314  -18.1458  -47.0752 N.am      12 UNK        -0.5000 
     70 CA         -1.4415  -17.5854  -46.4799 C.3       12 UNK         0.1400 
     71 CB         -1.1232  -17.1313  -45.0527 C.3       12 UNK        -0.1800 
     72 C          -2.6336  -18.5570  -46.5113 C.2       12 UNK         0.5000 
     73 O          -3.7773  -18.1039  -46.4997 O.2       12 UNK        -0.5000 
     74 N          -2.3607  -19.8673  -46.5765 N.am      13 UNK        -0.5000 
     75 CA         -3.3733  -20.8944  -46.8165 C.3       13 UNK         0.1400 
     76 CB         -2.8352  -22.2676  -46.3922 C.3       13 UNK        -0.1800 
     77 C          -3.8299  -20.8958  -48.2859 C.2       13 UNK         0.5000 
     78 O          -5.0306  -20.9550  -48.5468 O.2       13 UNK        -0.5000 
     79 N          -2.8720  -20.7763  -49.2174 N.am      14 UNK        -0.5000 
     80 CA         -3.1020  -20.6824  -50.6617 C.3       14 UNK         0.1400 
     81 CB         -1.7585  -20.7097  -51.3959 C.3       14 UNK        -0.1800 
     82 C          -3.9223  -19.4488  -51.0787 C.2       14 UNK         0.5000 
     83 O          -4.6546  -19.5148  -52.0658 O.2       14 UNK        -0.5000 
     84 N          -3.8298  -18.3688  -50.2911 N.am      15 UNK        -0.5000 
     85 CA         -4.5739  -17.1177  -50.4504 C.3       15 UNK         0.1400 
     86 CB         -4.1113  -16.1273  -49.3735 C.3       15 UNK        -0.1800 
     87 C          -6.1090  -17.2653  -50.3961 C.2       15 UNK         0.5000 
     88 O          -6.8104  -16.3644  -50.8601 O.2       15 UNK        -0.5000 
     89 N          -6.6148  -18.3830  -49.8530 N.am      16 UNK        -0.5000 
     90 CA         -8.0322  -18.7421  -49.7914 C.3       16 UNK         0.1400 
     91 CB         -8.2158  -19.8454  -48.7343 C.3       16 UNK        -0.1800 
     92 C          -8.5922  -19.1473  -51.1739 C.2       16 UNK         0.5000 
     93 O          -8.9620  -20.3040  -51.3794 O.2       16 UNK        -0.5000 
     94 N          -8.6373  -18.1745  -52.0945 N.am      17 UNK        -0.5000 
     95 CA         -9.1466  -18.2581  -53.4672 C.3       17 UNK         0.1400 
     96 CB        -10.6709  -18.5024  -53.4688 C.3       17 UNK        -0.1800 
     97 C          -8.3672  -19.2623  -54.3429 C.2       17 UNK         0.5000 
     98 O          -8.9768  -20.0562  -55.0621 O.2       17 UNK        -0.5000 
     99 N          -7.0287  -19.1904  -54.2677 N.am      18 UNK        -0.5000 
    100 CA        -6.0556  -20.0243  -54.9850 C.3       18 UNK         0.1400 
    101 CB        -6.1284  -19.7786  -56.5076 C.3       18 UNK        -0.1800 
    102 C         -6.1754  -21.5123  -54.5980 C.2       18 UNK         0.5000 
    103 O         -6.3352  -22.3764  -55.4634 O.2       18 UNK        -0.5000 
    104 N         -6.1193  -21.7742  -53.2865 N.am      19 UNK        -0.5000 
    105 CA        -6.1608  -23.1144  -52.7049 C.3       19 UNK         0.1400 
    106 CB        -6.4554  -23.0090  -51.2006 C.3       19 UNK        -0.1800 
    107 C         -4.8591  -23.8966  -52.9668 C.2       19 UNK         0.5000 
    108 O         -3.7982  -23.3007  -53.1659 O.2       19 UNK        -0.5000 
    109 N         -4.9652  -25.2298  -52.9350 N.am      20 UNK        -0.5000 
    110 CA        -3.9174  -26.1870  -53.3059 C.3       20 UNK         0.1400 
    111 CB        -4.5881  -27.5372  -53.6144 C.3       20 UNK        -0.1800 
    112 C         -2.7726  -26.3544  -52.2810 C.2       20 UNK         0.5000 
    113 O         -1.9624  -27.2695  -52.4370 O.2       20 UNK        -0.5000 
    114 N         -2.7005  -25.4867  -51.2614 N.am      21 UNK        -0.5000 
    115 CA        -1.7024  -25.5094  -50.1847 C.3       21 UNK         0.1400 
    116 CB        -2.0155  -24.3854  -49.1881 C.3       21 UNK        -0.1800 
    117 C         -0.2383  -25.4082  -50.6623 C.2       21 UNK         0.5000 
    118 O          0.6503  -25.9436  -49.9987 O.2       21 UNK        -0.5000 
    119 N         -0.0210  -24.7563  -51.8110 N.am      22 UNK        -0.5000 
    120 CA         1.2739  -24.6945  -52.5090 C.3       22 UNK         0.1400 
    121 C          1.6199  -25.9709  -53.3352 C.2       22 UNK         0.5000 
    122 N          0.7517  -26.9700  -53.4437 N.am      22 UNK        -0.7600 
    123 O          2.7140  -26.0650  -53.8850 O.2       22 UNK        -0.5000 
    124 C124        1.3920  -23.4167  -53.3782 C.3       23 UNK        -0.0398 
    125 S125        1.3911  -21.9033  -52.3658 S.3       23 UNK        -0.2404 
    126 C126        1.2587  -20.6297  -53.6618 C.3       23 UNK        -0.0205 
    127 H127        4.3704  -13.5248  -50.0431 H         1 UNK         0.0600 
    128 H128        4.9385  -14.3801  -48.6089 H         1 UNK         0.0600 
    129 H129        4.3911  -12.7034  -48.4780 H         1 UNK         0.0600 
    130 H130        2.1116  -13.2609  -50.3704 H         1 UNK         0.3000 
    131 H131        0.4987  -15.3736  -49.4753 H         1 UNK         0.0600 
    132 H132       -0.9137  -13.0840  -50.8067 H         1 UNK         0.0800 
    133 H133        0.4682  -13.6596  -51.6650 H         1 UNK         0.0800 
    134 H134       -1.0364  -16.1785  -53.8066 H         1 UNK         0.0800 
    135 H135        0.1803  -14.9744  -53.5135 H         1 UNK         0.0800 
    136 H136       -0.4035  -18.4545  -53.8394 H         1 UNK         0.1150 
    137 H137        3.3736  -19.6954  -52.2405 H         1 UNK         0.1150 
    138 H138        2.0392  -15.6647  -51.6878 H         1 UNK         0.1150 
    139 H139        4.9571  -17.6444  -51.5687 H         1 UNK         0.0800 
    140 H140        4.1408  -16.3263  -50.7613 H         1 UNK         0.0800 
    141 H141        2.1253  -16.9086  -49.2514 H         1 UNK         0.0800 
    142 H142        2.6149  -17.5299  -47.7044 H         1 UNK         0.0800 
    143 H143        1.2060  -19.2021  -49.8668 H         1 UNK         0.0600 
    144 H144        2.5221  -20.0358  -47.5329 H         1 UNK         0.3000 
    145 H145        0.4702  -22.6786  -46.4376 H         1 UNK         0.0600 
    146 H146        3.1317  -22.8703  -47.9509 H         1 UNK         0.0600 
    147 H147        2.4872  -24.0688  -46.8271 H         1 UNK         0.0600 
    148 H148        1.6665  -23.7586  -48.3485 H         1 UNK         0.0600 
    149 H149        3.0861  -21.8512  -45.6823 H         1 UNK         0.3000 
    150 H150        3.5558  -20.5952  -43.9960 H         1 UNK         0.0600 
    151 H151        3.1346  -18.4751  -45.2675 H         1 UNK         0.0600 
    152 H152        3.5705  -18.1575  -43.5974 H         1 UNK         0.0600 
    153 H153        1.8889  -18.0225  -44.1074 H         1 UNK         0.0600 
    154 H154        1.1750  -19.7865  -42.3607 H         1 UNK         0.3000 
    155 H155        2.6066  -21.4524  -39.4977 H         1 UNK         0.0600 
    156 H156        1.7881  -18.5518  -40.0206 H         1 UNK         0.0600 
    157 H157        1.8956  -19.3342  -38.4467 H         1 UNK         0.0600 
    158 H158        3.3486  -19.0765  -39.4015 H         1 UNK         0.0600 
    159 H159        0.0804  -20.2619  -40.5340 H         1 UNK         0.3000 
    160 H160       -1.6653  -23.2770  -40.4031 H         1 UNK         0.0600 
    161 H161       -1.7955  -21.2784  -38.0794 H         1 UNK         0.0600 
    162 H162       -1.5987  -23.0198  -37.9237 H         1 UNK         0.0600 
    163 H163       -3.0912  -22.3668  -38.5788 H         1 UNK         0.0600 
    164 H164       -2.4286  -20.4715  -40.3007 H         1 UNK         0.3000 
    165 H165       -2.0060  -19.8170  -43.7151 H         1 UNK         0.0600 
    166 H166       -4.4225  -19.3759  -43.8312 H         1 UNK         0.0600 
    167 H167       -4.1735  -21.1141  -43.7908 H         1 UNK         0.0600 
    168 H168       -4.7069  -20.2780  -42.3411 H         1 UNK         0.0600 
    169 H169       -3.3809  -18.3141  -41.7619 H         1 UNK         0.3000 
    170 H170       -2.3230  -16.3480  -41.0312 H         1 UNK         0.0600 
    171 H171       -1.0194  -18.0126  -38.7961 H         1 UNK         0.0600 
    172 H172       -1.9121  -16.5102  -38.5613 H         1 UNK         0.0600 
    173 H173       -2.7419  -17.9403  -39.1488 H         1 UNK         0.0600 
    174 H174        0.3722  -16.3481  -39.9047 H         1 UNK         0.3000 
    175 H175        1.5352  -14.0478  -40.8033 H         1 UNK         0.0600 
    176 H176        3.6114  -15.5039  -41.2937 H         1 UNK         0.0600 
    177 H177        2.5215  -16.7552  -41.8841 H         1 UNK         0.0600 
    178 H178        2.4650  -16.2434  -40.2008 H         1 UNK         0.0600 
    179 H179        1.2854  -14.4581  -43.6240 H         1 UNK         0.3000 
    180 H180        3.2507  -11.6777  -44.4172 H         1 UNK         0.0600 
    181 H181        4.0403  -14.5068  -45.2857 H         1 UNK         0.0600 
    182 H182        5.1166  -13.3520  -44.5086 H         1 UNK         0.0600 
    183 H183        4.4662  -12.9991  -46.0975 H         1 UNK         0.0600 
    184 H184        1.9084  -13.6197  -46.0669 H         1 UNK         0.3000 
    185 H185       -1.0083  -13.2158  -45.8428 H         1 UNK         0.0600 
    186 H186       -1.7597  -10.8629  -45.5896 H         1 UNK         0.0600 
    187 H187       -0.7117  -10.3546  -46.9108 H         1 UNK         0.0600 
    188 H188       -2.0830  -11.4184  -47.2220 H         1 UNK         0.0600 
    189 H189        1.0669  -12.4989  -47.8011 H         1 UNK         0.3000 
    190 H190        0.4547  -18.5150  -46.4324 H         1 UNK         0.3000 
    191 H191       -1.7366  -16.7048  -47.0522 H         1 UNK         0.0600 
    192 H192       -0.3836  -16.3308  -45.0598 H         1 UNK         0.0600 
    193 H193       -2.0127  -16.7490  -44.5504 H         1 UNK         0.0600 
    194 H194       -0.7244  -17.9450  -44.4489 H         1 UNK         0.0600 
    195 H195       -1.3948  -20.1646  -46.5567 H         1 UNK         0.3000 
    196 H196       -4.2479  -20.6743  -46.2014 H         1 UNK         0.0600 
    197 H197       -3.5827  -23.0457  -46.5503 H         1 UNK         0.0600 
    198 H198       -2.5716  -22.2784  -45.3355 H         1 UNK         0.0600 
    199 H199       -1.9467  -22.5457  -46.9553 H         1 UNK         0.0600 
    200 H200       -1.8987  -20.7863  -48.9204 H         1 UNK         0.3000 
    201 H201       -3.6581  -21.5683  -50.9656 H         1 UNK         0.0600 
    202 H202       -1.2147  -21.6244  -51.1649 H         1 UNK         0.0600 
    203 H203       -1.9004  -20.6807  -52.4769 H         1 UNK         0.0600 
    204 H204       -1.1261  -19.8649  -51.1219 H         1 UNK         0.0600 
    205 H205       -3.1528  -18.3949  -49.5399 H         1 UNK         0.3000 
    206 H206       -4.3135  -16.7107  -51.4292 H         1 UNK         0.0600 
    207 H207       -3.0249  -16.0679  -49.3305 H         1 UNK         0.0600 
    208 H208       -4.4849  -15.1237  -49.5792 H         1 UNK         0.0600 
    209 H209       -4.4671  -16.4118  -48.3836 H         1 UNK         0.0600 
    210 H210       -5.9675  -19.0824  -49.5108 H         1 UNK         0.3000 
    211 H211       -8.5945  -17.8683  -49.4558 H         1 UNK         0.0600 
    212 H212       -7.6896  -20.7599  -49.0109 H         1 UNK         0.0600 
    213 H213       -9.2697  -20.0977  -48.6121 H         1 UNK         0.0600 
    214 H214       -7.8422  -19.5270  -47.7609 H         1 UNK         0.0600 
    215 H215       -8.2381  -17.2796  -51.8246 H         1 UNK         0.3000 
    216 H216       -8.9762  -17.2772  -53.9132 H         1 UNK         0.0600 
    217 H217      -11.0756  -18.4379  -54.4795 H         1 UNK         0.0600 
    218 H218      -11.1900  -17.7580  -52.8651 H         1 UNK         0.0600 
    219 H219      -10.9251  -19.4880  -53.0779 H         1 UNK         0.0600 
    220 H220       -6.6282  -18.5401  -53.6060 H         1 UNK         0.3000 
    221 H221       -5.0665  -19.7007  -54.6590 H         1 UNK         0.0600 
    222 H222       -7.0736  -20.1162  -56.9334 H         1 UNK         0.0600 
    223 H223       -6.0141  -18.7203  -56.7415 H         1 UNK         0.0600 
    224 H224       -5.3305  -20.3129  -57.0245 H         1 UNK         0.0600 
    225 H225       -5.9091  -21.0047  -52.6609 H         1 UNK         0.3000 
    226 H226       -6.9831  -23.6590  -53.1739 H         1 UNK         0.0600 
    227 H227       -7.4213  -22.5365  -51.0236 H         1 UNK         0.0600 
    228 H228       -6.4897  -23.9938  -50.7334 H         1 UNK         0.0600 
    229 H229       -5.7029  -22.4249  -50.6757 H         1 UNK         0.0600 
    230 H230       -5.8648  -25.6344  -52.7178 H         1 UNK         0.3000 
    231 H231       -3.4523  -25.8301  -54.2271 H         1 UNK         0.0600 
    232 H232       -5.0599  -27.9621  -52.7276 H         1 UNK         0.0600 
    233 H233       -3.8644  -28.2658  -53.9823 H         1 UNK         0.0600 
    234 H234       -5.3525  -27.4321  -54.3845 H         1 UNK         0.0600 
    235 H235       -3.3813  -24.7426  -51.2326 H         1 UNK         0.3000 
    236 H236       -1.8074  -26.4641  -49.6656 H         1 UNK         0.0600 
    237 H237       -3.0197  -24.4846  -48.7759 H         1 UNK         0.0600 
    238 H238       -1.3155  -24.4037  -48.3518 H         1 UNK         0.0600 
    239 H239       -1.9376  -23.4047  -49.6561 H         1 UNK         0.0600 
    240 H240       -0.8090  -24.3429  -52.2871 H         1 UNK         0.3000 
    241 H241        2.0556  -24.6349  -51.7490 H         1 UNK         0.0600 
    242 H242        1.0086  -27.7839  -53.9792 H         1 UNK         0.3800 
    243 H243       -0.1568  -26.9439  -52.9902 H         1 UNK         0.3800 
    244 H244        2.3196  -23.4193  -53.9535 H         1 UNK         0.0800 
    245 H245        0.5775  -23.3699  -54.1029 H         1 UNK         0.0800 
    246 H246        2.0114  -20.8124  -54.4298 H         1 UNK         0.0800 
    247 H247        0.2851  -20.7169  -54.1464 H         1 UNK         0.0800 
@<TRIPOS>BOND
     1    1    2 1    
     2    1  127 1    
     3    1  128 1    
     4    1  129 1    
     5    2    3 2    
     6    2    4 am   BACKBONE|DICT|INTERRES
     7    4    5 1    
     8    4  130 1    
     9    5    6 1    
    10    5   65 1    
    11    5  131 1    
    12    6    7 1    
    13    6  132 1    
    14    6  133 1    
    15    7    8 1    
    16    8    9 1    
    17    8  134 1    
    18    8  135 1    
    19    9   10 ar   
    20    9   14 ar   
    21   10   11 ar   
    22   10  136 1    
    23   11   12 ar   
    24   11  126 1    
    25   12   13 ar   
    26   12  137 1    
    27   13   14 ar   
    28   13   15 1    
    29   14  138 1    
    30   15   16 1    
    31   15  139 1    
    32   15  140 1    
    33   16   17 1    
    34   17   18 1    
    35   17  141 1    
    36   17  142 1    
    37   18   19 1    
    38   18   67 1    
    39   18  143 1    
    40   19   20 am   BACKBONE|DICT|INTERRES
    41   19  144 1    
    42   20   21 2    
    43   20   22 1    
    44   22   23 1    
    45   22   24 1    
    46   22  145 1    
    47   23  146 1    
    48   23  147 1    
    49   23  148 1    
    50   24   25 am   BACKBONE|DICT|INTERRES
    51   24  149 1    
    52   25   26 2    
    53   25   27 1    
    54   27   28 1    
    55   27   29 1    
    56   27  150 1    
    57   28  151 1    
    58   28  152 1    
    59   28  153 1    
    60   29   30 am   BACKBONE|DICT|INTERRES
    61   29  154 1    
    62   30   31 2    
    63   30   32 1    
    64   32   33 1    
    65   32   34 1    
    66   32  155 1    
    67   33  156 1    
    68   33  157 1    
    69   33  158 1    
    70   34   35 am   BACKBONE|DICT|INTERRES
    71   34  159 1    
    72   35   36 2    
    73   35   37 1    
    74   37   38 1    
    75   37   39 1    
    76   37  160 1    
    77   38  161 1    
    78   38  162 1    
    79   38  163 1    
    80   39   40 am   BACKBONE|DICT|INTERRES
    81   39  164 1    
    82   40   41 2    
    83   40   42 1    
    84   42   43 1    
    85   42   44 1    
    86   42  165 1    
    87   43  166 1    
    88   43  167 1    
    89   43  168 1    
    90   44   45 am   BACKBONE|DICT|INTERRES
    91   44  169 1    
    92   45   46 2    
    93   45   47 1    
    94   47   48 1    
    95   47   49 1    
    96   47  170 1    
    97   48  171 1    
    98   48  172 1    
    99   48  173 1    
   100   49   50 am   BACKBONE|DICT|INTERRES
   101   49  174 1    
   102   50   51 2    
   103   50   52 1    
   104   52   53 1    
   105   52   54 1    
   106   52  175 1    
   107   53  176 1    
   108   53  177 1    
   109   53  178 1    
   110   54   55 am   BACKBONE|DICT|INTERRES
   111   54  179 1    
   112   55   56 2    
   113   55   57 1    
   114   57   58 1    
   115   57   59 1    
   116   57  180 1    
   117   58  181 1    
   118   58  182 1    
   119   58  183 1    
   120   59   60 am   BACKBONE|DICT|INTERRES
   121   59  184 1    
   122   60   61 2    
   123   60   62 1    
   124   62   63 1    
   125   62   64 1    
   126   62  185 1    
   127   63  186 1    
   128   63  187 1    
   129   63  188 1    
   130   64   65 am   BACKBONE|DICT|INTERRES
   131   64  189 1    
   132   65   66 2    
   133   67   68 2    
   134   67   69 am   BACKBONE|DICT|INTERRES
   135   69   70 1    
   136   69  190 1    
   137   70   71 1    
   138   70   72 1    
   139   70  191 1    
   140   71  192 1    
   141   71  193 1    
   142   71  194 1    
   143   72   73 2    
   144   72   74 am   BACKBONE|DICT|INTERRES
   145   74   75 1    
   146   74  195 1    
   147   75   76 1    
   148   75   77 1    
   149   75  196 1    
   150   76  197 1    
   151   76  198 1    
   152   76  199 1    
   153   77   78 2    
   154   77   79 am   BACKBONE|DICT|INTERRES
   155   79   80 1    
   156   79  200 1    
   157   80   81 1    
   158   80   82 1    
   159   80  201 1    
   160   81  202 1    
   161   81  203 1    
   162   81  204 1    
   163   82   83 2    
   164   82   84 am   BACKBONE|DICT|INTERRES
   165   84   85 1    
   166   84  205 1    
   167   85   86 1    
   168   85   87 1    
   169   85  206 1    
   170   86  207 1    
   171   86  208 1    
   172   86  209 1    
   173   87   88 2    
   174   87   89 am   BACKBONE|DICT|INTERRES
   175   89   90 1    
   176   89  210 1    
   177   90   91 1    
   178   90   92 1    
   179   90  211 1    
   180   91  212 1    
   181   91  213 1    
   182   91  214 1    
   183   92   93 2    
   184   92   94 am   BACKBONE|DICT|INTERRES
   185   94   95 1    
   186   94  215 1    
   187   95   96 1    
   188   95   97 1    
   189   95  216 1    
   190   96  217 1    
   191   96  218 1    
   192   96  219 1    
   193   97   98 2    
   194   97   99 am   BACKBONE|DICT|INTERRES
   195   99  100 1    
   196   99  220 1    
   197  100  101 1    
   198  100  102 1    
   199  100  221 1    
   200  101  222 1    
   201  101  223 1    
   202  101  224 1    
   203  102  103 2    
   204  102  104 am   BACKBONE|DICT|INTERRES
   205  104  105 1    
   206  104  225 1    
   207  105  106 1    
   208  105  107 1    
   209  105  226 1    
   210  106  227 1    
   211  106  228 1    
   212  106  229 1    
   213  107  108 2    
   214  107  109 am   BACKBONE|DICT|INTERRES
   215  109  110 1    
   216  109  230 1    
   217  110  111 1    
   218  110  112 1    
   219  110  231 1    
   220  111  232 1    
   221  111  233 1    
   222  111  234 1    
   223  112  113 2    
   224  112  114 am   BACKBONE|DICT|INTERRES
   225  114  115 1    
   226  114  235 1    
   227  115  116 1    
   228  115  117 1    
   229  115  236 1    
   230  116  237 1    
   231  116  238 1    
   232  116  239 1    
   233  117  118 2    
   234  117  119 am   BACKBONE|DICT|INTERRES
   235  119  120 1    
   236  119  240 1    
   237  120  121 1    
   238  120  124 1    
   239  120  241 1    
   240  121  122 am   BACKBONE|DICT|INTERRES
   241  121  123 2    
   242  122  242 1    
   243  122  243 1    
   244  124  125 1    
   245  124  244 1    
   246  124  245 1    
   247  125  126 1    
   248  126  246 1    
   249  126  247 1    
@<TRIPOS>SUBSTRUCTURE
     1 UNK         1 GROUP             0       ****    0 ROOT    
