@<TRIPOS>MOLECULE
3R540
247   249    1
SMALL
USER_CHARGES


@<TRIPOS>ATOM
      1 CA          4.8858  -11.1243  -46.3892 C.3       0 UNK        -0.1800 
      2 C           4.4407  -10.3241  -47.6121 C.2       0 UNK         0.5000 
      3 O           5.0942   -9.3437  -47.9612 O.2       0 UNK        -0.5000 
      4 N           3.3524  -10.6979  -48.3003 N.am      1 UNK        -0.5000 
      5 CA          2.4317  -11.7904  -47.9655 C.3       1 UNK         0.1400 
      6 C6          1.6346  -12.2512  -49.2106 C.3       23 UNK        -0.0398 
      7 S7          0.7828  -13.8467  -48.9673 S.3       23 UNK        -0.2404 
      8 C8          1.8018  -14.9717  -49.9770 C.3       23 UNK        -0.0205 
      9 C9          1.2741  -16.4039  -49.9956 C.ar      23 UNK        -0.0193 
     10 C10        -0.0764  -16.6640  -50.2422 C.ar      23 UNK        -0.1150 
     11 C11        -0.5515  -17.9755  -50.3225 C.ar      23 UNK        -0.0193 
     12 C12         0.3413  -19.0390  -50.1546 C.ar      23 UNK        -0.1150 
     13 C13         1.6993  -18.8016  -49.8984 C.ar      23 UNK        -0.0193 
     14 C14         2.1509  -17.4790  -49.8206 C.ar      23 UNK        -0.1150 
     15 C15         2.7277  -19.9278  -49.7470 C.3       23 UNK        -0.0205 
     16 S16         2.0691  -21.5843  -49.3418 S.3       23 UNK        -0.2404 
     17 C17         1.4814  -21.3101  -47.6365 C.3       23 UNK        -0.0398 
     18 CA          0.6550  -22.4701  -47.0226 C.3       11 UNK         0.1400 
     19 N           0.2351  -22.1356  -45.6583 N.am      11 UNK        -0.5000 
     20 C          -0.4330  -22.9344  -44.8147 C.2       10 UNK         0.5000 
     21 O          -0.7378  -24.0974  -45.0658 O.2       10 UNK        -0.5000 
     22 CA         -0.8938  -22.3104  -43.4859 C.3       10 UNK         0.1400 
     23 CB          0.2661  -22.2277  -42.4830 C.3       10 UNK        -0.1800 
     24 N          -1.4943  -20.9888  -43.6721 N.am      10 UNK        -0.5000 
     25 C          -2.6143  -20.7643  -44.3757 C.2       9 UNK         0.5000 
     26 O          -3.2880  -21.6578  -44.8900 O.2       9 UNK        -0.5000 
     27 CA         -3.0297  -19.2958  -44.5756 C.3       9 UNK         0.1400 
     28 CB         -3.7576  -18.7601  -43.3340 C.3       9 UNK        -0.1800 
     29 N          -1.8967  -18.4272  -44.8964 N.am      9 UNK        -0.5000 
     30 C          -1.1491  -18.5294  -46.0052 C.2       8 UNK         0.5000 
     31 O          -1.3666  -19.3430  -46.9021 O.2       8 UNK        -0.5000 
     32 CA          0.0814  -17.6083  -46.0979 C.3       8 UNK         0.1400 
     33 CB         -0.3309  -16.1837  -46.4876 C.3       8 UNK        -0.1800 
     34 N           0.8404  -17.5721  -44.8471 N.am      8 UNK        -0.5000 
     35 C           1.4411  -18.6320  -44.2885 C.2       7 UNK         0.5000 
     36 O           1.4818  -19.7463  -44.8065 O.2       7 UNK        -0.5000 
     37 CA          2.0520  -18.4301  -42.8927 C.3       7 UNK         0.1400 
     38 CB          3.4796  -17.8726  -42.9912 C.3       7 UNK        -0.1800 
     39 N           1.2253  -17.5517  -42.0652 N.am      7 UNK        -0.5000 
     40 C           0.0454  -17.9080  -41.5376 C.2       6 UNK         0.5000 
     41 O          -0.4465  -19.0294  -41.6633 O.2       6 UNK        -0.5000 
     42 CA         -0.7326  -16.8177  -40.7769 C.3       6 UNK         0.1400 
     43 CB         -0.2345  -16.7069  -39.3284 C.3       6 UNK        -0.1800 
     44 N          -0.6433  -15.5073  -41.4233 N.am      6 UNK        -0.5000 
     45 C          -1.1845  -15.2170  -42.6147 C.2       5 UNK         0.5000 
     46 O          -1.8614  -16.0126  -43.2648 O.2       5 UNK        -0.5000 
     47 CA         -0.8830  -13.8237  -43.2008 C.3       5 UNK         0.1400 
     48 CB         -1.9526  -12.8122  -42.7648 C.3       5 UNK        -0.1800 
     49 N           0.4444  -13.2982  -42.8664 N.am      5 UNK        -0.5000 
     50 C           1.6097  -13.8999  -43.1488 C.2       4 UNK         0.5000 
     51 O           1.6889  -15.0256  -43.6420 O.2       4 UNK        -0.5000 
     52 CA          2.8862  -13.1007  -42.8354 C.3       4 UNK         0.1400 
     53 CB          4.1323  -13.6586  -43.5473 C.3       4 UNK        -0.1800 
     54 N           2.6979  -11.7070  -43.2270 N.am      4 UNK        -0.5000 
     55 C           3.0305  -10.6351  -42.4963 C.2       3 UNK         0.5000 
     56 O           3.5290  -10.7086  -41.3726 O.2       3 UNK        -0.5000 
     57 CA          2.7814   -9.2421  -43.1158 C.3       3 UNK         0.1400 
     58 CB          4.1142   -8.5352  -43.4113 C.3       3 UNK        -0.1800 
     59 N           1.9908   -9.2779  -44.3482 N.am      3 UNK        -0.5000 
     60 C           0.6710   -9.4977  -44.4109 C.2       2 UNK         0.5000 
     61 O          -0.0445   -9.6494  -43.4209 O.2       2 UNK        -0.5000 
     62 CA          0.0605   -9.6106  -45.8216 C.3       2 UNK         0.1400 
     63 CB         -0.4555   -8.2438  -46.2956 C.3       2 UNK        -0.1800 
     64 N           0.9863  -10.1510  -46.8255 N.am      2 UNK        -0.5000 
     65 C           1.5005  -11.3906  -46.8010 C.2       1 UNK         0.5000 
     66 O           1.3116  -12.1810  -45.8785 O.2       1 UNK        -0.5000 
     67 C          -0.5496  -22.8776  -47.8991 C.2       11 UNK         0.5000 
     68 O          -0.5239  -23.9505  -48.5072 O.2       11 UNK        -0.5000 
     69 N          -1.5956  -22.0373  -47.8976 N.am      12 UNK        -0.5000 
     70 CA         -2.8566  -22.2541  -48.6047 C.3       12 UNK         0.1400 
     71 CB         -3.7848  -21.0532  -48.3721 C.3       12 UNK        -0.1800 
     72 C          -3.5484  -23.5731  -48.2140 C.2       12 UNK         0.5000 
     73 O          -3.9607  -24.3299  -49.0940 O.2       12 UNK        -0.5000 
     74 N          -3.6269  -23.8336  -46.9023 N.am      13 UNK        -0.5000 
     75 CA         -4.1999  -25.0489  -46.3298 C.3       13 UNK         0.1400 
     76 CB         -4.3968  -24.8545  -44.8186 C.3       13 UNK        -0.1800 
     77 C          -3.3595  -26.3078  -46.6121 C.2       13 UNK         0.5000 
     78 O          -3.9254  -27.3346  -46.9875 O.2       13 UNK        -0.5000 
     79 N          -2.0355  -26.2140  -46.4220 N.am      14 UNK        -0.5000 
     80 CA         -1.0936  -27.3279  -46.5512 C.3       14 UNK         0.1400 
     81 CB          0.2806  -26.9199  -45.9981 C.3       14 UNK        -0.1800 
     82 C          -0.9579  -27.8493  -47.9897 C.2       14 UNK         0.5000 
     83 O          -0.9577  -29.0643  -48.1931 O.2       14 UNK        -0.5000 
     84 N          -0.8543  -26.9313  -48.9606 N.am      15 UNK        -0.5000 
     85 CA         -0.7778  -27.2727  -50.3830 C.3       15 UNK         0.1400 
     86 CB         -0.1114  -26.1215  -51.1476 C.3       15 UNK        -0.1800 
     87 C          -2.1486  -27.6354  -50.9877 C.2       15 UNK         0.5000 
     88 O          -2.1879  -28.2950  -52.0270 O.2       15 UNK        -0.5000 
     89 N          -3.2381  -27.2070  -50.3313 N.am      16 UNK        -0.5000 
     90 CA         -4.6597  -27.4636  -50.6023 C.3       16 UNK         0.1400 
     91 CB         -4.9827  -28.9677  -50.5381 C.3       16 UNK        -0.1800 
     92 C          -5.1884  -26.8299  -51.9023 C.2       16 UNK         0.5000 
     93 O          -6.2039  -26.1369  -51.8699 O.2       16 UNK        -0.5000 
     94 N          -4.4754  -27.0276  -53.0174 N.am      17 UNK        -0.5000 
     95 CA         -4.7368  -26.3934  -54.3136 C.3       17 UNK         0.1400 
     96 CB         -3.8878  -27.0913  -55.3864 C.3       17 UNK        -0.1800 
     97 C          -4.4547  -24.8768  -54.3019 C.2       17 UNK         0.5000 
     98 O          -4.9755  -24.1469  -55.1448 O.2       17 UNK        -0.5000 
     99 N          -3.6480  -24.4344  -53.3294 N.am      18 UNK        -0.5000 
    100 CA        -3.3041  -23.0421  -53.0639 C.3       18 UNK         0.1400 
    101 CB        -1.9616  -23.0174  -52.3197 C.3       18 UNK        -0.1800 
    102 C         -4.3870  -22.2774  -52.2748 C.2       18 UNK         0.5000 
    103 O         -4.1925  -21.0889  -52.0229 O.2       18 UNK        -0.5000 
    104 N         -5.4936  -22.9357  -51.8939 N.am      19 UNK        -0.5000 
    105 CA        -6.6447  -22.3346  -51.2151 C.3       19 UNK         0.1400 
    106 CB        -7.6956  -23.4169  -50.9284 C.3       19 UNK        -0.1800 
    107 C         -7.2449  -21.1742  -52.0313 C.2       19 UNK         0.5000 
    108 O         -7.8131  -21.4109  -53.0989 O.2       19 UNK        -0.5000 
    109 N         -7.0360  -19.9430  -51.5440 N.am      20 UNK        -0.5000 
    110 CA        -7.3802  -18.6380  -52.1290 C.3       20 UNK         0.1400 
    111 CB        -8.9000  -18.5006  -52.3414 C.3       20 UNK        -0.1800 
    112 C         -6.6044  -18.2704  -53.4131 C.2       20 UNK         0.5000 
    113 O         -6.2964  -17.0945  -53.6098 O.2       20 UNK        -0.5000 
    114 N         -6.3054  -19.2602  -54.2621 N.am      21 UNK        -0.5000 
    115 CA        -5.5757  -19.1074  -55.5200 C.3       21 UNK         0.1400 
    116 CB        -5.7762  -20.3761  -56.3634 C.3       21 UNK        -0.1800 
    117 C         -4.0737  -18.8278  -55.3265 C.2       21 UNK         0.5000 
    118 O         -3.4838  -18.1178  -56.1415 O.2       21 UNK        -0.5000 
    119 N         -3.4859  -19.4026  -54.2687 N.am      22 UNK        -0.5000 
    120 CA        -2.0669  -19.2976  -53.8821 C.3       22 UNK         0.1400 
    121 C         -1.0445  -19.8875  -54.9028 C.2       22 UNK         0.5000 
    122 N         -1.4602  -20.7107  -55.8579 N.am      22 UNK        -0.7600 
    123 O          0.1520  -19.6285  -54.8111 O.2       22 UNK        -0.5000 
    124 C124       -1.6761  -17.8817  -53.3804 C.3       23 UNK        -0.0398 
    125 S125       -2.7171  -17.3096  -51.9911 S.3       23 UNK        -0.2404 
    126 C126       -2.0293  -18.2476  -50.5814 C.3       23 UNK        -0.0205 
    127 H127        5.7926  -10.6958  -45.9618 H         1 UNK         0.0600 
    128 H128        5.1057  -12.1569  -46.6595 H         1 UNK         0.0600 
    129 H129        4.1225  -11.1193  -45.6139 H         1 UNK         0.0600 
    130 H130        3.1043  -10.1599  -49.1186 H         1 UNK         0.3000 
    131 H131        3.0264  -12.6431  -47.6322 H         1 UNK         0.0600 
    132 H132        2.3072  -12.3461  -50.0643 H         1 UNK         0.0800 
    133 H133        0.8950  -11.5032  -49.5015 H         1 UNK         0.0800 
    134 H134        2.8255  -14.9458  -49.6003 H         1 UNK         0.0800 
    135 H135        1.8343  -14.6039  -51.0033 H         1 UNK         0.0800 
    136 H136       -0.7620  -15.8405  -50.3833 H         1 UNK         0.1150 
    137 H137       -0.0297  -20.0507  -50.2286 H         1 UNK         0.1150 
    138 H138        3.1998  -17.2860  -49.6438 H         1 UNK         0.1150 
    139 H139        3.2803  -20.0053  -50.6840 H         1 UNK         0.0800 
    140 H140        3.4578  -19.6558  -48.9829 H         1 UNK         0.0800 
    141 H141        0.9004  -20.3890  -47.6208 H         1 UNK         0.0800 
    142 H142        2.3562  -21.1197  -47.0134 H         1 UNK         0.0800 
    143 H143        1.3077  -23.3423  -46.9490 H         1 UNK         0.0600 
    144 H144        0.4826  -21.2018  -45.3387 H         1 UNK         0.3000 
    145 H145       -1.6589  -22.9638  -43.0613 H         1 UNK         0.0600 
    146 H146       -0.0714  -21.8420  -41.5209 H         1 UNK         0.0600 
    147 H147        0.6973  -23.2136  -42.3052 H         1 UNK         0.0600 
    148 H148        1.0660  -21.5806  -42.8412 H         1 UNK         0.0600 
    149 H149       -1.0237  -20.2058  -43.2311 H         1 UNK         0.3000 
    150 H150       -3.7242  -19.2596  -45.4172 H         1 UNK         0.0600 
    151 H151       -4.6146  -19.3861  -43.0826 H         1 UNK         0.0600 
    152 H152       -4.1308  -17.7498  -43.5024 H         1 UNK         0.0600 
    153 H153       -3.1027  -18.7326  -42.4627 H         1 UNK         0.0600 
    154 H154       -1.6866  -17.6901  -44.2296 H         1 UNK         0.3000 
    155 H155        0.7396  -17.9968  -46.8777 H         1 UNK         0.0600 
    156 H156       -1.0538  -15.7629  -45.7907 H         1 UNK         0.0600 
    157 H157       -0.7899  -16.1712  -47.4763 H         1 UNK         0.0600 
    158 H158        0.5321  -15.5184  -46.5156 H         1 UNK         0.0600 
    159 H159        0.9114  -16.6757  -44.3748 H         1 UNK         0.3000 
    160 H160        2.1074  -19.4052  -42.4047 H         1 UNK         0.0600 
    161 H161        4.1281  -18.5663  -43.5275 H         1 UNK         0.0600 
    162 H162        3.5094  -16.9236  -43.5253 H         1 UNK         0.0600 
    163 H163        3.9141  -17.7182  -42.0035 H         1 UNK         0.0600 
    164 H164        1.5196  -16.5874  -41.9993 H         1 UNK         0.3000 
    165 H165       -1.7834  -17.1146  -40.7540 H         1 UNK         0.0600 
    166 H166       -0.8305  -15.9924  -38.7602 H         1 UNK         0.0600 
    167 H167       -0.3065  -17.6678  -38.8171 H         1 UNK         0.0600 
    168 H168        0.8074  -16.3875  -39.2823 H         1 UNK         0.0600 
    169 H169       -0.1013  -14.7969  -40.9541 H         1 UNK         0.3000 
    170 H170       -0.9260  -13.9112  -44.2879 H         1 UNK         0.0600 
    171 H171       -2.9530  -13.1684  -43.0145 H         1 UNK         0.0600 
    172 H172       -1.9247  -12.6352  -41.6890 H         1 UNK         0.0600 
    173 H173       -1.8165  -11.8542  -43.2670 H         1 UNK         0.0600 
    174 H174        0.4721  -12.3666  -42.4773 H         1 UNK         0.3000 
    175 H175        3.0412  -13.1758  -41.7574 H         1 UNK         0.0600 
    176 H176        3.9961  -13.6845  -44.6293 H         1 UNK         0.0600 
    177 H177        5.0130  -13.0524  -43.3349 H         1 UNK         0.0600 
    178 H178        4.3517  -14.6737  -43.2163 H         1 UNK         0.0600 
    179 H179        2.2389  -11.5760  -44.1223 H         1 UNK         0.3000 
    180 H180        2.2396   -8.6506  -42.3748 H         1 UNK         0.0600 
    181 H181        4.7076   -9.0810  -44.1452 H         1 UNK         0.0600 
    182 H182        4.7174   -8.4419  -42.5073 H         1 UNK         0.0600 
    183 H183        3.9503   -7.5277  -43.7941 H         1 UNK         0.0600 
    184 H184        2.4940   -9.1534  -45.2137 H         1 UNK         0.3000 
    185 H185       -0.7903  -10.2920  -45.7533 H         1 UNK         0.0600 
    186 H186        0.3565   -7.5247  -46.4117 H         1 UNK         0.0600 
    187 H187       -0.9712   -8.3266  -47.2524 H         1 UNK         0.0600 
    188 H188       -1.1654   -7.8248  -45.5810 H         1 UNK         0.0600 
    189 H189        1.2160   -9.5444  -47.5993 H         1 UNK         0.3000 
    190 H190       -1.5172  -21.1616  -47.3854 H         1 UNK         0.3000 
    191 H191       -2.6282  -22.2914  -49.6675 H         1 UNK         0.0600 
    192 H192       -4.0577  -20.9462  -47.3229 H         1 UNK         0.0600 
    193 H193       -4.7066  -21.1542  -48.9402 H         1 UNK         0.0600 
    194 H194       -3.3140  -20.1238  -48.6883 H         1 UNK         0.0600 
    195 H195       -3.2839  -23.1389  -46.2452 H         1 UNK         0.3000 
    196 H196       -5.1831  -25.1994  -46.7808 H         1 UNK         0.0600 
    197 H197       -4.8363  -25.7427  -44.3629 H         1 UNK         0.0600 
    198 H198       -5.0655  -24.0182  -44.6137 H         1 UNK         0.0600 
    199 H199       -3.4517  -24.6564  -44.3114 H         1 UNK         0.0600 
    200 H200       -1.6462  -25.3375  -46.0798 H         1 UNK         0.3000 
    201 H201       -1.4692  -28.1501  -45.9385 H         1 UNK         0.0600 
    202 H202        0.2191  -26.6669  -44.9396 H         1 UNK         0.0600 
    203 H203        0.6861  -26.0561  -46.5267 H         1 UNK         0.0600 
    204 H204        1.0006  -27.7335  -46.0947 H         1 UNK         0.0600 
    205 H205       -0.8362  -25.9442  -48.7178 H         1 UNK         0.3000 
    206 H206       -0.1404  -28.1518  -50.5003 H         1 UNK         0.0600 
    207 H207        0.9305  -26.0073  -50.8484 H         1 UNK         0.0600 
    208 H208       -0.1245  -26.2951  -52.2245 H         1 UNK         0.0600 
    209 H209       -0.6104  -25.1758  -50.9549 H         1 UNK         0.0600 
    210 H210       -3.0754  -26.6332  -49.5144 H         1 UNK         0.3000 
    211 H211       -5.1975  -26.9826  -49.7834 H         1 UNK         0.0600 
    212 H212       -4.4858  -29.5287  -51.3300 H         1 UNK         0.0600 
    213 H213       -6.0548  -29.1391  -50.6414 H         1 UNK         0.0600 
    214 H214       -4.6759  -29.3929  -49.5823 H         1 UNK         0.0600 
    215 H215       -3.6380  -27.6006  -52.9383 H         1 UNK         0.3000 
    216 H216       -5.7914  -26.5329  -54.5596 H         1 UNK         0.0600 
    217 H217       -4.0703  -26.6606  -56.3718 H         1 UNK         0.0600 
    218 H218       -4.1256  -28.1535  -55.4475 H         1 UNK         0.0600 
    219 H219       -2.8211  -26.9978  -55.1781 H         1 UNK         0.0600 
    220 H220       -3.2831  -25.1166  -52.6819 H         1 UNK         0.3000 
    221 H221       -3.1752  -22.5231  -54.0156 H         1 UNK         0.0600 
    222 H222       -2.0296  -23.5705  -51.3852 H         1 UNK         0.0600 
    223 H223       -1.1685  -23.4641  -52.9197 H         1 UNK         0.0600 
    224 H224       -1.6480  -22.0035  -52.0736 H         1 UNK         0.0600 
    225 H225       -5.5809  -23.9156  -52.1276 H         1 UNK         0.3000 
    226 H226       -6.3058  -21.9495  -50.2543 H         1 UNK         0.0600 
    227 H227       -7.2980  -24.1815  -50.2606 H         1 UNK         0.0600 
    228 H228       -8.5757  -22.9906  -50.4454 H         1 UNK         0.0600 
    229 H229       -8.0275  -23.9094  -51.8433 H         1 UNK         0.0600 
    230 H230       -6.4872  -19.8774  -50.6983 H         1 UNK         0.3000 
    231 H231       -7.0903  -17.9010  -51.3784 H         1 UNK         0.0600 
    232 H232       -9.1567  -17.4895  -52.6598 H         1 UNK         0.0600 
    233 H233       -9.4469  -18.6995  -51.4199 H         1 UNK         0.0600 
    234 H234       -9.2697  -19.1838  -53.1064 H         1 UNK         0.0600 
    235 H235       -6.6562  -20.1857  -54.0364 H         1 UNK         0.3000 
    236 H236       -6.0040  -18.2631  -56.0642 H         1 UNK         0.0600 
    237 H237       -6.8317  -20.5420  -56.5799 H         1 UNK         0.0600 
    238 H238       -5.2576  -20.2974  -57.3198 H         1 UNK         0.0600 
    239 H239       -5.3968  -21.2633  -55.8541 H         1 UNK         0.0600 
    240 H240       -4.0587  -19.9289  -53.6179 H         1 UNK         0.3000 
    241 H241       -1.9657  -19.9587  -53.0247 H         1 UNK         0.0600 
    242 H242       -0.7887  -21.0926  -56.5052 H         1 UNK         0.3800 
    243 H243       -2.4376  -20.9232  -55.9668 H         1 UNK         0.3800 
    244 H244       -0.6327  -17.8523  -53.0638 H         1 UNK         0.0800 
    245 H245       -1.7609  -17.1582  -54.1920 H         1 UNK         0.0800 
    246 H246       -2.5875  -17.9821  -49.6829 H         1 UNK         0.0800 
    247 H247       -2.2059  -19.3114  -50.7466 H         1 UNK         0.0800 
@<TRIPOS>BOND
     1    1    2 1    
     2    1  127 1    
     3    1  128 1    
     4    1  129 1    
     5    2    3 2    
     6    2    4 am   BACKBONE|DICT|INTERRES
     7    4    5 1    
     8    4  130 1    
     9    5    6 1    
    10    5   65 1    
    11    5  131 1    
    12    6    7 1    
    13    6  132 1    
    14    6  133 1    
    15    7    8 1    
    16    8    9 1    
    17    8  134 1    
    18    8  135 1    
    19    9   10 ar   
    20    9   14 ar   
    21   10   11 ar   
    22   10  136 1    
    23   11   12 ar   
    24   11  126 1    
    25   12   13 ar   
    26   12  137 1    
    27   13   14 ar   
    28   13   15 1    
    29   14  138 1    
    30   15   16 1    
    31   15  139 1    
    32   15  140 1    
    33   16   17 1    
    34   17   18 1    
    35   17  141 1    
    36   17  142 1    
    37   18   19 1    
    38   18   67 1    
    39   18  143 1    
    40   19   20 am   BACKBONE|DICT|INTERRES
    41   19  144 1    
    42   20   21 2    
    43   20   22 1    
    44   22   23 1    
    45   22   24 1    
    46   22  145 1    
    47   23  146 1    
    48   23  147 1    
    49   23  148 1    
    50   24   25 am   BACKBONE|DICT|INTERRES
    51   24  149 1    
    52   25   26 2    
    53   25   27 1    
    54   27   28 1    
    55   27   29 1    
    56   27  150 1    
    57   28  151 1    
    58   28  152 1    
    59   28  153 1    
    60   29   30 am   BACKBONE|DICT|INTERRES
    61   29  154 1    
    62   30   31 2    
    63   30   32 1    
    64   32   33 1    
    65   32   34 1    
    66   32  155 1    
    67   33  156 1    
    68   33  157 1    
    69   33  158 1    
    70   34   35 am   BACKBONE|DICT|INTERRES
    71   34  159 1    
    72   35   36 2    
    73   35   37 1    
    74   37   38 1    
    75   37   39 1    
    76   37  160 1    
    77   38  161 1    
    78   38  162 1    
    79   38  163 1    
    80   39   40 am   BACKBONE|DICT|INTERRES
    81   39  164 1    
    82   40   41 2    
    83   40   42 1    
    84   42   43 1    
    85   42   44 1    
    86   42  165 1    
    87   43  166 1    
    88   43  167 1    
    89   43  168 1    
    90   44   45 am   BACKBONE|DICT|INTERRES
    91   44  169 1    
    92   45   46 2    
    93   45   47 1    
    94   47   48 1    
    95   47   49 1    
    96   47  170 1    
    97   48  171 1    
    98   48  172 1    
    99   48  173 1    
   100   49   50 am   BACKBONE|DICT|INTERRES
   101   49  174 1    
   102   50   51 2    
   103   50   52 1    
   104   52   53 1    
   105   52   54 1    
   106   52  175 1    
   107   53  176 1    
   108   53  177 1    
   109   53  178 1    
   110   54   55 am   BACKBONE|DICT|INTERRES
   111   54  179 1    
   112   55   56 2    
   113   55   57 1    
   114   57   58 1    
   115   57   59 1    
   116   57  180 1    
   117   58  181 1    
   118   58  182 1    
   119   58  183 1    
   120   59   60 am   BACKBONE|DICT|INTERRES
   121   59  184 1    
   122   60   61 2    
   123   60   62 1    
   124   62   63 1    
   125   62   64 1    
   126   62  185 1    
   127   63  186 1    
   128   63  187 1    
   129   63  188 1    
   130   64   65 am   BACKBONE|DICT|INTERRES
   131   64  189 1    
   132   65   66 2    
   133   67   68 2    
   134   67   69 am   BACKBONE|DICT|INTERRES
   135   69   70 1    
   136   69  190 1    
   137   70   71 1    
   138   70   72 1    
   139   70  191 1    
   140   71  192 1    
   141   71  193 1    
   142   71  194 1    
   143   72   73 2    
   144   72   74 am   BACKBONE|DICT|INTERRES
   145   74   75 1    
   146   74  195 1    
   147   75   76 1    
   148   75   77 1    
   149   75  196 1    
   150   76  197 1    
   151   76  198 1    
   152   76  199 1    
   153   77   78 2    
   154   77   79 am   BACKBONE|DICT|INTERRES
   155   79   80 1    
   156   79  200 1    
   157   80   81 1    
   158   80   82 1    
   159   80  201 1    
   160   81  202 1    
   161   81  203 1    
   162   81  204 1    
   163   82   83 2    
   164   82   84 am   BACKBONE|DICT|INTERRES
   165   84   85 1    
   166   84  205 1    
   167   85   86 1    
   168   85   87 1    
   169   85  206 1    
   170   86  207 1    
   171   86  208 1    
   172   86  209 1    
   173   87   88 2    
   174   87   89 am   BACKBONE|DICT|INTERRES
   175   89   90 1    
   176   89  210 1    
   177   90   91 1    
   178   90   92 1    
   179   90  211 1    
   180   91  212 1    
   181   91  213 1    
   182   91  214 1    
   183   92   93 2    
   184   92   94 am   BACKBONE|DICT|INTERRES
   185   94   95 1    
   186   94  215 1    
   187   95   96 1    
   188   95   97 1    
   189   95  216 1    
   190   96  217 1    
   191   96  218 1    
   192   96  219 1    
   193   97   98 2    
   194   97   99 am   BACKBONE|DICT|INTERRES
   195   99  100 1    
   196   99  220 1    
   197  100  101 1    
   198  100  102 1    
   199  100  221 1    
   200  101  222 1    
   201  101  223 1    
   202  101  224 1    
   203  102  103 2    
   204  102  104 am   BACKBONE|DICT|INTERRES
   205  104  105 1    
   206  104  225 1    
   207  105  106 1    
   208  105  107 1    
   209  105  226 1    
   210  106  227 1    
   211  106  228 1    
   212  106  229 1    
   213  107  108 2    
   214  107  109 am   BACKBONE|DICT|INTERRES
   215  109  110 1    
   216  109  230 1    
   217  110  111 1    
   218  110  112 1    
   219  110  231 1    
   220  111  232 1    
   221  111  233 1    
   222  111  234 1    
   223  112  113 2    
   224  112  114 am   BACKBONE|DICT|INTERRES
   225  114  115 1    
   226  114  235 1    
   227  115  116 1    
   228  115  117 1    
   229  115  236 1    
   230  116  237 1    
   231  116  238 1    
   232  116  239 1    
   233  117  118 2    
   234  117  119 am   BACKBONE|DICT|INTERRES
   235  119  120 1    
   236  119  240 1    
   237  120  121 1    
   238  120  124 1    
   239  120  241 1    
   240  121  122 am   BACKBONE|DICT|INTERRES
   241  121  123 2    
   242  122  242 1    
   243  122  243 1    
   244  124  125 1    
   245  124  244 1    
   246  124  245 1    
   247  125  126 1    
   248  126  246 1    
   249  126  247 1    
@<TRIPOS>SUBSTRUCTURE
     1 UNK         1 GROUP             0       ****    0 ROOT    
