@<TRIPOS>MOLECULE
3R540
247   249    1
SMALL
USER_CHARGES


@<TRIPOS>ATOM
      1 CA         -0.6336  -16.8101  -49.8408 C.3       0 UNK        -0.1800 
      2 C          -0.4354  -15.4058  -50.3891 C.2       0 UNK         0.5000 
      3 O          -1.3708  -14.6062  -50.4042 O.2       0 UNK        -0.5000 
      4 N           0.7946  -15.0976  -50.8202 N.am      1 UNK        -0.5000 
      5 CA          1.2095  -13.7630  -51.2695 C.3       1 UNK         0.1400 
      6 C6          2.5598  -13.7950  -52.0292 C.3       23 UNK        -0.0398 
      7 S7          3.9452  -14.4914  -51.0568 S.3       23 UNK        -0.2404 
      8 C8          4.5375  -15.8359  -52.1323 C.3       23 UNK        -0.0205 
      9 C9          3.5382  -16.9766  -52.2758 C.ar      23 UNK        -0.0193 
     10 C10         3.0615  -17.3380  -53.5397 C.ar      23 UNK        -0.1150 
     11 C11         2.2057  -18.4335  -53.6947 C.ar      23 UNK        -0.0193 
     12 C12         1.8153  -19.1587  -52.5640 C.ar      23 UNK        -0.1150 
     13 C13         2.2564  -18.7882  -51.2927 C.ar      23 UNK        -0.0193 
     14 C14         3.1262  -17.7030  -51.1547 C.ar      23 UNK        -0.1150 
     15 C15         1.7765  -19.5419  -50.0646 C.3       23 UNK        -0.0205 
     16 S16         3.0053  -20.7482  -49.4778 S.3       23 UNK        -0.2404 
     17 C17         2.6198  -20.7642  -47.6923 C.3       23 UNK        -0.0398 
     18 CA          1.9694  -22.0653  -47.1612 C.3       11 UNK         0.1400 
     19 N           1.8015  -21.9879  -45.7103 N.am      11 UNK        -0.5000 
     20 C           2.3655  -22.8300  -44.8366 C.2       10 UNK         0.5000 
     21 O           2.9641  -23.8563  -45.1594 O.2       10 UNK        -0.5000 
     22 CA          2.2985  -22.4459  -43.3475 C.3       10 UNK         0.1400 
     23 CB          3.5014  -21.5651  -42.9765 C.3       10 UNK        -0.1800 
     24 N           1.0655  -21.7577  -42.9669 N.am      10 UNK        -0.5000 
     25 C          -0.1204  -22.3650  -42.8316 C.2       9 UNK         0.5000 
     26 O          -0.3025  -23.5624  -43.0526 O.2       9 UNK        -0.5000 
     27 CA         -1.3003  -21.4907  -42.3640 C.3       9 UNK         0.1400 
     28 CB         -1.2691  -21.3128  -40.8385 C.3       9 UNK        -0.1800 
     29 N          -1.3373  -20.1784  -43.0097 N.am      9 UNK        -0.5000 
     30 C          -1.5388  -19.9865  -44.3201 C.2       8 UNK         0.5000 
     31 O          -1.7434  -20.8996  -45.1172 O.2       8 UNK        -0.5000 
     32 CA         -1.4348  -18.5422  -44.8447 C.3       8 UNK         0.1400 
     33 CB         -2.7282  -17.7591  -44.5797 C.3       8 UNK        -0.1800 
     34 N          -0.2924  -17.8223  -44.2835 N.am      8 UNK        -0.5000 
     35 C           0.9851  -18.1984  -44.4378 C.2       7 UNK         0.5000 
     36 O           1.3363  -19.1714  -45.1047 O.2       7 UNK        -0.5000 
     37 CA          2.0396  -17.3877  -43.6692 C.3       7 UNK         0.1400 
     38 CB          2.3652  -16.0761  -44.3989 C.3       7 UNK        -0.1800 
     39 N           1.6086  -17.1068  -42.2998 N.am      7 UNK        -0.5000 
     40 C           1.4840  -18.0404  -41.3449 C.2       6 UNK         0.5000 
     41 O           1.7562  -19.2289  -41.5102 O.2       6 UNK        -0.5000 
     42 CA          0.9171  -17.5740  -39.9923 C.3       6 UNK         0.1400 
     43 CB          2.0186  -16.9387  -39.1309 C.3       6 UNK        -0.1800 
     44 N          -0.1878  -16.6271  -40.1460 N.am      6 UNK        -0.5000 
     45 C          -1.3757  -16.9309  -40.6882 C.2       5 UNK         0.5000 
     46 O          -1.6800  -18.0554  -41.0826 O.2       5 UNK        -0.5000 
     47 CA         -2.3741  -15.7726  -40.8611 C.3       5 UNK         0.1400 
     48 CB         -3.2250  -15.5997  -39.5943 C.3       5 UNK        -0.1800 
     49 N          -1.7297  -14.4991  -41.1927 N.am      5 UNK        -0.5000 
     50 C          -1.0280  -14.2705  -42.3104 C.2       4 UNK         0.5000 
     51 O          -0.8079  -15.1268  -43.1704 O.2       4 UNK        -0.5000 
     52 CA         -0.4275  -12.8615  -42.4624 C.3       4 UNK         0.1400 
     53 CB          1.0744  -12.8848  -42.1380 C.3       4 UNK        -0.1800 
     54 N          -0.6157  -12.3163  -43.8059 N.am      4 UNK        -0.5000 
     55 C          -1.7991  -12.0409  -44.3731 C.2       3 UNK         0.5000 
     56 O          -2.8798  -12.1993  -43.8032 O.2       3 UNK        -0.5000 
     57 CA         -1.7836  -11.4549  -45.8007 C.3       3 UNK         0.1400 
     58 CB         -2.2631   -9.9939  -45.7877 C.3       3 UNK        -0.1800 
     59 N          -0.4680  -11.5057  -46.4454 N.am      3 UNK        -0.5000 
     60 C           0.0434  -12.5899  -47.0389 C.2       2 UNK         0.5000 
     61 O          -0.5236  -13.6838  -47.0783 O.2       2 UNK        -0.5000 
     62 CA          1.4398  -12.4292  -47.6597 C.3       2 UNK         0.1400 
     63 CB          2.5201  -12.9332  -46.6903 C.3       2 UNK        -0.1800 
     64 N           1.5176  -13.1989  -48.8959 N.am      2 UNK        -0.5000 
     65 C           1.2247  -12.7311  -50.1166 C.2       1 UNK         0.5000 
     66 O           0.9597  -11.5511  -50.3524 O.2       1 UNK        -0.5000 
     67 C           0.6314  -22.4146  -47.8383 C.2       11 UNK         0.5000 
     68 O           0.5024  -23.5128  -48.3800 O.2       11 UNK        -0.5000 
     69 N          -0.3411  -21.4918  -47.8092 N.am      12 UNK        -0.5000 
     70 CA         -1.5951  -21.6076  -48.5624 C.3       12 UNK         0.1400 
     71 CB         -2.3630  -20.2780  -48.5126 C.3       12 UNK        -0.1800 
     72 C          -2.4836  -22.7808  -48.1123 C.2       12 UNK         0.5000 
     73 O          -2.9781  -23.5318  -48.9541 O.2       12 UNK        -0.5000 
     74 N          -2.6287  -22.9478  -46.7924 N.am      13 UNK        -0.5000 
     75 CA         -3.3821  -24.0404  -46.1789 C.3       13 UNK         0.1400 
     76 CB         -3.6450  -23.7178  -44.7028 C.3       13 UNK        -0.1800 
     77 C          -2.6771  -25.4017  -46.3197 C.2       13 UNK         0.5000 
     78 O          -3.3593  -26.4236  -46.3849 O.2       13 UNK        -0.5000 
     79 N          -1.3386  -25.3982  -46.4079 N.am      14 UNK        -0.5000 
     80 CA         -0.5290  -26.5875  -46.6861 C.3       14 UNK         0.1400 
     81 CB          0.9375  -26.3172  -46.3214 C.3       14 UNK        -0.1800 
     82 C          -0.6668  -27.0463  -48.1506 C.2       14 UNK         0.5000 
     83 O          -0.6958  -28.2493  -48.4110 O.2       14 UNK        -0.5000 
     84 N          -0.8086  -26.0818  -49.0715 N.am      15 UNK        -0.5000 
     85 CA         -1.1687  -26.3011  -50.4754 C.3       15 UNK         0.1400 
     86 CB         -0.8082  -25.0447  -51.2826 C.3       15 UNK        -0.1800 
     87 C          -2.6562  -26.6734  -50.6719 C.2       15 UNK         0.5000 
     88 O          -3.0249  -27.1186  -51.7594 O.2       15 UNK        -0.5000 
     89 N          -3.4669  -26.5022  -49.6170 N.am      16 UNK        -0.5000 
     90 CA         -4.8929  -26.8117  -49.5020 C.3       16 UNK         0.1400 
     91 CB         -5.1378  -28.3298  -49.6331 C.3       16 UNK        -0.1800 
     92 C          -5.7681  -25.9638  -50.4448 C.2       16 UNK         0.5000 
     93 O          -6.6498  -26.4984  -51.1212 O.2       16 UNK        -0.5000 
     94 N          -5.5187  -24.6500  -50.4623 N.am      17 UNK        -0.5000 
     95 CA         -6.2801  -23.6694  -51.2311 C.3       17 UNK         0.1400 
     96 CB         -5.6569  -23.5257  -52.6321 C.3       17 UNK        -0.1800 
     97 C          -6.3285  -22.3314  -50.4768 C.2       17 UNK         0.5000 
     98 O          -5.6273  -22.1556  -49.4783 O.2       17 UNK        -0.5000 
     99 N          -7.1610  -21.4044  -50.9671 N.am      18 UNK        -0.5000 
    100 CA        -7.2394  -20.0238  -50.4841 C.3       18 UNK         0.1400 
    101 CB        -8.4412  -19.3358  -51.1498 C.3       18 UNK        -0.1800 
    102 C         -5.9482  -19.2465  -50.7964 C.2       18 UNK         0.5000 
    103 O         -5.2640  -19.5765  -51.7668 O.2       18 UNK        -0.5000 
    104 N         -5.6536  -18.2063  -50.0057 N.am      19 UNK        -0.5000 
    105 CA        -4.4533  -17.3699  -50.1327 C.3       19 UNK         0.1400 
    106 CB        -4.4663  -16.2974  -49.0321 C.3       19 UNK        -0.1800 
    107 C         -4.2857  -16.7328  -51.5261 C.2       19 UNK         0.5000 
    108 O         -3.2012  -16.7957  -52.1046 O.2       19 UNK        -0.5000 
    109 N         -5.3936  -16.2181  -52.0770 N.am      20 UNK        -0.5000 
    110 CA        -5.4785  -15.6544  -53.4279 C.3       20 UNK         0.1400 
    111 CB        -6.8345  -14.9475  -53.5794 C.3       20 UNK        -0.1800 
    112 C         -5.2818  -16.6891  -54.5578 C.2       20 UNK         0.5000 
    113 O         -5.0157  -16.2959  -55.6940 O.2       20 UNK        -0.5000 
    114 N         -5.4126  -17.9802  -54.2301 N.am      21 UNK        -0.5000 
    115 CA        -5.2141  -19.1198  -55.1218 C.3       21 UNK         0.1400 
    116 CB        -6.4420  -20.0413  -55.0063 C.3       21 UNK        -0.1800 
    117 C         -3.9067  -19.8756  -54.8019 C.2       21 UNK         0.5000 
    118 O         -3.7297  -20.9891  -55.2981 O.2       21 UNK        -0.5000 
    119 N         -3.0200  -19.2750  -53.9905 N.am      22 UNK        -0.5000 
    120 CA        -1.7373  -19.8398  -53.5310 C.3       22 UNK         0.1400 
    121 C         -1.8719  -21.0351  -52.5375 C.2       22 UNK         0.5000 
    122 N         -3.0039  -21.2243  -51.8732 N.am      22 UNK        -0.7600 
    123 O         -0.9212  -21.7806  -52.3246 O.2       22 UNK        -0.5000 
    124 C124       -0.7468  -20.1212  -54.7020 C.3       23 UNK        -0.0398 
    125 S125       -0.0283  -18.5849  -55.3784 S.3       23 UNK        -0.2404 
    126 C126        1.7532  -18.8537  -55.0891 C.3       23 UNK        -0.0205 
    127 H127        0.1757  -17.0646  -49.1589 H         1 UNK         0.0600 
    128 H128       -0.6645  -17.5389  -50.6512 H         1 UNK         0.0600 
    129 H129       -1.5636  -16.8769  -49.2792 H         1 UNK         0.0600 
    130 H130        1.5216  -15.7995  -50.8163 H         1 UNK         0.3000 
    131 H131        0.4548  -13.4171  -51.9793 H         1 UNK         0.0600 
    132 H132        2.4380  -14.3702  -52.9478 H         1 UNK         0.0800 
    133 H133        2.8381  -12.7908  -52.3536 H         1 UNK         0.0800 
    134 H134        5.4615  -16.2354  -51.7123 H         1 UNK         0.0800 
    135 H135        4.8019  -15.4207  -53.1062 H         1 UNK         0.0800 
    136 H136        3.3822  -16.7829  -54.4101 H         1 UNK         0.1150 
    137 H137        1.1687  -20.0161  -52.6619 H         1 UNK         0.1150 
    138 H138        3.4910  -17.4291  -50.1743 H         1 UNK         0.1150 
    139 H139        1.5691  -18.8144  -49.2823 H         1 UNK         0.0800 
    140 H140        0.8344  -20.0550  -50.2667 H         1 UNK         0.0800 
    141 H141        2.0071  -19.9016  -47.4364 H         1 UNK         0.0800 
    142 H142        3.5632  -20.6036  -47.1684 H         1 UNK         0.0800 
    143 H143        2.6553  -22.8773  -47.4123 H         1 UNK         0.0600 
    144 H144        1.3668  -21.1428  -45.3523 H         1 UNK         0.3000 
    145 H145        2.3678  -23.3686  -42.7672 H         1 UNK         0.0600 
    146 H146        3.5294  -21.3681  -41.9047 H         1 UNK         0.0600 
    147 H147        4.4413  -22.0510  -43.2414 H         1 UNK         0.0600 
    148 H148        3.4695  -20.6047  -43.4928 H         1 UNK         0.0600 
    149 H149        1.1494  -20.7783  -42.7155 H         1 UNK         0.3000 
    150 H150       -2.2249  -22.0105  -42.6183 H         1 UNK         0.0600 
    151 H151       -1.2499  -22.2784  -40.3318 H         1 UNK         0.0600 
    152 H152       -2.1521  -20.7789  -40.4868 H         1 UNK         0.0600 
    153 H153       -0.3903  -20.7537  -40.5159 H         1 UNK         0.0600 
    154 H154       -1.2295  -19.3699  -42.4034 H         1 UNK         0.3000 
    155 H155       -1.2881  -18.5917  -45.9253 H         1 UNK         0.0600 
    156 H156       -2.9389  -17.6776  -43.5137 H         1 UNK         0.0600 
    157 H157       -3.5826  -18.2500  -45.0471 H         1 UNK         0.0600 
    158 H158       -2.6683  -16.7495  -44.9872 H         1 UNK         0.0600 
    159 H159       -0.4939  -16.9807  -43.7511 H         1 UNK         0.3000 
    160 H160        2.9529  -17.9848  -43.6229 H         1 UNK         0.0600 
    161 H161        1.4868  -15.4388  -44.5043 H         1 UNK         0.0600 
    162 H162        2.7437  -16.2772  -45.4018 H         1 UNK         0.0600 
    163 H163        3.1314  -15.5086  -43.8706 H         1 UNK         0.0600 
    164 H164        1.3080  -16.1647  -42.1013 H         1 UNK         0.3000 
    165 H165        0.5386  -18.4546  -39.4687 H         1 UNK         0.0600 
    166 H166        1.6432  -16.6768  -38.1415 H         1 UNK         0.0600 
    167 H167        2.8499  -17.6306  -38.9891 H         1 UNK         0.0600 
    168 H168        2.4192  -16.0334  -39.5889 H         1 UNK         0.0600 
    169 H169       -0.0243  -15.6779  -39.8454 H         1 UNK         0.3000 
    170 H170       -3.0409  -16.0320  -41.6857 H         1 UNK         0.0600 
    171 H171       -3.7331  -16.5299  -39.3359 H         1 UNK         0.0600 
    172 H172       -2.6178  -15.3081  -38.7364 H         1 UNK         0.0600 
    173 H173       -3.9940  -14.8401  -39.7361 H         1 UNK         0.0600 
    174 H174       -1.8600  -13.7459  -40.5327 H         1 UNK         0.3000 
    175 H175       -0.9222  -12.1886  -41.7590 H         1 UNK         0.0600 
    176 H176        1.6296  -13.5069  -42.8407 H         1 UNK         0.0600 
    177 H177        1.5003  -11.8818  -42.1713 H         1 UNK         0.0600 
    178 H178        1.2542  -13.2788  -41.1368 H         1 UNK         0.0600 
    179 H179        0.2160  -12.1752  -44.3573 H         1 UNK         0.3000 
    180 H180       -2.4905  -12.0370  -46.3961 H         1 UNK         0.0600 
    181 H181       -1.5986   -9.3573  -45.2021 H         1 UNK         0.0600 
    182 H182       -3.2612   -9.9118  -45.3553 H         1 UNK         0.0600 
    183 H183       -2.3157   -9.5869  -46.7977 H         1 UNK         0.0600 
    184 H184        0.0633  -10.6463  -46.4448 H         1 UNK         0.3000 
    185 H185        1.6257  -11.3731  -47.8670 H         1 UNK         0.0600 
    186 H186        3.5170  -12.8071  -47.1132 H         1 UNK         0.0600 
    187 H187        2.4937  -12.3821  -45.7495 H         1 UNK         0.0600 
    188 H188        2.3882  -13.9898  -46.4572 H         1 UNK         0.0600 
    189 H189        1.6641  -14.1918  -48.7934 H         1 UNK         0.3000 
    190 H190       -0.2088  -20.6473  -47.2737 H         1 UNK         0.3000 
    191 H191       -1.3234  -21.7952  -49.6022 H         1 UNK         0.0600 
    192 H192       -2.6434  -20.0062  -47.4955 H         1 UNK         0.0600 
    193 H193       -3.2833  -20.3419  -49.0948 H         1 UNK         0.0600 
    194 H194       -1.7692  -19.4658  -48.9305 H         1 UNK         0.0600 
    195 H195       -2.2132  -22.2597  -46.1647 H         1 UNK         0.3000 
    196 H196       -4.3465  -24.1101  -46.6871 H         1 UNK         0.0600 
    197 H197       -4.3006  -24.4636  -44.2518 H         1 UNK         0.0600 
    198 H198       -4.1243  -22.7455  -44.5862 H         1 UNK         0.0600 
    199 H199       -2.7188  -23.7093  -44.1311 H         1 UNK         0.0600 
    200 H200       -0.8546  -24.5129  -46.3699 H         1 UNK         0.3000 
    201 H201       -0.8865  -27.3994  -46.0492 H         1 UNK         0.0600 
    202 H202        1.0355  -26.0227  -45.2762 H         1 UNK         0.0600 
    203 H203        1.3721  -25.5269  -46.9328 H         1 UNK         0.0600 
    204 H204        1.5448  -27.2114  -46.4656 H         1 UNK         0.0600 
    205 H205       -0.6913  -25.1154  -48.7840 H         1 UNK         0.3000 
    206 H206       -0.5720  -27.1318  -50.8574 H         1 UNK         0.0600 
    207 H207        0.2494  -24.7998  -51.1841 H         1 UNK         0.0600 
    208 H208       -1.0122  -25.1868  -52.3444 H         1 UNK         0.0600 
    209 H209       -1.3806  -24.1772  -50.9552 H         1 UNK         0.0600 
    210 H210       -3.0517  -26.0886  -48.7944 H         1 UNK         0.3000 
    211 H211       -5.1823  -26.5252  -48.4903 H         1 UNK         0.0600 
    212 H212       -4.9173  -28.6931  -50.6371 H         1 UNK         0.0600 
    213 H213       -6.1779  -28.5770  -49.4176 H         1 UNK         0.0600 
    214 H214       -4.5200  -28.8891  -48.9303 H         1 UNK         0.0600 
    215 H215       -4.7957  -24.2584  -49.8639 H         1 UNK         0.3000 
    216 H216       -7.3133  -24.0074  -51.3350 H         1 UNK         0.0600 
    217 H217       -6.1479  -22.7469  -53.2156 H         1 UNK         0.0600 
    218 H218       -5.7473  -24.4543  -53.1957 H         1 UNK         0.0600 
    219 H219       -4.5975  -23.2788  -52.5782 H         1 UNK         0.0600 
    220 H220       -7.6903  -21.6158  -51.7996 H         1 UNK         0.3000 
    221 H221       -7.3890  -20.0410  -49.4026 H         1 UNK         0.0600 
    222 H222       -8.3308  -19.2923  -52.2344 H         1 UNK         0.0600 
    223 H223       -9.3698  -19.8621  -50.9279 H         1 UNK         0.0600 
    224 H224       -8.5570  -18.3123  -50.7911 H         1 UNK         0.0600 
    225 H225       -6.2717  -17.9873  -49.2379 H         1 UNK         0.3000 
    226 H226       -3.5888  -18.0154  -49.9717 H         1 UNK         0.0600 
    227 H227       -4.4191  -16.7499  -48.0413 H         1 UNK         0.0600 
    228 H228       -3.6112  -15.6268  -49.1220 H         1 UNK         0.0600 
    229 H229       -5.3657  -15.6826  -49.0791 H         1 UNK         0.0600 
    230 H230       -6.2486  -16.2364  -51.5408 H         1 UNK         0.3000 
    231 H231       -4.6882  -14.9079  -53.5309 H         1 UNK         0.0600 
    232 H232       -6.9546  -14.1591  -52.8360 H         1 UNK         0.0600 
    233 H233       -7.6656  -15.6452  -53.4684 H         1 UNK         0.0600 
    234 H234       -6.9261  -14.4816  -54.5615 H         1 UNK         0.0600 
    235 H235       -5.5693  -18.2243  -53.2590 H         1 UNK         0.3000 
    236 H236       -5.1396  -18.7840  -56.1577 H         1 UNK         0.0600 
    237 H237       -6.3696  -20.8859  -55.6924 H         1 UNK         0.0600 
    238 H238       -6.5482  -20.4438  -53.9990 H         1 UNK         0.0600 
    239 H239       -7.3596  -19.5057  -55.2501 H         1 UNK         0.0600 
    240 H240       -3.2563  -18.3718  -53.5985 H         1 UNK         0.3000 
    241 H241       -1.2925  -19.0586  -52.9134 H         1 UNK         0.0600 
    242 H242       -3.0725  -21.9966  -51.2318 H         1 UNK         0.3800 
    243 H243       -3.7971  -20.5971  -51.9937 H         1 UNK         0.3800 
    244 H244       -1.2324  -20.6588  -55.5152 H         1 UNK         0.0800 
    245 H245        0.0652  -20.7793  -54.3964 H         1 UNK         0.0800 
    246 H246        2.3012  -18.2882  -55.8443 H         1 UNK         0.0800 
    247 H247        2.0135  -19.8988  -55.2615 H         1 UNK         0.0800 
@<TRIPOS>BOND
     1    1    2 1    
     2    1  127 1    
     3    1  128 1    
     4    1  129 1    
     5    2    3 2    
     6    2    4 am   BACKBONE|DICT|INTERRES
     7    4    5 1    
     8    4  130 1    
     9    5    6 1    
    10    5   65 1    
    11    5  131 1    
    12    6    7 1    
    13    6  132 1    
    14    6  133 1    
    15    7    8 1    
    16    8    9 1    
    17    8  134 1    
    18    8  135 1    
    19    9   10 ar   
    20    9   14 ar   
    21   10   11 ar   
    22   10  136 1    
    23   11   12 ar   
    24   11  126 1    
    25   12   13 ar   
    26   12  137 1    
    27   13   14 ar   
    28   13   15 1    
    29   14  138 1    
    30   15   16 1    
    31   15  139 1    
    32   15  140 1    
    33   16   17 1    
    34   17   18 1    
    35   17  141 1    
    36   17  142 1    
    37   18   19 1    
    38   18   67 1    
    39   18  143 1    
    40   19   20 am   BACKBONE|DICT|INTERRES
    41   19  144 1    
    42   20   21 2    
    43   20   22 1    
    44   22   23 1    
    45   22   24 1    
    46   22  145 1    
    47   23  146 1    
    48   23  147 1    
    49   23  148 1    
    50   24   25 am   BACKBONE|DICT|INTERRES
    51   24  149 1    
    52   25   26 2    
    53   25   27 1    
    54   27   28 1    
    55   27   29 1    
    56   27  150 1    
    57   28  151 1    
    58   28  152 1    
    59   28  153 1    
    60   29   30 am   BACKBONE|DICT|INTERRES
    61   29  154 1    
    62   30   31 2    
    63   30   32 1    
    64   32   33 1    
    65   32   34 1    
    66   32  155 1    
    67   33  156 1    
    68   33  157 1    
    69   33  158 1    
    70   34   35 am   BACKBONE|DICT|INTERRES
    71   34  159 1    
    72   35   36 2    
    73   35   37 1    
    74   37   38 1    
    75   37   39 1    
    76   37  160 1    
    77   38  161 1    
    78   38  162 1    
    79   38  163 1    
    80   39   40 am   BACKBONE|DICT|INTERRES
    81   39  164 1    
    82   40   41 2    
    83   40   42 1    
    84   42   43 1    
    85   42   44 1    
    86   42  165 1    
    87   43  166 1    
    88   43  167 1    
    89   43  168 1    
    90   44   45 am   BACKBONE|DICT|INTERRES
    91   44  169 1    
    92   45   46 2    
    93   45   47 1    
    94   47   48 1    
    95   47   49 1    
    96   47  170 1    
    97   48  171 1    
    98   48  172 1    
    99   48  173 1    
   100   49   50 am   BACKBONE|DICT|INTERRES
   101   49  174 1    
   102   50   51 2    
   103   50   52 1    
   104   52   53 1    
   105   52   54 1    
   106   52  175 1    
   107   53  176 1    
   108   53  177 1    
   109   53  178 1    
   110   54   55 am   BACKBONE|DICT|INTERRES
   111   54  179 1    
   112   55   56 2    
   113   55   57 1    
   114   57   58 1    
   115   57   59 1    
   116   57  180 1    
   117   58  181 1    
   118   58  182 1    
   119   58  183 1    
   120   59   60 am   BACKBONE|DICT|INTERRES
   121   59  184 1    
   122   60   61 2    
   123   60   62 1    
   124   62   63 1    
   125   62   64 1    
   126   62  185 1    
   127   63  186 1    
   128   63  187 1    
   129   63  188 1    
   130   64   65 am   BACKBONE|DICT|INTERRES
   131   64  189 1    
   132   65   66 2    
   133   67   68 2    
   134   67   69 am   BACKBONE|DICT|INTERRES
   135   69   70 1    
   136   69  190 1    
   137   70   71 1    
   138   70   72 1    
   139   70  191 1    
   140   71  192 1    
   141   71  193 1    
   142   71  194 1    
   143   72   73 2    
   144   72   74 am   BACKBONE|DICT|INTERRES
   145   74   75 1    
   146   74  195 1    
   147   75   76 1    
   148   75   77 1    
   149   75  196 1    
   150   76  197 1    
   151   76  198 1    
   152   76  199 1    
   153   77   78 2    
   154   77   79 am   BACKBONE|DICT|INTERRES
   155   79   80 1    
   156   79  200 1    
   157   80   81 1    
   158   80   82 1    
   159   80  201 1    
   160   81  202 1    
   161   81  203 1    
   162   81  204 1    
   163   82   83 2    
   164   82   84 am   BACKBONE|DICT|INTERRES
   165   84   85 1    
   166   84  205 1    
   167   85   86 1    
   168   85   87 1    
   169   85  206 1    
   170   86  207 1    
   171   86  208 1    
   172   86  209 1    
   173   87   88 2    
   174   87   89 am   BACKBONE|DICT|INTERRES
   175   89   90 1    
   176   89  210 1    
   177   90   91 1    
   178   90   92 1    
   179   90  211 1    
   180   91  212 1    
   181   91  213 1    
   182   91  214 1    
   183   92   93 2    
   184   92   94 am   BACKBONE|DICT|INTERRES
   185   94   95 1    
   186   94  215 1    
   187   95   96 1    
   188   95   97 1    
   189   95  216 1    
   190   96  217 1    
   191   96  218 1    
   192   96  219 1    
   193   97   98 2    
   194   97   99 am   BACKBONE|DICT|INTERRES
   195   99  100 1    
   196   99  220 1    
   197  100  101 1    
   198  100  102 1    
   199  100  221 1    
   200  101  222 1    
   201  101  223 1    
   202  101  224 1    
   203  102  103 2    
   204  102  104 am   BACKBONE|DICT|INTERRES
   205  104  105 1    
   206  104  225 1    
   207  105  106 1    
   208  105  107 1    
   209  105  226 1    
   210  106  227 1    
   211  106  228 1    
   212  106  229 1    
   213  107  108 2    
   214  107  109 am   BACKBONE|DICT|INTERRES
   215  109  110 1    
   216  109  230 1    
   217  110  111 1    
   218  110  112 1    
   219  110  231 1    
   220  111  232 1    
   221  111  233 1    
   222  111  234 1    
   223  112  113 2    
   224  112  114 am   BACKBONE|DICT|INTERRES
   225  114  115 1    
   226  114  235 1    
   227  115  116 1    
   228  115  117 1    
   229  115  236 1    
   230  116  237 1    
   231  116  238 1    
   232  116  239 1    
   233  117  118 2    
   234  117  119 am   BACKBONE|DICT|INTERRES
   235  119  120 1    
   236  119  240 1    
   237  120  121 1    
   238  120  124 1    
   239  120  241 1    
   240  121  122 am   BACKBONE|DICT|INTERRES
   241  121  123 2    
   242  122  242 1    
   243  122  243 1    
   244  124  125 1    
   245  124  244 1    
   246  124  245 1    
   247  125  126 1    
   248  126  246 1    
   249  126  247 1    
@<TRIPOS>SUBSTRUCTURE
     1 UNK         1 GROUP             0       ****    0 ROOT    
