@<TRIPOS>MOLECULE
3R540
247   249    1
SMALL
USER_CHARGES


@<TRIPOS>ATOM
      1 CA         -3.5593   -9.2526  -49.5433 C.3       0 UNK        -0.1800 
      2 C          -3.1017  -10.6320  -49.9967 C.2       0 UNK         0.5000 
      3 O          -2.5615  -10.7674  -51.0949 O.2       0 UNK        -0.5000 
      4 N          -3.3243  -11.6526  -49.1603 N.am      1 UNK        -0.5000 
      5 CA         -2.9168  -13.0425  -49.3948 C.3       1 UNK         0.1400 
      6 C6         -3.6125  -14.0172  -48.4152 C.3       23 UNK        -0.0398 
      7 S7         -5.4239  -13.9854  -48.6319 S.3       23 UNK        -0.2404 
      8 C8         -6.0145  -14.1785  -46.9208 C.3       23 UNK        -0.0205 
      9 C9         -5.7979  -15.5873  -46.3856 C.ar      23 UNK        -0.0193 
     10 C10        -6.3257  -16.6876  -47.0675 C.ar      23 UNK        -0.1150 
     11 C11        -6.1452  -17.9818  -46.5765 C.ar      23 UNK        -0.0193 
     12 C12        -5.4697  -18.1692  -45.3679 C.ar      23 UNK        -0.1150 
     13 C13        -4.9466  -17.0788  -44.6658 C.ar      23 UNK        -0.0193 
     14 C14        -5.1040  -15.7907  -45.1889 C.ar      23 UNK        -0.1150 
     15 C15        -4.2590  -17.2779  -43.3200 C.3       23 UNK        -0.0205 
     16 S16        -2.6195  -18.0606  -43.4636 S.3       23 UNK        -0.2404 
     17 C17        -3.0354  -19.8359  -43.4518 C.3       23 UNK        -0.0398 
     18 CA         -2.6351  -20.5614  -44.7598 C.3       11 UNK         0.1400 
     19 N          -1.2019  -20.4425  -45.0548 N.am      11 UNK        -0.5000 
     20 C          -0.6232  -20.8076  -46.2075 C.2       10 UNK         0.5000 
     21 O          -1.2468  -21.2465  -47.1717 O.2       10 UNK        -0.5000 
     22 CA          0.9123  -20.7176  -46.2750 C.3       10 UNK         0.1400 
     23 CB          1.3671  -19.2947  -46.6137 C.3       10 UNK        -0.1800 
     24 N           1.5411  -21.1226  -45.0201 N.am      10 UNK        -0.5000 
     25 C           1.6084  -22.3870  -44.5799 C.2       9 UNK         0.5000 
     26 O           1.2214  -23.3582  -45.2292 O.2       9 UNK        -0.5000 
     27 CA          2.1704  -22.5975  -43.1587 C.3       9 UNK         0.1400 
     28 CB          3.6813  -22.8681  -43.2129 C.3       9 UNK        -0.1800 
     29 N           1.9208  -21.4648  -42.2631 N.am      9 UNK        -0.5000 
     30 C           0.7095  -21.0025  -41.9209 C.2       8 UNK         0.5000 
     31 O          -0.3393  -21.5398  -42.2739 O.2       8 UNK        -0.5000 
     32 CA          0.6507  -19.7086  -41.0840 C.3       8 UNK         0.1400 
     33 CB          0.2347  -20.0227  -39.6395 C.3       8 UNK        -0.1800 
     34 N           1.9126  -18.9620  -41.0678 N.am      8 UNK        -0.5000 
     35 C           2.4296  -18.3017  -42.1127 C.2       7 UNK         0.5000 
     36 O           1.8954  -18.2435  -43.2216 O.2       7 UNK        -0.5000 
     37 CA          3.8171  -17.6880  -41.8931 C.3       7 UNK         0.1400 
     38 CB          4.9113  -18.6441  -42.4020 C.3       7 UNK        -0.1800 
     39 N           3.9302  -16.4018  -42.5740 N.am      7 UNK        -0.5000 
     40 C           4.7503  -15.4170  -42.1819 C.2       6 UNK         0.5000 
     41 O           5.4748  -15.4899  -41.1879 O.2       6 UNK        -0.5000 
     42 CA          4.7754  -14.1323  -43.0247 C.3       6 UNK         0.1400 
     43 CB          5.7023  -14.2975  -44.2403 C.3       6 UNK        -0.1800 
     44 N           3.4387  -13.7532  -43.4771 N.am      6 UNK        -0.5000 
     45 C           2.6303  -12.9017  -42.8306 C.2       5 UNK         0.5000 
     46 O           2.9312  -12.3474  -41.7725 O.2       5 UNK        -0.5000 
     47 CA          1.2631  -12.5909  -43.4734 C.3       5 UNK         0.1400 
     48 CB          1.3128  -11.2445  -44.2123 C.3       5 UNK        -0.1800 
     49 N           0.8169  -13.6210  -44.4099 N.am      5 UNK        -0.5000 
     50 C           0.3262  -14.8142  -44.0507 C.2       4 UNK         0.5000 
     51 O           0.1414  -15.1533  -42.8819 O.2       4 UNK        -0.5000 
     52 CA          0.0087  -15.7939  -45.1964 C.3       4 UNK         0.1400 
     53 CB         -1.4203  -15.5598  -45.7088 C.3       4 UNK        -0.1800 
     54 N           0.9178  -15.6976  -46.3423 N.am      4 UNK        -0.5000 
     55 C           2.2537  -15.7762  -46.3380 C.2       3 UNK         0.5000 
     56 O           2.9142  -15.9428  -45.3140 O.2       3 UNK        -0.5000 
     57 CA          2.9968  -15.5784  -47.6796 C.3       3 UNK         0.1400 
     58 CB          3.5019  -16.9183  -48.2449 C.3       3 UNK        -0.1800 
     59 N           2.2773  -14.8123  -48.7120 N.am      3 UNK        -0.5000 
     60 C           1.1341  -15.1233  -49.3381 C.2       2 UNK         0.5000 
     61 O           0.4714  -16.1325  -49.0975 O.2       2 UNK        -0.5000 
     62 CA          0.6363  -14.1305  -50.3977 C.3       2 UNK         0.1400 
     63 CB          0.9476  -14.6410  -51.8126 C.3       2 UNK        -0.1800 
     64 N          -0.8032  -13.9200  -50.2707 N.am      2 UNK        -0.5000 
     65 C          -1.3810  -13.1709  -49.3257 C.2       1 UNK         0.5000 
     66 O          -0.7552  -12.5863  -48.4368 O.2       1 UNK        -0.5000 
     67 C          -3.0646  -22.0406  -44.6887 C.2       11 UNK         0.5000 
     68 O          -4.1118  -22.4059  -45.2252 O.2       11 UNK        -0.5000 
     69 N          -2.2166  -22.8694  -44.0613 N.am      12 UNK        -0.5000 
     70 CA         -2.3900  -24.3128  -43.8815 C.3       12 UNK         0.1400 
     71 CB         -1.2816  -24.8351  -42.9548 C.3       12 UNK        -0.1800 
     72 C          -2.4316  -25.1274  -45.1914 C.2       12 UNK         0.5000 
     73 O          -2.8638  -26.2803  -45.1619 O.2       12 UNK        -0.5000 
     74 N          -2.0191  -24.5239  -46.3167 N.am      13 UNK        -0.5000 
     75 CA         -2.1618  -25.0866  -47.6606 C.3       13 UNK         0.1400 
     76 CB         -1.3175  -24.2697  -48.6488 C.3       13 UNK        -0.1800 
     77 C          -3.6270  -25.1571  -48.1395 C.2       13 UNK         0.5000 
     78 O          -3.9084  -25.9119  -49.0692 O.2       13 UNK        -0.5000 
     79 N          -4.5262  -24.3838  -47.5068 N.am      14 UNK        -0.5000 
     80 CA         -5.9803  -24.3789  -47.7039 C.3       14 UNK         0.1400 
     81 CB         -6.5955  -25.6891  -47.1698 C.3       14 UNK        -0.1800 
     82 C          -6.4001  -24.0606  -49.1546 C.2       14 UNK         0.5000 
     83 O          -7.2692  -24.7313  -49.7147 O.2       14 UNK        -0.5000 
     84 N          -5.7580  -23.0328  -49.7277 N.am      15 UNK        -0.5000 
     85 CA         -5.9817  -22.4833  -51.0699 C.3       15 UNK         0.1400 
     86 CB         -7.4190  -21.9352  -51.2115 C.3       15 UNK        -0.1800 
     87 C          -5.5936  -23.4359  -52.2208 C.2       15 UNK         0.5000 
     88 O          -6.1188  -23.2961  -53.3272 O.2       15 UNK        -0.5000 
     89 N          -4.6664  -24.3698  -51.9620 N.am      16 UNK        -0.5000 
     90 CA         -4.0787  -25.2520  -52.9708 C.3       16 UNK         0.1400 
     91 CB         -3.1818  -26.2915  -52.2828 C.3       16 UNK        -0.1800 
     92 C          -3.2650  -24.4576  -54.0074 C.2       16 UNK         0.5000 
     93 O          -2.4710  -23.5935  -53.6255 O.2       16 UNK        -0.5000 
     94 N          -3.4447  -24.7886  -55.2925 N.am      17 UNK        -0.5000 
     95 CA         -2.8077  -24.1213  -56.4342 C.3       17 UNK         0.1400 
     96 CB         -3.4336  -24.6506  -57.7335 C.3       17 UNK        -0.1800 
     97 C          -1.2733  -24.2638  -56.4779 C.2       17 UNK         0.5000 
     98 O          -0.6070  -23.4361  -57.0993 O.2       17 UNK        -0.5000 
     99 N          -0.7400  -25.2926  -55.8041 N.am      18 UNK        -0.5000 
    100 CA         0.6938  -25.5092  -55.6085 C.3       18 UNK         0.1400 
    101 CB         0.9131  -26.9207  -55.0428 C.3       18 UNK        -0.1800 
    102 C          1.3410  -24.4530  -54.6897 C.2       18 UNK         0.5000 
    103 O          2.5253  -24.1577  -54.8550 O.2       18 UNK        -0.5000 
    104 N          0.5581  -23.9044  -53.7501 N.am      19 UNK        -0.5000 
    105 CA         0.9672  -22.8195  -52.8617 C.3       19 UNK         0.1400 
    106 CB         0.3601  -23.0423  -51.4669 C.3       19 UNK        -0.1800 
    107 C          0.5314  -21.4627  -53.4341 C.2       19 UNK         0.5000 
    108 O          1.3512  -20.5475  -53.5107 O.2       19 UNK        -0.5000 
    109 N         -0.7530  -21.3660  -53.8176 N.am      20 UNK        -0.5000 
    110 CA        -1.4386  -20.1818  -54.3525 C.3       20 UNK         0.1400 
    111 CB        -0.9093  -19.8403  -55.7604 C.3       20 UNK        -0.1800 
    112 C         -1.4187  -18.9713  -53.3897 C.2       20 UNK         0.5000 
    113 O         -1.3972  -17.8235  -53.8369 O.2       20 UNK        -0.5000 
    114 N         -1.4053  -19.2589  -52.0808 N.am      21 UNK        -0.5000 
    115 CA        -1.3093  -18.2804  -50.9999 C.3       21 UNK         0.1400 
    116 CB        -1.0026  -19.0243  -49.6901 C.3       21 UNK        -0.1800 
    117 C         -2.5821  -17.4300  -50.8610 C.2       21 UNK         0.5000 
    118 O         -2.5162  -16.2006  -50.9073 O.2       21 UNK        -0.5000 
    119 N         -3.7130  -18.1214  -50.6855 N.am      22 UNK        -0.5000 
    120 CA        -5.0429  -17.5424  -50.4690 C.3       22 UNK         0.1400 
    121 C         -5.5494  -16.7508  -51.7067 C.2       22 UNK         0.5000 
    122 N         -6.0192  -15.5247  -51.5269 N.am      22 UNK        -0.7600 
    123 O         -5.5619  -17.2624  -52.8240 O.2       22 UNK        -0.5000 
    124 C124       -6.0725  -18.6319  -50.0732 C.3       23 UNK        -0.0398 
    125 S125       -5.5457  -19.6844  -48.6699 S.3       23 UNK        -0.2404 
    126 C126       -6.6850  -19.1779  -47.3436 C.3       23 UNK        -0.0205 
    127 H127       -4.0305   -9.2841  -48.5605 H         1 UNK         0.0600 
    128 H128       -4.2794   -8.8441  -50.2522 H         1 UNK         0.0600 
    129 H129       -2.7081   -8.5737  -49.4905 H         1 UNK         0.0600 
    130 H130       -3.7648  -11.4741  -48.2699 H         1 UNK         0.3000 
    131 H131       -3.2285  -13.3098  -50.4075 H         1 UNK         0.0600 
    132 H132       -3.2702  -15.0418  -48.5707 H         1 UNK         0.0800 
    133 H133       -3.3653  -13.7612  -47.3843 H         1 UNK         0.0800 
    134 H134       -5.5337  -13.4340  -46.2844 H         1 UNK         0.0800 
    135 H135       -7.0826  -13.9592  -46.8943 H         1 UNK         0.0800 
    136 H136       -6.8705  -16.5345  -47.9879 H         1 UNK         0.1150 
    137 H137       -5.3603  -19.1681  -44.9748 H         1 UNK         0.1150 
    138 H138       -4.7076  -14.9418  -44.6498 H         1 UNK         0.1150 
    139 H139       -4.9014  -17.8599  -42.6581 H         1 UNK         0.0800 
    140 H140       -4.1250  -16.3145  -42.8258 H         1 UNK         0.0800 
    141 H141       -4.1012  -19.9609  -43.2581 H         1 UNK         0.0800 
    142 H142       -2.5365  -20.2812  -42.5911 H         1 UNK         0.0800 
    143 H143       -3.1792  -20.1021  -45.5879 H         1 UNK         0.0600 
    144 H144       -0.6192  -20.1112  -44.3008 H         1 UNK         0.3000 
    145 H145        1.2538  -21.3845  -47.0698 H         1 UNK         0.0600 
    146 H146        0.9312  -18.9487  -47.5496 H         1 UNK         0.0600 
    147 H147        2.4505  -19.2468  -46.7181 H         1 UNK         0.0600 
    148 H148        1.0776  -18.5902  -45.8360 H         1 UNK         0.0600 
    149 H149        1.8737  -20.3792  -44.4206 H         1 UNK         0.3000 
    150 H150        1.6786  -23.4740  -42.7330 H         1 UNK         0.0600 
    151 H151        4.2302  -22.0108  -43.6049 H         1 UNK         0.0600 
    152 H152        3.9022  -23.7214  -43.8556 H         1 UNK         0.0600 
    153 H153        4.0773  -23.0974  -42.2235 H         1 UNK         0.0600 
    154 H154        2.7310  -20.9734  -41.9181 H         1 UNK         0.3000 
    155 H155       -0.1158  -19.0706  -41.5295 H         1 UNK         0.0600 
    156 H156        0.9705  -20.6506  -39.1356 H         1 UNK         0.0600 
    157 H157       -0.7200  -20.5501  -39.6136 H         1 UNK         0.0600 
    158 H158        0.1145  -19.1096  -39.0561 H         1 UNK         0.0600 
    159 H159        2.4242  -18.9756  -40.1968 H         1 UNK         0.3000 
    160 H160        3.9509  -17.5367  -40.8196 H         1 UNK         0.0600 
    161 H161        4.8274  -18.8105  -43.4769 H         1 UNK         0.0600 
    162 H162        4.8459  -19.6159  -41.9115 H         1 UNK         0.0600 
    163 H163        5.9075  -18.2490  -42.2025 H         1 UNK         0.0600 
    164 H164        3.3659  -16.2951  -43.4139 H         1 UNK         0.3000 
    165 H165        5.1911  -13.3353  -42.4043 H         1 UNK         0.0600 
    166 H166        5.7420  -13.3833  -44.8326 H         1 UNK         0.0600 
    167 H167        6.7209  -14.5231  -43.9224 H         1 UNK         0.0600 
    168 H168        5.3798  -15.1073  -44.8947 H         1 UNK         0.0600 
    169 H169        3.0907  -14.2423  -44.2933 H         1 UNK         0.3000 
    170 H170        0.5300  -12.5107  -42.6679 H         1 UNK         0.0600 
    171 H171        0.3363  -10.9813  -44.6194 H         1 UNK         0.0600 
    172 H172        2.0267  -11.2638  -45.0368 H         1 UNK         0.0600 
    173 H173        1.6105  -10.4395  -43.5390 H         1 UNK         0.0600 
    174 H174        0.9221  -13.4220  -45.3942 H         1 UNK         0.3000 
    175 H175        0.0741  -16.8035  -44.7888 H         1 UNK         0.0600 
    176 H176       -2.1359  -15.5319  -44.8874 H         1 UNK         0.0600 
    177 H177       -1.4979  -14.6100  -46.2375 H         1 UNK         0.0600 
    178 H178       -1.7335  -16.3528  -46.3887 H         1 UNK         0.0600 
    179 H179        0.4809  -15.6472  -47.2570 H         1 UNK         0.3000 
    180 H180        3.8776  -14.9815  -47.4374 H         1 UNK         0.0600 
    181 H181        2.6836  -17.5575  -48.5748 H         1 UNK         0.0600 
    182 H182        4.0701  -17.4705  -47.4951 H         1 UNK         0.0600 
    183 H183        4.1617  -16.7590  -49.0976 H         1 UNK         0.0600 
    184 H184        2.7201  -13.9396  -48.9647 H         1 UNK         0.3000 
    185 H185        1.1427  -13.1729  -50.2585 H         1 UNK         0.0600 
    186 H186        2.0164  -14.8180  -51.9389 H         1 UNK         0.0600 
    187 H187        0.4314  -15.5769  -52.0282 H         1 UNK         0.0600 
    188 H188        0.6470  -13.9141  -52.5674 H         1 UNK         0.0600 
    189 H189       -1.3944  -14.4953  -50.8620 H         1 UNK         0.3000 
    190 H190       -1.4041  -22.4600  -43.6087 H         1 UNK         0.3000 
    191 H191       -3.3490  -24.4633  -43.3820 H         1 UNK         0.0600 
    192 H192       -1.2638  -24.2912  -42.0100 H         1 UNK         0.0600 
    193 H193       -1.4330  -25.8893  -42.7196 H         1 UNK         0.0600 
    194 H194       -0.2988  -24.7419  -43.4159 H         1 UNK         0.0600 
    195 H195       -1.6645  -23.5791  -46.2567 H         1 UNK         0.3000 
    196 H196       -1.7713  -26.1061  -47.6420 H         1 UNK         0.0600 
    197 H197       -0.2845  -24.1786  -48.3122 H         1 UNK         0.0600 
    198 H198       -1.7172  -23.2650  -48.7879 H         1 UNK         0.0600 
    199 H199       -1.3007  -24.7511  -49.6269 H         1 UNK         0.0600 
    200 H200       -4.1933  -23.7731  -46.7673 H         1 UNK         0.3000 
    201 H201       -6.3665  -23.5627  -47.0914 H         1 UNK         0.0600 
    202 H202       -7.6850  -25.6499  -47.1964 H         1 UNK         0.0600 
    203 H203       -6.3030  -25.8674  -46.1349 H         1 UNK         0.0600 
    204 H204       -6.2839  -26.5522  -47.7591 H         1 UNK         0.0600 
    205 H205       -5.0587  -22.5562  -49.1752 H         1 UNK         0.3000 
    206 H206       -5.3017  -21.6351  -51.1558 H         1 UNK         0.0600 
    207 H207       -7.6863  -21.2964  -50.3699 H         1 UNK         0.0600 
    208 H208       -7.5217  -21.3371  -52.1176 H         1 UNK         0.0600 
    209 H209       -8.1551  -22.7374  -51.2674 H         1 UNK         0.0600 
    210 H210       -4.3033  -24.4503  -51.0228 H         1 UNK         0.3000 
    211 H211       -4.8913  -25.7759  -53.4782 H         1 UNK         0.0600 
    212 H212       -2.3815  -25.8189  -51.7116 H         1 UNK         0.0600 
    213 H213       -2.7173  -26.9558  -53.0125 H         1 UNK         0.0600 
    214 H214       -3.7577  -26.9160  -51.5999 H         1 UNK         0.0600 
    215 H215       -4.1068  -25.5170  -55.5188 H         1 UNK         0.3000 
    216 H216       -3.0280  -23.0543  -56.3585 H         1 UNK         0.0600 
    217 H217       -3.2682  -25.7221  -57.8521 H         1 UNK         0.0600 
    218 H218       -3.0053  -24.1538  -58.6052 H         1 UNK         0.0600 
    219 H219       -4.5087  -24.4709  -57.7559 H         1 UNK         0.0600 
    220 H220       -1.3654  -25.9368  -55.3438 H         1 UNK         0.3000 
    221 H221        1.1850  -25.4490  -56.5821 H         1 UNK         0.0600 
    222 H222        0.4274  -27.0466  -54.0742 H         1 UNK         0.0600 
    223 H223        0.5209  -27.6818  -55.7176 H         1 UNK         0.0600 
    224 H224        1.9758  -27.1256  -54.9063 H         1 UNK         0.0600 
    225 H225       -0.4193  -24.1651  -53.7196 H         1 UNK         0.3000 
    226 H226        2.0539  -22.8087  -52.7537 H         1 UNK         0.0600 
    227 H227        0.7218  -23.9729  -51.0294 H         1 UNK         0.0600 
    228 H228        0.6347  -22.2357  -50.7857 H         1 UNK         0.0600 
    229 H229       -0.7290  -23.0898  -51.4977 H         1 UNK         0.0600 
    230 H230       -1.3467  -22.1863  -53.7058 H         1 UNK         0.3000 
    231 H231       -2.4873  -20.4639  -54.4569 H         1 UNK         0.0600 
    232 H232        0.1246  -19.4954  -55.7310 H         1 UNK         0.0600 
    233 H233       -1.5046  -19.0526  -56.2235 H         1 UNK         0.0600 
    234 H234       -0.9544  -20.7079  -56.4186 H         1 UNK         0.0600 
    235 H235       -1.4141  -20.2309  -51.8123 H         1 UNK         0.3000 
    236 H236       -0.4762  -17.6096  -51.2150 H         1 UNK         0.0600 
    237 H237       -1.7405  -19.7983  -49.4766 H         1 UNK         0.0600 
    238 H238       -0.0228  -19.5000  -49.7301 H         1 UNK         0.0600 
    239 H239       -1.0005  -18.3394  -48.8414 H         1 UNK         0.0600 
    240 H240       -3.6657  -19.1278  -50.6715 H         1 UNK         0.3000 
    241 H241       -4.9494  -16.8501  -49.6312 H         1 UNK         0.0600 
    242 H242       -6.3652  -15.0133  -52.3235 H         1 UNK         0.3800 
    243 H243       -5.9996  -15.0773  -50.6212 H         1 UNK         0.3800 
    244 H244       -6.2573  -19.2904  -50.9226 H         1 UNK         0.0800 
    245 H245       -7.0349  -18.1726  -49.8438 H         1 UNK         0.0800 
    246 H246       -7.6744  -18.9595  -47.7475 H         1 UNK         0.0800 
    247 H247       -6.8191  -20.0228  -46.6663 H         1 UNK         0.0800 
@<TRIPOS>BOND
     1    1    2 1    
     2    1  127 1    
     3    1  128 1    
     4    1  129 1    
     5    2    3 2    
     6    2    4 am   BACKBONE|DICT|INTERRES
     7    4    5 1    
     8    4  130 1    
     9    5    6 1    
    10    5   65 1    
    11    5  131 1    
    12    6    7 1    
    13    6  132 1    
    14    6  133 1    
    15    7    8 1    
    16    8    9 1    
    17    8  134 1    
    18    8  135 1    
    19    9   10 ar   
    20    9   14 ar   
    21   10   11 ar   
    22   10  136 1    
    23   11   12 ar   
    24   11  126 1    
    25   12   13 ar   
    26   12  137 1    
    27   13   14 ar   
    28   13   15 1    
    29   14  138 1    
    30   15   16 1    
    31   15  139 1    
    32   15  140 1    
    33   16   17 1    
    34   17   18 1    
    35   17  141 1    
    36   17  142 1    
    37   18   19 1    
    38   18   67 1    
    39   18  143 1    
    40   19   20 am   BACKBONE|DICT|INTERRES
    41   19  144 1    
    42   20   21 2    
    43   20   22 1    
    44   22   23 1    
    45   22   24 1    
    46   22  145 1    
    47   23  146 1    
    48   23  147 1    
    49   23  148 1    
    50   24   25 am   BACKBONE|DICT|INTERRES
    51   24  149 1    
    52   25   26 2    
    53   25   27 1    
    54   27   28 1    
    55   27   29 1    
    56   27  150 1    
    57   28  151 1    
    58   28  152 1    
    59   28  153 1    
    60   29   30 am   BACKBONE|DICT|INTERRES
    61   29  154 1    
    62   30   31 2    
    63   30   32 1    
    64   32   33 1    
    65   32   34 1    
    66   32  155 1    
    67   33  156 1    
    68   33  157 1    
    69   33  158 1    
    70   34   35 am   BACKBONE|DICT|INTERRES
    71   34  159 1    
    72   35   36 2    
    73   35   37 1    
    74   37   38 1    
    75   37   39 1    
    76   37  160 1    
    77   38  161 1    
    78   38  162 1    
    79   38  163 1    
    80   39   40 am   BACKBONE|DICT|INTERRES
    81   39  164 1    
    82   40   41 2    
    83   40   42 1    
    84   42   43 1    
    85   42   44 1    
    86   42  165 1    
    87   43  166 1    
    88   43  167 1    
    89   43  168 1    
    90   44   45 am   BACKBONE|DICT|INTERRES
    91   44  169 1    
    92   45   46 2    
    93   45   47 1    
    94   47   48 1    
    95   47   49 1    
    96   47  170 1    
    97   48  171 1    
    98   48  172 1    
    99   48  173 1    
   100   49   50 am   BACKBONE|DICT|INTERRES
   101   49  174 1    
   102   50   51 2    
   103   50   52 1    
   104   52   53 1    
   105   52   54 1    
   106   52  175 1    
   107   53  176 1    
   108   53  177 1    
   109   53  178 1    
   110   54   55 am   BACKBONE|DICT|INTERRES
   111   54  179 1    
   112   55   56 2    
   113   55   57 1    
   114   57   58 1    
   115   57   59 1    
   116   57  180 1    
   117   58  181 1    
   118   58  182 1    
   119   58  183 1    
   120   59   60 am   BACKBONE|DICT|INTERRES
   121   59  184 1    
   122   60   61 2    
   123   60   62 1    
   124   62   63 1    
   125   62   64 1    
   126   62  185 1    
   127   63  186 1    
   128   63  187 1    
   129   63  188 1    
   130   64   65 am   BACKBONE|DICT|INTERRES
   131   64  189 1    
   132   65   66 2    
   133   67   68 2    
   134   67   69 am   BACKBONE|DICT|INTERRES
   135   69   70 1    
   136   69  190 1    
   137   70   71 1    
   138   70   72 1    
   139   70  191 1    
   140   71  192 1    
   141   71  193 1    
   142   71  194 1    
   143   72   73 2    
   144   72   74 am   BACKBONE|DICT|INTERRES
   145   74   75 1    
   146   74  195 1    
   147   75   76 1    
   148   75   77 1    
   149   75  196 1    
   150   76  197 1    
   151   76  198 1    
   152   76  199 1    
   153   77   78 2    
   154   77   79 am   BACKBONE|DICT|INTERRES
   155   79   80 1    
   156   79  200 1    
   157   80   81 1    
   158   80   82 1    
   159   80  201 1    
   160   81  202 1    
   161   81  203 1    
   162   81  204 1    
   163   82   83 2    
   164   82   84 am   BACKBONE|DICT|INTERRES
   165   84   85 1    
   166   84  205 1    
   167   85   86 1    
   168   85   87 1    
   169   85  206 1    
   170   86  207 1    
   171   86  208 1    
   172   86  209 1    
   173   87   88 2    
   174   87   89 am   BACKBONE|DICT|INTERRES
   175   89   90 1    
   176   89  210 1    
   177   90   91 1    
   178   90   92 1    
   179   90  211 1    
   180   91  212 1    
   181   91  213 1    
   182   91  214 1    
   183   92   93 2    
   184   92   94 am   BACKBONE|DICT|INTERRES
   185   94   95 1    
   186   94  215 1    
   187   95   96 1    
   188   95   97 1    
   189   95  216 1    
   190   96  217 1    
   191   96  218 1    
   192   96  219 1    
   193   97   98 2    
   194   97   99 am   BACKBONE|DICT|INTERRES
   195   99  100 1    
   196   99  220 1    
   197  100  101 1    
   198  100  102 1    
   199  100  221 1    
   200  101  222 1    
   201  101  223 1    
   202  101  224 1    
   203  102  103 2    
   204  102  104 am   BACKBONE|DICT|INTERRES
   205  104  105 1    
   206  104  225 1    
   207  105  106 1    
   208  105  107 1    
   209  105  226 1    
   210  106  227 1    
   211  106  228 1    
   212  106  229 1    
   213  107  108 2    
   214  107  109 am   BACKBONE|DICT|INTERRES
   215  109  110 1    
   216  109  230 1    
   217  110  111 1    
   218  110  112 1    
   219  110  231 1    
   220  111  232 1    
   221  111  233 1    
   222  111  234 1    
   223  112  113 2    
   224  112  114 am   BACKBONE|DICT|INTERRES
   225  114  115 1    
   226  114  235 1    
   227  115  116 1    
   228  115  117 1    
   229  115  236 1    
   230  116  237 1    
   231  116  238 1    
   232  116  239 1    
   233  117  118 2    
   234  117  119 am   BACKBONE|DICT|INTERRES
   235  119  120 1    
   236  119  240 1    
   237  120  121 1    
   238  120  124 1    
   239  120  241 1    
   240  121  122 am   BACKBONE|DICT|INTERRES
   241  121  123 2    
   242  122  242 1    
   243  122  243 1    
   244  124  125 1    
   245  124  244 1    
   246  124  245 1    
   247  125  126 1    
   248  126  246 1    
   249  126  247 1    
@<TRIPOS>SUBSTRUCTURE
     1 UNK         1 GROUP             0       ****    0 ROOT    
