@<TRIPOS>MOLECULE
3R540
247   249    1
SMALL
USER_CHARGES


@<TRIPOS>ATOM
      1 CA         -0.3898   -9.9168  -49.2684 C.3       0 UNK        -0.1800 
      2 C           0.4351  -10.5239  -48.1428 C.2       0 UNK         0.5000 
      3 O           0.1180  -10.3125  -46.9723 O.2       0 UNK        -0.5000 
      4 N           1.5034  -11.2544  -48.4961 N.am      1 UNK        -0.5000 
      5 CA          2.3997  -12.0024  -47.5967 C.3       1 UNK         0.1400 
      6 C6          1.7059  -13.2168  -46.9223 C.3       23 UNK        -0.0398 
      7 S7          1.1344  -14.4742  -48.1120 S.3       23 UNK        -0.2404 
      8 C8          2.6679  -15.4352  -48.3070 C.3       23 UNK        -0.0205 
      9 C9          2.4357  -16.7250  -49.0757 C.ar      23 UNK        -0.0193 
     10 C10         2.2395  -16.7000  -50.4579 C.ar      23 UNK        -0.1150 
     11 C11         2.0398  -17.8880  -51.1665 C.ar      23 UNK        -0.0193 
     12 C12         2.0412  -19.1076  -50.4816 C.ar      23 UNK        -0.1150 
     13 C13         2.2486  -19.1506  -49.0950 C.ar      23 UNK        -0.0193 
     14 C14         2.4443  -17.9501  -48.4061 C.ar      23 UNK        -0.1150 
     15 C15         2.2796  -20.4463  -48.2806 C.3       23 UNK        -0.0205 
     16 S16         2.2073  -22.0035  -49.2292 S.3       23 UNK        -0.2404 
     17 C17         0.4184  -22.1788  -49.5411 C.3       23 UNK        -0.0398 
     18 CA         -0.2122  -23.2208  -48.5887 C.3       11 UNK         0.1400 
     19 N          -0.2815  -22.7462  -47.2054 N.am      11 UNK        -0.5000 
     20 C          -0.4286  -23.5392  -46.1367 C.2       10 UNK         0.5000 
     21 O          -0.5038  -24.7660  -46.2000 O.2       10 UNK        -0.5000 
     22 CA         -0.5536  -22.8341  -44.7735 C.3       10 UNK         0.1400 
     23 CB          0.8330  -22.4547  -44.2323 C.3       10 UNK        -0.1800 
     24 N          -1.3911  -21.6351  -44.8372 N.am      10 UNK        -0.5000 
     25 C          -2.7059  -21.6454  -45.0994 C.2       9 UNK         0.5000 
     26 O          -3.3590  -22.6736  -45.2707 O.2       9 UNK        -0.5000 
     27 CA         -3.3986  -20.2772  -45.2469 C.3       9 UNK         0.1400 
     28 CB         -3.8872  -19.7722  -43.8814 C.3       9 UNK        -0.1800 
     29 N          -2.5576  -19.2493  -45.8652 N.am      9 UNK        -0.5000 
     30 C          -1.9668  -19.3360  -47.0660 C.2       8 UNK         0.5000 
     31 O          -2.0587  -20.3213  -47.7970 O.2       8 UNK        -0.5000 
     32 CA         -1.1146  -18.1408  -47.5271 C.3       8 UNK         0.1400 
     33 CB         -1.7300  -17.4788  -48.7646 C.3       8 UNK        -0.1800 
     34 N          -0.9097  -17.1283  -46.4894 N.am      8 UNK        -0.5000 
     35 C          -0.0201  -17.2319  -45.4956 C.2       7 UNK         0.5000 
     36 O           0.7170  -18.2066  -45.3262 O.2       7 UNK        -0.5000 
     37 CA          0.0177  -16.0659  -44.5028 C.3       7 UNK         0.1400 
     38 CB         -0.9701  -16.2986  -43.3460 C.3       7 UNK        -0.1800 
     39 N           1.3727  -15.9271  -43.9802 N.am      7 UNK        -0.5000 
     40 C           1.9156  -14.7694  -43.5927 C.2       6 UNK         0.5000 
     41 O           1.2964  -13.7037  -43.5760 O.2       6 UNK        -0.5000 
     42 CA          3.3941  -14.7983  -43.1747 C.3       6 UNK         0.1400 
     43 CB          4.3129  -15.2232  -44.3392 C.3       6 UNK        -0.1800 
     44 N           3.7710  -13.4700  -42.7013 N.am      6 UNK        -0.5000 
     45 C           4.8288  -13.1728  -41.9416 C.2       5 UNK         0.5000 
     46 O           5.6384  -14.0105  -41.5405 O.2       5 UNK        -0.5000 
     47 CA          5.0222  -11.6919  -41.5575 C.3       5 UNK         0.1400 
     48 CB          5.9147  -10.9903  -42.5887 C.3       5 UNK        -0.1800 
     49 N           3.7751  -10.9342  -41.4099 N.am      5 UNK        -0.5000 
     50 C           2.8700  -11.1496  -40.4436 C.2       4 UNK         0.5000 
     51 O           2.9631  -12.0622  -39.6212 O.2       4 UNK        -0.5000 
     52 CA          1.6821  -10.1730  -40.3341 C.3       4 UNK         0.1400 
     53 CB          1.8123   -9.3110  -39.0674 C.3       4 UNK        -0.1800 
     54 N           1.5403   -9.2800  -41.4844 N.am      4 UNK        -0.5000 
     55 C           0.9200   -9.5980  -42.6264 C.2       3 UNK         0.5000 
     56 O           0.4308  -10.7039  -42.8499 O.2       3 UNK        -0.5000 
     57 CA          0.7922   -8.4913  -43.6909 C.3       3 UNK         0.1400 
     58 CB          0.8421   -7.0577  -43.1147 C.3       3 UNK        -0.1800 
     59 N           1.7619   -8.6507  -44.7744 N.am      3 UNK        -0.5000 
     60 C           3.1006   -8.6214  -44.6903 C.2       2 UNK         0.5000 
     61 O           3.7234   -8.4933  -43.6338 O.2       2 UNK        -0.5000 
     62 CA          3.8483   -8.7588  -46.0362 C.3       2 UNK         0.1400 
     63 CB          5.3771   -8.9097  -45.8983 C.3       2 UNK        -0.1800 
     64 N           3.2908   -9.8158  -46.8871 N.am      2 UNK        -0.5000 
     65 C           3.1412  -11.1118  -46.5682 C.2       1 UNK         0.5000 
     66 O           3.5629  -11.6057  -45.5215 O.2       1 UNK        -0.5000 
     67 C          -1.5956  -23.6837  -49.0787 C.2       11 UNK         0.5000 
     68 O          -1.6831  -24.7167  -49.7412 O.2       11 UNK        -0.5000 
     69 N          -2.6573  -22.9601  -48.6969 N.am      12 UNK        -0.5000 
     70 CA         -4.0484  -23.3296  -48.9564 C.3       12 UNK         0.1400 
     71 CB         -4.9788  -22.2114  -48.4668 C.3       12 UNK        -0.1800 
     72 C          -4.4299  -24.6769  -48.3136 C.2       12 UNK         0.5000 
     73 O          -5.0515  -25.5093  -48.9749 O.2       12 UNK        -0.5000 
     74 N          -4.0086  -24.8807  -47.0570 N.am      13 UNK        -0.5000 
     75 CA         -4.1742  -26.1283  -46.3121 C.3       13 UNK         0.1400 
     76 CB         -3.7885  -25.9079  -44.8419 C.3       13 UNK        -0.1800 
     77 C          -3.3733  -27.2953  -46.9162 C.2       13 UNK         0.5000 
     78 O          -3.8985  -28.4059  -46.9909 O.2       13 UNK        -0.5000 
     79 N          -2.1384  -27.0237  -47.3649 N.am      14 UNK        -0.5000 
     80 CA         -1.2750  -27.9906  -48.0491 C.3       14 UNK         0.1400 
     81 CB          0.1415  -27.4141  -48.1916 C.3       14 UNK        -0.1800 
     82 C          -1.8308  -28.4203  -49.4201 C.2       14 UNK         0.5000 
     83 O          -1.7516  -29.6002  -49.7643 O.2       14 UNK        -0.5000 
     84 N          -2.4109  -27.4652  -50.1611 N.am      15 UNK        -0.5000 
     85 CA         -3.1143  -27.6990  -51.4240 C.3       15 UNK         0.1400 
     86 CB         -3.3492  -26.3524  -52.1276 C.3       15 UNK        -0.1800 
     87 C          -4.4504  -28.4463  -51.2446 C.2       15 UNK         0.5000 
     88 O          -4.9205  -29.0733  -52.1943 O.2       15 UNK        -0.5000 
     89 N          -5.0487  -28.3394  -50.0485 N.am      16 UNK        -0.5000 
     90 CA         -6.3046  -28.9285  -49.5620 C.3       16 UNK         0.1400 
     91 CB         -6.2730  -30.4663  -49.6342 C.3       16 UNK        -0.1800 
     92 C          -7.5709  -28.3597  -50.2305 C.2       16 UNK         0.5000 
     93 O          -8.5480  -28.0727  -49.5390 O.2       16 UNK        -0.5000 
     94 N          -7.5196  -28.1673  -51.5524 N.am      17 UNK        -0.5000 
     95 CA         -8.5499  -27.5313  -52.3739 C.3       17 UNK         0.1400 
     96 CB         -8.3864  -28.0318  -53.8188 C.3       17 UNK        -0.1800 
     97 C          -8.4964  -25.9888  -52.3249 C.2       17 UNK         0.5000 
     98 O          -9.3203  -25.3421  -52.9722 O.2       17 UNK        -0.5000 
     99 N          -7.5177  -25.4297  -51.5938 N.am      18 UNK        -0.5000 
    100 CA        -7.2121  -24.0012  -51.4518 C.3       18 UNK         0.1400 
    101 CB        -8.3750  -23.2366  -50.7866 C.3       18 UNK        -0.1800 
    102 C         -6.7240  -23.3466  -52.7615 C.2       18 UNK         0.5000 
    103 O         -6.8669  -22.1374  -52.9399 O.2       18 UNK        -0.5000 
    104 N         -6.1214  -24.1518  -53.6485 N.am      19 UNK        -0.5000 
    105 CA        -5.5909  -23.7224  -54.9457 C.3       19 UNK         0.1400 
    106 CB        -5.2391  -24.9668  -55.7751 C.3       19 UNK        -0.1800 
    107 C         -4.3724  -22.7836  -54.8350 C.2       19 UNK         0.5000 
    108 O         -4.1402  -21.9847  -55.7423 O.2       19 UNK        -0.5000 
    109 N         -3.6327  -22.8879  -53.7232 N.am      20 UNK        -0.5000 
    110 CA        -2.4554  -22.0787  -53.4059 C.3       20 UNK         0.1400 
    111 CB        -1.2994  -23.0142  -53.0170 C.3       20 UNK        -0.1800 
    112 C         -2.7560  -21.0283  -52.3170 C.2       20 UNK         0.5000 
    113 O         -1.8442  -20.6081  -51.6040 O.2       20 UNK        -0.5000 
    114 N         -4.0219  -20.5990  -52.2079 N.am      21 UNK        -0.5000 
    115 CA        -4.4570  -19.4813  -51.3687 C.3       21 UNK         0.1400 
    116 CB        -5.9613  -19.6249  -51.0777 C.3       21 UNK        -0.1800 
    117 C         -4.1160  -18.1380  -52.0473 C.2       21 UNK         0.5000 
    118 O         -5.0035  -17.4607  -52.5695 O.2       21 UNK        -0.5000 
    119 N         -2.8188  -17.8169  -52.0732 N.am      22 UNK        -0.5000 
    120 CA        -2.2190  -16.6090  -52.6601 C.3       22 UNK         0.1400 
    121 C         -2.8076  -15.2784  -52.1088 C.2       22 UNK         0.5000 
    122 N         -2.9543  -14.2640  -52.9505 N.am      22 UNK        -0.7600 
    123 O         -3.0883  -15.1419  -50.9204 O.2       22 UNK        -0.5000 
    124 C124       -0.6795  -16.6131  -52.4852 C.3       23 UNK        -0.0398 
    125 S125        0.1123  -18.1109  -53.1651 S.3       23 UNK        -0.2404 
    126 C126        1.8470  -17.8550  -52.6765 C.3       23 UNK        -0.0205 
    127 H127       -1.4166  -10.2788  -49.2163 H         1 UNK         0.0600 
    128 H128       -0.4050   -8.8306  -49.1792 H         1 UNK         0.0600 
    129 H129        0.0111  -10.1726  -50.2495 H         1 UNK         0.0600 
    130 H130        1.7036  -11.3681  -49.4801 H         1 UNK         0.3000 
    131 H131        3.1923  -12.3949  -48.2349 H         1 UNK         0.0600 
    132 H132        0.8541  -12.8883  -46.3248 H         1 UNK         0.0800 
    133 H133        2.3789  -13.7127  -46.2257 H         1 UNK         0.0800 
    134 H134        3.4116  -14.8315  -48.8286 H         1 UNK         0.0800 
    135 H135        3.0860  -15.6587  -47.3243 H         1 UNK         0.0800 
    136 H136        2.2406  -15.7532  -50.9795 H         1 UNK         0.1150 
    137 H137        1.8823  -20.0146  -51.0455 H         1 UNK         0.1150 
    138 H138        2.6021  -17.9716  -47.3366 H         1 UNK         0.1150 
    139 H139        3.2069  -20.4619  -47.7061 H         1 UNK         0.0800 
    140 H140        1.4725  -20.4304  -47.5476 H         1 UNK         0.0800 
    141 H141        0.3101  -22.4939  -50.5792 H         1 UNK         0.0800 
    142 H142       -0.0823  -21.2118  -49.4657 H         1 UNK         0.0800 
    143 H143        0.4271  -24.1062  -48.6028 H         1 UNK         0.0600 
    144 H144       -0.3159  -21.7464  -47.0756 H         1 UNK         0.3000 
    145 H145       -1.0151  -23.5360  -44.0756 H         1 UNK         0.0600 
    146 H146        0.7619  -22.0273  -43.2320 H         1 UNK         0.0600 
    147 H147        1.4790  -23.3311  -44.1654 H         1 UNK         0.0600 
    148 H148        1.3320  -21.7264  -44.8733 H         1 UNK         0.0600 
    149 H149       -0.9292  -20.7453  -44.7161 H         1 UNK         0.3000 
    150 H150       -4.2690  -20.4162  -45.8902 H         1 UNK         0.0600 
    151 H151       -4.5325  -20.5088  -43.4006 H         1 UNK         0.0600 
    152 H152       -4.4656  -18.8538  -43.9837 H         1 UNK         0.0600 
    153 H153       -3.0556  -19.5720  -43.2045 H         1 UNK         0.0600 
    154 H154       -2.4271  -18.3991  -45.3390 H         1 UNK         0.3000 
    155 H155       -0.1462  -18.5444  -47.8164 H         1 UNK         0.0600 
    156 H156       -2.7338  -17.0994  -48.5702 H         1 UNK         0.0600 
    157 H157       -1.7967  -18.1959  -49.5822 H         1 UNK         0.0600 
    158 H158       -1.1163  -16.6478  -49.1125 H         1 UNK         0.0600 
    159 H159       -1.4760  -16.2949  -46.5618 H         1 UNK         0.3000 
    160 H160       -0.2615  -15.1561  -45.0396 H         1 UNK         0.0600 
    161 H161       -1.9908  -16.4050  -43.7150 H         1 UNK         0.0600 
    162 H162       -0.9648  -15.4606  -42.6488 H         1 UNK         0.0600 
    163 H163       -0.7256  -17.2017  -42.7851 H         1 UNK         0.0600 
    164 H164        1.9268  -16.7735  -44.0155 H         1 UNK         0.3000 
    165 H165        3.4907  -15.5109  -42.3532 H         1 UNK         0.0600 
    166 H166        5.3453  -15.3315  -44.0068 H         1 UNK         0.0600 
    167 H167        4.0134  -16.1832  -44.7604 H         1 UNK         0.0600 
    168 H168        4.3039  -14.4897  -45.1456 H         1 UNK         0.0600 
    169 H169        3.1250  -12.7365  -42.9715 H         1 UNK         0.3000 
    170 H170        5.5379  -11.6686  -40.5953 H         1 UNK         0.0600 
    171 H171        5.4531  -11.0109  -43.5745 H         1 UNK         0.0600 
    172 H172        6.0951   -9.9490  -42.3210 H         1 UNK         0.0600 
    173 H173        6.8847  -11.4824  -42.6691 H         1 UNK         0.0600 
    174 H174        3.6287  -10.1654  -42.0531 H         1 UNK         0.3000 
    175 H175        0.7762  -10.7757  -40.2392 H         1 UNK         0.0600 
    176 H176        2.7045   -8.6842  -39.0975 H         1 UNK         0.0600 
    177 H177        0.9473   -8.6592  -38.9429 H         1 UNK         0.0600 
    178 H178        1.8782   -9.9330  -38.1737 H         1 UNK         0.0600 
    179 H179        1.9454   -8.3589  -41.3978 H         1 UNK         0.3000 
    180 H180       -0.1916   -8.6217  -44.1446 H         1 UNK         0.0600 
    181 H181        1.8185   -6.8051  -42.7007 H         1 UNK         0.0600 
    182 H182        0.1032   -6.9286  -42.3228 H         1 UNK         0.0600 
    183 H183        0.6149   -6.3227  -43.8869 H         1 UNK         0.0600 
    184 H184        1.3548   -8.8745  -45.6742 H         1 UNK         0.3000 
    185 H185        3.6690   -7.8193  -46.5610 H         1 UNK         0.0600 
    186 H186        5.7972   -8.1303  -45.2615 H         1 UNK         0.0600 
    187 H187        5.6584   -9.8709  -45.4737 H         1 UNK         0.0600 
    188 H188        5.8634   -8.8272  -46.8701 H         1 UNK         0.0600 
    189 H189        2.9117   -9.5121  -47.7730 H         1 UNK         0.3000 
    190 H190       -2.4962  -22.0839  -48.2058 H         1 UNK         0.3000 
    191 H191       -4.1596  -23.4223  -50.0381 H         1 UNK         0.0600 
    192 H192       -4.9902  -22.1433  -47.3796 H         1 UNK         0.0600 
    193 H193       -6.0049  -22.3871  -48.7904 H         1 UNK         0.0600 
    194 H194       -4.6701  -21.2415  -48.8542 H         1 UNK         0.0600 
    195 H195       -3.5574  -24.1169  -46.5618 H         1 UNK         0.3000 
    196 H196       -5.2314  -26.3994  -46.3477 H         1 UNK         0.0600 
    197 H197       -2.7504  -25.5897  -44.7407 H         1 UNK         0.0600 
    198 H198       -3.9104  -26.8243  -44.2632 H         1 UNK         0.0600 
    199 H199       -4.4172  -25.1462  -44.3805 H         1 UNK         0.0600 
    200 H200       -1.7538  -26.0978  -47.2134 H         1 UNK         0.3000 
    201 H201       -1.2136  -28.8829  -47.4226 H         1 UNK         0.0600 
    202 H202        0.5643  -27.1601  -47.2195 H         1 UNK         0.0600 
    203 H203        0.1512  -26.5151  -48.8073 H         1 UNK         0.0600 
    204 H204        0.8111  -28.1374  -48.6584 H         1 UNK         0.0600 
    205 H205       -2.3533  -26.5008  -49.8439 H         1 UNK         0.3000 
    206 H206       -2.4767  -28.3131  -52.0630 H         1 UNK         0.0600 
    207 H207       -2.4038  -25.8541  -52.3410 H         1 UNK         0.0600 
    208 H208       -3.8632  -26.4927  -53.0789 H         1 UNK         0.0600 
    209 H209       -3.9535  -25.6793  -51.5191 H         1 UNK         0.0600 
    210 H210       -4.5957  -27.7294  -49.3796 H         1 UNK         0.3000 
    211 H211       -6.3613  -28.6536  -48.5075 H         1 UNK         0.0600 
    212 H212       -6.2398  -30.8282  -50.6621 H         1 UNK         0.0600 
    213 H213       -7.1609  -30.8946  -49.1677 H         1 UNK         0.0600 
    214 H214       -5.4049  -30.8651  -49.1091 H         1 UNK         0.0600 
    215 H215       -6.6706  -28.4649  -52.0273 H         1 UNK         0.3000 
    216 H216       -9.5335  -27.8372  -52.0117 H         1 UNK         0.0600 
    217 H217       -9.1626  -27.6246  -54.4681 H         1 UNK         0.0600 
    218 H218       -8.4613  -29.1183  -53.8698 H         1 UNK         0.0600 
    219 H219       -7.4216  -27.7426  -54.2378 H         1 UNK         0.0600 
    220 H220       -6.9106  -26.0549  -51.0821 H         1 UNK         0.3000 
    221 H221       -6.3660  -23.9489  -50.7694 H         1 UNK         0.0600 
    222 H222       -9.2459  -23.1714  -51.4389 H         1 UNK         0.0600 
    223 H223       -8.6837  -23.7196  -49.8595 H         1 UNK         0.0600 
    224 H224       -8.0815  -22.2167  -50.5364 H         1 UNK         0.0600 
    225 H225       -6.0619  -25.1362  -53.4377 H         1 UNK         0.3000 
    226 H226       -6.3797  -23.1759  -55.4671 H         1 UNK         0.0600 
    227 H227       -6.1089  -25.6099  -55.9118 H         1 UNK         0.0600 
    228 H228       -4.8856  -24.6860  -56.7681 H         1 UNK         0.0600 
    229 H229       -4.4535  -25.5581  -55.3037 H         1 UNK         0.0600 
    230 H230       -3.9138  -23.5617  -53.0275 H         1 UNK         0.3000 
    231 H231       -2.1363  -21.5186  -54.2870 H         1 UNK         0.0600 
    232 H232       -0.3749  -22.4545  -52.8714 H         1 UNK         0.0600 
    233 H233       -1.1086  -23.7505  -53.7978 H         1 UNK         0.0600 
    234 H234       -1.5133  -23.5525  -52.0956 H         1 UNK         0.0600 
    235 H235       -4.7193  -20.9831  -52.8311 H         1 UNK         0.3000 
    236 H236       -3.9271  -19.5201  -50.4143 H         1 UNK         0.0600 
    237 H237       -6.3055  -18.8352  -50.4089 H         1 UNK         0.0600 
    238 H238       -6.5574  -19.5674  -51.9892 H         1 UNK         0.0600 
    239 H239       -6.1849  -20.5773  -50.5998 H         1 UNK         0.0600 
    240 H240       -2.1622  -18.4888  -51.6929 H         1 UNK         0.3000 
    241 H241       -2.4372  -16.6497  -53.7288 H         1 UNK         0.0600 
    242 H242       -2.7250  -14.3474  -53.9291 H         1 UNK         0.3800 
    243 H243       -3.3209  -13.3915  -52.6029 H         1 UNK         0.3800 
    244 H244       -0.2361  -15.7448  -52.9759 H         1 UNK         0.0800 
    245 H245       -0.4259  -16.5323  -51.4276 H         1 UNK         0.0800 
    246 H246        2.4581  -18.6351  -53.1326 H         1 UNK         0.0800 
    247 H247        2.2026  -16.9105  -53.0913 H         1 UNK         0.0800 
@<TRIPOS>BOND
     1    1    2 1    
     2    1  127 1    
     3    1  128 1    
     4    1  129 1    
     5    2    3 2    
     6    2    4 am   BACKBONE|DICT|INTERRES
     7    4    5 1    
     8    4  130 1    
     9    5    6 1    
    10    5   65 1    
    11    5  131 1    
    12    6    7 1    
    13    6  132 1    
    14    6  133 1    
    15    7    8 1    
    16    8    9 1    
    17    8  134 1    
    18    8  135 1    
    19    9   10 ar   
    20    9   14 ar   
    21   10   11 ar   
    22   10  136 1    
    23   11   12 ar   
    24   11  126 1    
    25   12   13 ar   
    26   12  137 1    
    27   13   14 ar   
    28   13   15 1    
    29   14  138 1    
    30   15   16 1    
    31   15  139 1    
    32   15  140 1    
    33   16   17 1    
    34   17   18 1    
    35   17  141 1    
    36   17  142 1    
    37   18   19 1    
    38   18   67 1    
    39   18  143 1    
    40   19   20 am   BACKBONE|DICT|INTERRES
    41   19  144 1    
    42   20   21 2    
    43   20   22 1    
    44   22   23 1    
    45   22   24 1    
    46   22  145 1    
    47   23  146 1    
    48   23  147 1    
    49   23  148 1    
    50   24   25 am   BACKBONE|DICT|INTERRES
    51   24  149 1    
    52   25   26 2    
    53   25   27 1    
    54   27   28 1    
    55   27   29 1    
    56   27  150 1    
    57   28  151 1    
    58   28  152 1    
    59   28  153 1    
    60   29   30 am   BACKBONE|DICT|INTERRES
    61   29  154 1    
    62   30   31 2    
    63   30   32 1    
    64   32   33 1    
    65   32   34 1    
    66   32  155 1    
    67   33  156 1    
    68   33  157 1    
    69   33  158 1    
    70   34   35 am   BACKBONE|DICT|INTERRES
    71   34  159 1    
    72   35   36 2    
    73   35   37 1    
    74   37   38 1    
    75   37   39 1    
    76   37  160 1    
    77   38  161 1    
    78   38  162 1    
    79   38  163 1    
    80   39   40 am   BACKBONE|DICT|INTERRES
    81   39  164 1    
    82   40   41 2    
    83   40   42 1    
    84   42   43 1    
    85   42   44 1    
    86   42  165 1    
    87   43  166 1    
    88   43  167 1    
    89   43  168 1    
    90   44   45 am   BACKBONE|DICT|INTERRES
    91   44  169 1    
    92   45   46 2    
    93   45   47 1    
    94   47   48 1    
    95   47   49 1    
    96   47  170 1    
    97   48  171 1    
    98   48  172 1    
    99   48  173 1    
   100   49   50 am   BACKBONE|DICT|INTERRES
   101   49  174 1    
   102   50   51 2    
   103   50   52 1    
   104   52   53 1    
   105   52   54 1    
   106   52  175 1    
   107   53  176 1    
   108   53  177 1    
   109   53  178 1    
   110   54   55 am   BACKBONE|DICT|INTERRES
   111   54  179 1    
   112   55   56 2    
   113   55   57 1    
   114   57   58 1    
   115   57   59 1    
   116   57  180 1    
   117   58  181 1    
   118   58  182 1    
   119   58  183 1    
   120   59   60 am   BACKBONE|DICT|INTERRES
   121   59  184 1    
   122   60   61 2    
   123   60   62 1    
   124   62   63 1    
   125   62   64 1    
   126   62  185 1    
   127   63  186 1    
   128   63  187 1    
   129   63  188 1    
   130   64   65 am   BACKBONE|DICT|INTERRES
   131   64  189 1    
   132   65   66 2    
   133   67   68 2    
   134   67   69 am   BACKBONE|DICT|INTERRES
   135   69   70 1    
   136   69  190 1    
   137   70   71 1    
   138   70   72 1    
   139   70  191 1    
   140   71  192 1    
   141   71  193 1    
   142   71  194 1    
   143   72   73 2    
   144   72   74 am   BACKBONE|DICT|INTERRES
   145   74   75 1    
   146   74  195 1    
   147   75   76 1    
   148   75   77 1    
   149   75  196 1    
   150   76  197 1    
   151   76  198 1    
   152   76  199 1    
   153   77   78 2    
   154   77   79 am   BACKBONE|DICT|INTERRES
   155   79   80 1    
   156   79  200 1    
   157   80   81 1    
   158   80   82 1    
   159   80  201 1    
   160   81  202 1    
   161   81  203 1    
   162   81  204 1    
   163   82   83 2    
   164   82   84 am   BACKBONE|DICT|INTERRES
   165   84   85 1    
   166   84  205 1    
   167   85   86 1    
   168   85   87 1    
   169   85  206 1    
   170   86  207 1    
   171   86  208 1    
   172   86  209 1    
   173   87   88 2    
   174   87   89 am   BACKBONE|DICT|INTERRES
   175   89   90 1    
   176   89  210 1    
   177   90   91 1    
   178   90   92 1    
   179   90  211 1    
   180   91  212 1    
   181   91  213 1    
   182   91  214 1    
   183   92   93 2    
   184   92   94 am   BACKBONE|DICT|INTERRES
   185   94   95 1    
   186   94  215 1    
   187   95   96 1    
   188   95   97 1    
   189   95  216 1    
   190   96  217 1    
   191   96  218 1    
   192   96  219 1    
   193   97   98 2    
   194   97   99 am   BACKBONE|DICT|INTERRES
   195   99  100 1    
   196   99  220 1    
   197  100  101 1    
   198  100  102 1    
   199  100  221 1    
   200  101  222 1    
   201  101  223 1    
   202  101  224 1    
   203  102  103 2    
   204  102  104 am   BACKBONE|DICT|INTERRES
   205  104  105 1    
   206  104  225 1    
   207  105  106 1    
   208  105  107 1    
   209  105  226 1    
   210  106  227 1    
   211  106  228 1    
   212  106  229 1    
   213  107  108 2    
   214  107  109 am   BACKBONE|DICT|INTERRES
   215  109  110 1    
   216  109  230 1    
   217  110  111 1    
   218  110  112 1    
   219  110  231 1    
   220  111  232 1    
   221  111  233 1    
   222  111  234 1    
   223  112  113 2    
   224  112  114 am   BACKBONE|DICT|INTERRES
   225  114  115 1    
   226  114  235 1    
   227  115  116 1    
   228  115  117 1    
   229  115  236 1    
   230  116  237 1    
   231  116  238 1    
   232  116  239 1    
   233  117  118 2    
   234  117  119 am   BACKBONE|DICT|INTERRES
   235  119  120 1    
   236  119  240 1    
   237  120  121 1    
   238  120  124 1    
   239  120  241 1    
   240  121  122 am   BACKBONE|DICT|INTERRES
   241  121  123 2    
   242  122  242 1    
   243  122  243 1    
   244  124  125 1    
   245  124  244 1    
   246  124  245 1    
   247  125  126 1    
   248  126  246 1    
   249  126  247 1    
@<TRIPOS>SUBSTRUCTURE
     1 UNK         1 GROUP             0       ****    0 ROOT    
