@<TRIPOS>MOLECULE
3R540
247   249    1
SMALL
USER_CHARGES


@<TRIPOS>ATOM
      1 CA         -2.6960  -12.9440  -45.6103 C.3       0 UNK        -0.1800 
      2 C          -1.7534  -12.4575  -46.7015 C.2       0 UNK         0.5000 
      3 O          -2.1251  -11.5827  -47.4847 O.2       0 UNK        -0.5000 
      4 N          -0.5438  -13.0270  -46.7655 N.am      1 UNK        -0.5000 
      5 CA          0.4944  -12.6662  -47.7371 C.3       1 UNK         0.1400 
      6 C6          1.5587  -13.7822  -47.9293 C.3       23 UNK        -0.0398 
      7 S7          0.8695  -15.4631  -48.0279 S.3       23 UNK        -0.2404 
      8 C8          0.3507  -15.5753  -49.7604 C.3       23 UNK        -0.0205 
      9 C9         -0.4697  -16.8367  -49.9562 C.ar      23 UNK        -0.0193 
     10 C10        -1.8518  -16.8086  -49.7525 C.ar      23 UNK        -0.1150 
     11 C11        -2.6099  -17.9739  -49.8841 C.ar      23 UNK        -0.0193 
     12 C12        -1.9754  -19.1707  -50.2285 C.ar      23 UNK        -0.1150 
     13 C13        -0.5908  -19.2150  -50.4161 C.ar      23 UNK        -0.0193 
     14 C14         0.1563  -18.0414  -50.2879 C.ar      23 UNK        -0.1150 
     15 C15         0.1008  -20.5330  -50.7345 C.3       23 UNK        -0.0205 
     16 S16         0.6497  -21.3878  -49.2206 S.3       23 UNK        -0.2404 
     17 C17        -0.9569  -21.8009  -48.4713 C.3       23 UNK        -0.0398 
     18 CA         -0.8679  -22.9282  -47.4184 C.3       11 UNK         0.1400 
     19 N          -0.2619  -22.4989  -46.1531 N.am      11 UNK        -0.5000 
     20 C          -0.0001  -23.3225  -45.1256 C.2       10 UNK         0.5000 
     21 O          -0.1735  -24.5405  -45.1641 O.2       10 UNK        -0.5000 
     22 CA          0.4690  -22.6796  -43.8093 C.3       10 UNK         0.1400 
     23 CB          1.9640  -22.3325  -43.8640 C.3       10 UNK        -0.1800 
     24 N          -0.3138  -21.4945  -43.4580 N.am      10 UNK        -0.5000 
     25 C          -1.6276  -21.5055  -43.1878 C.2       9 UNK         0.5000 
     26 O          -2.3058  -22.5316  -43.1451 O.2       9 UNK        -0.5000 
     27 CA         -2.3115  -20.1410  -42.9805 C.3       9 UNK         0.1400 
     28 CB         -2.1049  -19.6332  -41.5464 C.3       9 UNK        -0.1800 
     29 N          -1.8501  -19.1311  -43.9333 N.am      9 UNK        -0.5000 
     30 C          -2.0219  -19.2047  -45.2617 C.2       8 UNK         0.5000 
     31 O          -2.6437  -20.1061  -45.8238 O.2       8 UNK        -0.5000 
     32 CA         -1.3387  -18.1138  -46.1031 C.3       8 UNK         0.1400 
     33 CB         -2.2022  -16.8443  -46.1502 C.3       8 UNK        -0.1800 
     34 N          -0.0041  -17.7965  -45.5919 N.am      8 UNK        -0.5000 
     35 C           1.0373  -18.6394  -45.6462 C.2       7 UNK         0.5000 
     36 O           0.9810  -19.7589  -46.1544 O.2       7 UNK        -0.5000 
     37 CA          2.3371  -18.1868  -44.9537 C.3       7 UNK         0.1400 
     38 CB          3.1752  -17.2706  -45.8568 C.3       7 UNK        -0.1800 
     39 N           2.0846  -17.5131  -43.6802 N.am      7 UNK        -0.5000 
     40 C           1.6139  -18.1298  -42.5868 C.2       6 UNK         0.5000 
     41 O           1.3850  -19.3367  -42.5327 O.2       6 UNK        -0.5000 
     42 CA          1.3109  -17.2514  -41.3585 C.3       6 UNK         0.1400 
     43 CB          2.5458  -17.1560  -40.4504 C.3       6 UNK        -0.1800 
     44 N           0.8646  -15.9011  -41.7017 N.am      6 UNK        -0.5000 
     45 C          -0.2283  -15.6002  -42.4179 C.2       5 UNK         0.5000 
     46 O          -1.0091  -16.4448  -42.8575 O.2       5 UNK        -0.5000 
     47 CA         -0.4639  -14.1088  -42.7288 C.3       5 UNK         0.1400 
     48 CB         -1.5124  -13.5143  -41.7782 C.3       5 UNK        -0.1800 
     49 N           0.7622  -13.3062  -42.6656 N.am      5 UNK        -0.5000 
     50 C           1.7571  -13.3876  -43.5579 C.2       4 UNK         0.5000 
     51 O           1.7147  -14.1038  -44.5618 O.2       4 UNK        -0.5000 
     52 CA          3.0342  -12.6025  -43.2314 C.3       4 UNK         0.1400 
     53 CB          3.8943  -13.4083  -42.2352 C.3       4 UNK        -0.1800 
     54 N           3.7666  -12.3627  -44.4707 N.am      4 UNK        -0.5000 
     55 C           4.8474  -11.5866  -44.6183 C.2       3 UNK         0.5000 
     56 O           5.3758  -10.9571  -43.7009 O.2       3 UNK        -0.5000 
     57 CA          5.4218  -11.4807  -46.0431 C.3       3 UNK         0.1400 
     58 CB          6.0092  -12.8242  -46.5072 C.3       3 UNK        -0.1800 
     59 N           4.4133  -11.0323  -47.0022 N.am      3 UNK        -0.5000 
     60 C           3.9063   -9.7913  -47.0553 C.2       2 UNK         0.5000 
     61 O           4.3041   -8.8572  -46.3583 O.2       2 UNK        -0.5000 
     62 CA          2.7478   -9.5557  -48.0476 C.3       2 UNK         0.1400 
     63 CB          3.2861   -9.0492  -49.3946 C.3       2 UNK        -0.1800 
     64 N           1.9256  -10.7490  -48.2760 N.am      2 UNK        -0.5000 
     65 C           1.1834  -11.3457  -47.3326 C.2       1 UNK         0.5000 
     66 O           1.0845  -10.9194  -46.1785 O.2       1 UNK        -0.5000 
     67 C          -2.2620  -23.5473  -47.2057 C.2       11 UNK         0.5000 
     68 O          -2.5306  -24.6051  -47.7665 O.2       11 UNK        -0.5000 
     69 N          -3.1129  -22.9042  -46.3940 N.am      12 UNK        -0.5000 
     70 CA         -4.4517  -23.3931  -46.0581 C.3       12 UNK         0.1400 
     71 CB         -5.2047  -22.3278  -45.2479 C.3       12 UNK        -0.1800 
     72 C          -4.4316  -24.7446  -45.3184 C.2       12 UNK         0.5000 
     73 O          -5.2302  -25.6236  -45.6438 O.2       12 UNK        -0.5000 
     74 N          -3.5005  -24.8992  -44.3671 N.am      13 UNK        -0.5000 
     75 CA         -3.2832  -26.1306  -43.6068 C.3       13 UNK         0.1400 
     76 CB         -2.3340  -25.8427  -42.4335 C.3       13 UNK        -0.1800 
     77 C          -2.7451  -27.2875  -44.4707 C.2       13 UNK         0.5000 
     78 O          -3.2018  -28.4213  -44.3205 O.2       13 UNK        -0.5000 
     79 N          -1.7940  -26.9822  -45.3628 N.am      14 UNK        -0.5000 
     80 CA         -1.1513  -27.9445  -46.2622 C.3       14 UNK         0.1400 
     81 CB          0.2379  -27.4030  -46.6367 C.3       14 UNK        -0.1800 
     82 C          -1.9637  -28.2470  -47.5380 C.2       14 UNK         0.5000 
     83 O          -1.5523  -29.1077  -48.3178 O.2       14 UNK        -0.5000 
     84 N          -3.0556  -27.5044  -47.7650 N.am      15 UNK        -0.5000 
     85 CA         -3.8800  -27.4075  -48.9771 C.3       15 UNK         0.1400 
     86 CB         -4.4530  -28.7679  -49.4183 C.3       15 UNK        -0.1800 
     87 C          -3.1552  -26.6800  -50.1268 C.2       15 UNK         0.5000 
     88 O          -3.7087  -25.7206  -50.6644 O.2       15 UNK        -0.5000 
     89 N          -1.9228  -27.1177  -50.4321 N.am      16 UNK        -0.5000 
     90 CA         -0.8974  -26.4854  -51.2700 C.3       16 UNK         0.1400 
     91 CB         -0.0870  -25.4989  -50.4006 C.3       16 UNK        -0.1800 
     92 C          -1.4469  -25.8503  -52.5657 C.2       16 UNK         0.5000 
     93 O          -1.7842  -26.5761  -53.5026 O.2       16 UNK        -0.5000 
     94 N          -1.5416  -24.5163  -52.5747 N.am      17 UNK        -0.5000 
     95 CA         -2.1386  -23.7021  -53.6274 C.3       17 UNK         0.1400 
     96 CB         -1.0198  -23.0148  -54.4297 C.3       17 UNK        -0.1800 
     97 C          -3.1381  -22.7006  -53.0191 C.2       17 UNK         0.5000 
     98 O          -3.2697  -21.5815  -53.5205 O.2       17 UNK        -0.5000 
     99 N          -3.8294  -23.0993  -51.9407 N.am      18 UNK        -0.5000 
    100 CA        -4.8918  -22.3118  -51.3152 C.3       18 UNK         0.1400 
    101 CB        -5.3667  -23.0065  -50.0316 C.3       18 UNK        -0.1800 
    102 C         -6.0612  -22.0795  -52.2913 C.2       18 UNK         0.5000 
    103 O         -6.4809  -23.0119  -52.9799 O.2       18 UNK        -0.5000 
    104 N         -6.5219  -20.8246  -52.3493 N.am      19 UNK        -0.5000 
    105 CA        -7.5080  -20.2592  -53.2774 C.3       19 UNK         0.1400 
    106 CB        -8.8584  -21.0019  -53.1993 C.3       19 UNK        -0.1800 
    107 C         -7.0015  -20.1025  -54.7298 C.2       19 UNK         0.5000 
    108 O         -7.7916  -19.7146  -55.5920 O.2       19 UNK        -0.5000 
    109 N         -5.7097  -20.3628  -54.9812 N.am      20 UNK        -0.5000 
    110 CA        -5.0576  -20.1836  -56.2797 C.3       20 UNK         0.1400 
    111 CB        -4.5440  -21.5386  -56.7953 C.3       20 UNK        -0.1800 
    112 C         -3.9183  -19.1593  -56.1700 C.2       20 UNK         0.5000 
    113 O         -3.8956  -18.1900  -56.9292 O.2       20 UNK        -0.5000 
    114 N         -3.0097  -19.3681  -55.2079 N.am      21 UNK        -0.5000 
    115 CA        -1.8625  -18.4966  -54.9382 C.3       21 UNK         0.1400 
    116 CB        -0.7902  -19.3089  -54.1970 C.3       21 UNK        -0.1800 
    117 C         -2.2259  -17.2306  -54.1385 C.2       21 UNK         0.5000 
    118 O         -1.4040  -16.3172  -54.0539 O.2       21 UNK        -0.5000 
    119 N         -3.4347  -17.1982  -53.5636 N.am      22 UNK        -0.5000 
    120 CA        -3.9333  -16.1180  -52.6973 C.3       22 UNK         0.1400 
    121 C         -4.2218  -14.7667  -53.4168 C.2       22 UNK         0.5000 
    122 N         -4.2610  -14.7113  -54.7428 N.am      22 UNK        -0.7600 
    123 O         -4.4151  -13.7491  -52.7575 O.2       22 UNK        -0.5000 
    124 C124       -5.1655  -16.5522  -51.8575 C.3       23 UNK        -0.0398 
    125 S125       -5.0655  -18.2265  -51.1333 S.3       23 UNK        -0.2404 
    126 C126       -4.1057  -17.9559  -49.6144 C.3       23 UNK        -0.0205 
    127 H127       -2.5674  -12.3474  -44.7072 H         1 UNK         0.0600 
    128 H128       -2.5160  -13.9900  -45.3677 H         1 UNK         0.0600 
    129 H129       -3.7327  -12.8533  -45.9349 H         1 UNK         0.0600 
    130 H130       -0.2617  -13.7127  -46.0795 H         1 UNK         0.3000 
    131 H131        0.0070  -12.5037  -48.7008 H         1 UNK         0.0600 
    132 H132        2.2664  -13.7897  -47.0995 H         1 UNK         0.0800 
    133 H133        2.1528  -13.5975  -48.8256 H         1 UNK         0.0800 
    134 H134        1.2267  -15.5813  -50.4107 H         1 UNK         0.0800 
    135 H135       -0.2397  -14.6985  -50.0301 H         1 UNK         0.0800 
    136 H136       -2.3319  -15.8819  -49.4715 H         1 UNK         0.1150 
    137 H137       -2.5601  -20.0730  -50.3284 H         1 UNK         0.1150 
    138 H138        1.2287  -18.0706  -50.4194 H         1 UNK         0.1150 
    139 H139       -0.5626  -21.1834  -51.3064 H         1 UNK         0.0800 
    140 H140        0.9676  -20.3498  -51.3712 H         1 UNK         0.0800 
    141 H141       -1.6243  -22.0921  -49.2853 H         1 UNK         0.0800 
    142 H142       -1.3831  -20.8985  -48.0322 H         1 UNK         0.0800 
    143 H143       -0.2325  -23.7202  -47.8200 H         1 UNK         0.0600 
    144 H144       -0.0396  -21.5119  -46.0651 H         1 UNK         0.3000 
    145 H145        0.3258  -23.4149  -43.0148 H         1 UNK         0.0600 
    146 H146        2.1781  -21.5772  -44.6194 H         1 UNK         0.0600 
    147 H147        2.3156  -21.9546  -42.9040 H         1 UNK         0.0600 
    148 H148        2.5596  -23.2141  -44.1040 H         1 UNK         0.0600 
    149 H149        0.1921  -20.6157  -43.4056 H         1 UNK         0.3000 
    150 H150       -3.3829  -20.2781  -43.1393 H         1 UNK         0.0600 
    151 H151       -2.5184  -20.3366  -40.8227 H         1 UNK         0.0600 
    152 H152       -2.6003  -18.6747  -41.3904 H         1 UNK         0.0600 
    153 H153       -1.0487  -19.5070  -41.3114 H         1 UNK         0.0600 
    154 H154       -1.3647  -18.3253  -43.5528 H         1 UNK         0.3000 
    155 H155       -1.2301  -18.4892  -47.1232 H         1 UNK         0.0600 
    156 H156       -3.1811  -17.0593  -46.5800 H         1 UNK         0.0600 
    157 H157       -1.7429  -16.0732  -46.7673 H         1 UNK         0.0600 
    158 H158       -2.3659  -16.4282  -45.1564 H         1 UNK         0.0600 
    159 H159        0.1101  -16.9089  -45.1261 H         1 UNK         0.3000 
    160 H160        2.9261  -19.0845  -44.7538 H         1 UNK         0.0600 
    161 H161        2.7204  -16.2866  -45.9637 H         1 UNK         0.0600 
    162 H162        3.2874  -17.6950  -46.8555 H         1 UNK         0.0600 
    163 H163        4.1756  -17.1279  -45.4482 H         1 UNK         0.0600 
    164 H164        2.2193  -16.5123  -43.6585 H         1 UNK         0.3000 
    165 H165        0.5086  -17.7325  -40.7963 H         1 UNK         0.0600 
    166 H166        2.3213  -16.6094  -39.5343 H         1 UNK         0.0600 
    167 H167        2.8930  -18.1480  -40.1582 H         1 UNK         0.0600 
    168 H168        3.3747  -16.6515  -40.9488 H         1 UNK         0.0600 
    169 H169        1.4406  -15.1404  -41.3754 H         1 UNK         0.3000 
    170 H170       -0.8521  -14.0533  -43.7453 H         1 UNK         0.0600 
    171 H171       -2.4468  -14.0751  -41.8282 H         1 UNK         0.0600 
    172 H172       -1.1732  -13.5320  -40.7417 H         1 UNK         0.0600 
    173 H173       -1.7412  -12.4811  -42.0404 H         1 UNK         0.0600 
    174 H174        0.8630  -12.6972  -41.8659 H         1 UNK         0.3000 
    175 H175        2.7564  -11.6410  -42.7952 H         1 UNK         0.0600 
    176 H176        4.2153  -14.3594  -42.6622 H         1 UNK         0.0600 
    177 H177        4.7871  -12.8603  -41.9355 H         1 UNK         0.0600 
    178 H178        3.3403  -13.6284  -41.3220 H         1 UNK         0.0600 
    179 H179        3.3700  -12.8354  -45.2714 H         1 UNK         0.3000 
    180 H180        6.2312  -10.7475  -46.0257 H         1 UNK         0.0600 
    181 H181        5.2448  -13.5972  -46.5948 H         1 UNK         0.0600 
    182 H182        6.7605  -13.1843  -45.8032 H         1 UNK         0.0600 
    183 H183        6.4965  -12.7251  -47.4774 H         1 UNK         0.0600 
    184 H184        4.0415  -11.7264  -47.6315 H         1 UNK         0.3000 
    185 H185        2.1053   -8.7809  -47.6238 H         1 UNK         0.0600 
    186 H186        2.4728   -8.8018  -50.0771 H         1 UNK         0.0600 
    187 H187        3.8825   -8.1456  -49.2615 H         1 UNK         0.0600 
    188 H188        3.9200   -9.7919  -49.8806 H         1 UNK         0.0600 
    189 H189        1.9542  -11.1388  -49.2073 H         1 UNK         0.3000 
    190 H190       -2.8418  -22.0053  -46.0038 H         1 UNK         0.3000 
    191 H191       -4.9920  -23.5432  -46.9945 H         1 UNK         0.0600 
    192 H192       -5.2770  -21.3909  -45.8008 H         1 UNK         0.0600 
    193 H193       -6.2211  -22.6541  -45.0248 H         1 UNK         0.0600 
    194 H194       -4.7118  -22.1183  -44.2989 H         1 UNK         0.0600 
    195 H195       -2.9146  -24.1045  -44.1256 H         1 UNK         0.3000 
    196 H196       -4.2445  -26.4439  -43.1945 H         1 UNK         0.0600 
    197 H197       -2.1658  -26.7397  -41.8364 H         1 UNK         0.0600 
    198 H198       -2.7476  -25.0826  -41.7703 H         1 UNK         0.0600 
    199 H199       -1.3619  -25.4895  -42.7792 H         1 UNK         0.0600 
    200 H200       -1.4366  -26.0309  -45.3934 H         1 UNK         0.3000 
    201 H201       -1.0148  -28.8895  -45.7326 H         1 UNK         0.0600 
    202 H202        0.8492  -27.2389  -45.7491 H         1 UNK         0.0600 
    203 H203        0.1645  -26.4549  -47.1708 H         1 UNK         0.0600 
    204 H204        0.7774  -28.1017  -47.2772 H         1 UNK         0.0600 
    205 H205       -3.2342  -26.7705  -47.0916 H         1 UNK         0.3000 
    206 H206       -4.7251  -26.7774  -48.6945 H         1 UNK         0.0600 
    207 H207       -3.6801  -29.4457  -49.7803 H         1 UNK         0.0600 
    208 H208       -4.9749  -29.2598  -48.5975 H         1 UNK         0.0600 
    209 H209       -5.1707  -28.6368  -50.2288 H         1 UNK         0.0600 
    210 H210       -1.6129  -27.9371  -49.9194 H         1 UNK         0.3000 
    211 H211       -0.2199  -27.2804  -51.5845 H         1 UNK         0.0600 
    212 H212        0.6980  -25.0088  -50.9783 H         1 UNK         0.0600 
    213 H213        0.4022  -26.0194  -49.5776 H         1 UNK         0.0600 
    214 H214       -0.7204  -24.7250  -49.9671 H         1 UNK         0.0600 
    215 H215       -1.2675  -24.0188  -51.7401 H         1 UNK         0.3000 
    216 H216       -2.7159  -24.3295  -54.3093 H         1 UNK         0.0600 
    217 H217       -1.4269  -22.4156  -55.2449 H         1 UNK         0.0600 
    218 H218       -0.3486  -23.7494  -54.8746 H         1 UNK         0.0600 
    219 H219       -0.4227  -22.3571  -53.7975 H         1 UNK         0.0600 
    220 H220       -3.7114  -24.0488  -51.5938 H         1 UNK         0.3000 
    221 H221       -4.4635  -21.3469  -51.0377 H         1 UNK         0.0600 
    222 H222       -5.8278  -23.9718  -50.2441 H         1 UNK         0.0600 
    223 H223       -4.5342  -23.1775  -49.3497 H         1 UNK         0.0600 
    224 H224       -6.1025  -22.3973  -49.5057 H         1 UNK         0.0600 
    225 H225       -6.0860  -20.1367  -51.7462 H         1 UNK         0.3000 
    226 H226       -7.6832  -19.2427  -52.9224 H         1 UNK         0.0600 
    227 H227       -9.1932  -21.1063  -52.1673 H         1 UNK         0.0600 
    228 H228       -9.6347  -20.4561  -53.7366 H         1 UNK         0.0600 
    229 H229       -8.8030  -21.9979  -53.6387 H         1 UNK         0.0600 
    230 H230       -5.1210  -20.6908  -54.2257 H         1 UNK         0.3000 
    231 H231       -5.7641  -19.7974  -57.0171 H         1 UNK         0.0600 
    232 H232       -3.8290  -21.9951  -56.1114 H         1 UNK         0.0600 
    233 H233       -4.0486  -21.4260  -57.7603 H         1 UNK         0.0600 
    234 H234       -5.3664  -22.2409  -56.9319 H         1 UNK         0.0600 
    235 H235       -3.0912  -20.1924  -54.6144 H         1 UNK         0.3000 
    236 H236       -1.4389  -18.1666  -55.8890 H         1 UNK         0.0600 
    237 H237       -0.4147  -20.1195  -54.8203 H         1 UNK         0.0600 
    238 H238        0.0645  -18.6875  -53.9264 H         1 UNK         0.0600 
    239 H239       -1.1856  -19.7418  -53.2785 H         1 UNK         0.0600 
    240 H240       -4.0370  -17.9992  -53.6716 H         1 UNK         0.3000 
    241 H241       -3.1292  -15.8976  -51.9952 H         1 UNK         0.0600 
    242 H242       -4.4461  -13.8318  -55.1990 H         1 UNK         0.3800 
    243 H243       -4.0964  -15.5389  -55.2945 H         1 UNK         0.3800 
    244 H244       -5.3513  -15.8330  -51.0581 H         1 UNK         0.0800 
    245 H245       -6.0607  -16.5388  -52.4818 H         1 UNK         0.0800 
    246 H246       -4.3418  -18.7502  -48.9047 H         1 UNK         0.0800 
    247 H247       -4.4123  -17.0233  -49.1386 H         1 UNK         0.0800 
@<TRIPOS>BOND
     1    1    2 1    
     2    1  127 1    
     3    1  128 1    
     4    1  129 1    
     5    2    3 2    
     6    2    4 am   BACKBONE|DICT|INTERRES
     7    4    5 1    
     8    4  130 1    
     9    5    6 1    
    10    5   65 1    
    11    5  131 1    
    12    6    7 1    
    13    6  132 1    
    14    6  133 1    
    15    7    8 1    
    16    8    9 1    
    17    8  134 1    
    18    8  135 1    
    19    9   10 ar   
    20    9   14 ar   
    21   10   11 ar   
    22   10  136 1    
    23   11   12 ar   
    24   11  126 1    
    25   12   13 ar   
    26   12  137 1    
    27   13   14 ar   
    28   13   15 1    
    29   14  138 1    
    30   15   16 1    
    31   15  139 1    
    32   15  140 1    
    33   16   17 1    
    34   17   18 1    
    35   17  141 1    
    36   17  142 1    
    37   18   19 1    
    38   18   67 1    
    39   18  143 1    
    40   19   20 am   BACKBONE|DICT|INTERRES
    41   19  144 1    
    42   20   21 2    
    43   20   22 1    
    44   22   23 1    
    45   22   24 1    
    46   22  145 1    
    47   23  146 1    
    48   23  147 1    
    49   23  148 1    
    50   24   25 am   BACKBONE|DICT|INTERRES
    51   24  149 1    
    52   25   26 2    
    53   25   27 1    
    54   27   28 1    
    55   27   29 1    
    56   27  150 1    
    57   28  151 1    
    58   28  152 1    
    59   28  153 1    
    60   29   30 am   BACKBONE|DICT|INTERRES
    61   29  154 1    
    62   30   31 2    
    63   30   32 1    
    64   32   33 1    
    65   32   34 1    
    66   32  155 1    
    67   33  156 1    
    68   33  157 1    
    69   33  158 1    
    70   34   35 am   BACKBONE|DICT|INTERRES
    71   34  159 1    
    72   35   36 2    
    73   35   37 1    
    74   37   38 1    
    75   37   39 1    
    76   37  160 1    
    77   38  161 1    
    78   38  162 1    
    79   38  163 1    
    80   39   40 am   BACKBONE|DICT|INTERRES
    81   39  164 1    
    82   40   41 2    
    83   40   42 1    
    84   42   43 1    
    85   42   44 1    
    86   42  165 1    
    87   43  166 1    
    88   43  167 1    
    89   43  168 1    
    90   44   45 am   BACKBONE|DICT|INTERRES
    91   44  169 1    
    92   45   46 2    
    93   45   47 1    
    94   47   48 1    
    95   47   49 1    
    96   47  170 1    
    97   48  171 1    
    98   48  172 1    
    99   48  173 1    
   100   49   50 am   BACKBONE|DICT|INTERRES
   101   49  174 1    
   102   50   51 2    
   103   50   52 1    
   104   52   53 1    
   105   52   54 1    
   106   52  175 1    
   107   53  176 1    
   108   53  177 1    
   109   53  178 1    
   110   54   55 am   BACKBONE|DICT|INTERRES
   111   54  179 1    
   112   55   56 2    
   113   55   57 1    
   114   57   58 1    
   115   57   59 1    
   116   57  180 1    
   117   58  181 1    
   118   58  182 1    
   119   58  183 1    
   120   59   60 am   BACKBONE|DICT|INTERRES
   121   59  184 1    
   122   60   61 2    
   123   60   62 1    
   124   62   63 1    
   125   62   64 1    
   126   62  185 1    
   127   63  186 1    
   128   63  187 1    
   129   63  188 1    
   130   64   65 am   BACKBONE|DICT|INTERRES
   131   64  189 1    
   132   65   66 2    
   133   67   68 2    
   134   67   69 am   BACKBONE|DICT|INTERRES
   135   69   70 1    
   136   69  190 1    
   137   70   71 1    
   138   70   72 1    
   139   70  191 1    
   140   71  192 1    
   141   71  193 1    
   142   71  194 1    
   143   72   73 2    
   144   72   74 am   BACKBONE|DICT|INTERRES
   145   74   75 1    
   146   74  195 1    
   147   75   76 1    
   148   75   77 1    
   149   75  196 1    
   150   76  197 1    
   151   76  198 1    
   152   76  199 1    
   153   77   78 2    
   154   77   79 am   BACKBONE|DICT|INTERRES
   155   79   80 1    
   156   79  200 1    
   157   80   81 1    
   158   80   82 1    
   159   80  201 1    
   160   81  202 1    
   161   81  203 1    
   162   81  204 1    
   163   82   83 2    
   164   82   84 am   BACKBONE|DICT|INTERRES
   165   84   85 1    
   166   84  205 1    
   167   85   86 1    
   168   85   87 1    
   169   85  206 1    
   170   86  207 1    
   171   86  208 1    
   172   86  209 1    
   173   87   88 2    
   174   87   89 am   BACKBONE|DICT|INTERRES
   175   89   90 1    
   176   89  210 1    
   177   90   91 1    
   178   90   92 1    
   179   90  211 1    
   180   91  212 1    
   181   91  213 1    
   182   91  214 1    
   183   92   93 2    
   184   92   94 am   BACKBONE|DICT|INTERRES
   185   94   95 1    
   186   94  215 1    
   187   95   96 1    
   188   95   97 1    
   189   95  216 1    
   190   96  217 1    
   191   96  218 1    
   192   96  219 1    
   193   97   98 2    
   194   97   99 am   BACKBONE|DICT|INTERRES
   195   99  100 1    
   196   99  220 1    
   197  100  101 1    
   198  100  102 1    
   199  100  221 1    
   200  101  222 1    
   201  101  223 1    
   202  101  224 1    
   203  102  103 2    
   204  102  104 am   BACKBONE|DICT|INTERRES
   205  104  105 1    
   206  104  225 1    
   207  105  106 1    
   208  105  107 1    
   209  105  226 1    
   210  106  227 1    
   211  106  228 1    
   212  106  229 1    
   213  107  108 2    
   214  107  109 am   BACKBONE|DICT|INTERRES
   215  109  110 1    
   216  109  230 1    
   217  110  111 1    
   218  110  112 1    
   219  110  231 1    
   220  111  232 1    
   221  111  233 1    
   222  111  234 1    
   223  112  113 2    
   224  112  114 am   BACKBONE|DICT|INTERRES
   225  114  115 1    
   226  114  235 1    
   227  115  116 1    
   228  115  117 1    
   229  115  236 1    
   230  116  237 1    
   231  116  238 1    
   232  116  239 1    
   233  117  118 2    
   234  117  119 am   BACKBONE|DICT|INTERRES
   235  119  120 1    
   236  119  240 1    
   237  120  121 1    
   238  120  124 1    
   239  120  241 1    
   240  121  122 am   BACKBONE|DICT|INTERRES
   241  121  123 2    
   242  122  242 1    
   243  122  243 1    
   244  124  125 1    
   245  124  244 1    
   246  124  245 1    
   247  125  126 1    
   248  126  246 1    
   249  126  247 1    
@<TRIPOS>SUBSTRUCTURE
     1 UNK         1 GROUP             0       ****    0 ROOT    
