@<TRIPOS>MOLECULE
3R540
247   249    1
SMALL
USER_CHARGES


@<TRIPOS>ATOM
      1 CA         -0.9338  -13.4907  -46.2198 C.3       0 UNK        -0.1800 
      2 C           0.3581  -13.5305  -47.0237 C.2       0 UNK         0.5000 
      3 O           1.4354  -13.3059  -46.4727 O.2       0 UNK        -0.5000 
      4 N           0.2574  -13.8470  -48.3211 N.am      1 UNK        -0.5000 
      5 CA          1.3674  -13.9301  -49.2814 C.3       1 UNK         0.1400 
      6 C6          0.8482  -14.0949  -50.7327 C.3       23 UNK        -0.0398 
      7 S7          0.0881  -12.5750  -51.4186 S.3       23 UNK        -0.2404 
      8 C8         -1.6706  -12.6395  -50.9269 C.3       23 UNK        -0.0205 
      9 C9         -2.3233  -13.9803  -51.2232 C.ar      23 UNK        -0.0193 
     10 C10        -2.6928  -14.3294  -52.5273 C.ar      23 UNK        -0.1150 
     11 C11        -3.2366  -15.5913  -52.7949 C.ar      23 UNK        -0.0193 
     12 C12        -3.3953  -16.5018  -51.7471 C.ar      23 UNK        -0.1150 
     13 C13        -3.0415  -16.1590  -50.4429 C.ar      23 UNK        -0.0193 
     14 C14        -2.5316  -14.8881  -50.1830 C.ar      23 UNK        -0.1150 
     15 C15        -3.1531  -17.1668  -49.3151 C.3       23 UNK        -0.0205 
     16 S16        -1.5201  -17.8989  -48.9924 S.3       23 UNK        -0.2404 
     17 C17        -1.6297  -18.2727  -47.2163 C.3       23 UNK        -0.0398 
     18 CA         -1.3457  -19.7569  -46.8927 C.3       11 UNK         0.1400 
     19 N          -0.8692  -19.9194  -45.5191 N.am      11 UNK        -0.5000 
     20 C          -0.3947  -21.0579  -44.9963 C.2       10 UNK         0.5000 
     21 O          -0.2827  -22.1090  -45.6259 O.2       10 UNK        -0.5000 
     22 CA         -0.0357  -21.0263  -43.5010 C.3       10 UNK         0.1400 
     23 CB          1.3165  -20.3330  -43.2787 C.3       10 UNK        -0.1800 
     24 N          -1.0633  -20.3641  -42.6975 N.am      10 UNK        -0.5000 
     25 C          -2.3307  -20.7849  -42.5800 C.2       9 UNK         0.5000 
     26 O          -2.7670  -21.8076  -43.1066 O.2       9 UNK        -0.5000 
     27 CA         -3.2848  -19.8824  -41.7821 C.3       9 UNK         0.1400 
     28 CB         -3.1109  -20.0976  -40.2713 C.3       9 UNK        -0.1800 
     29 N          -3.0978  -18.4687  -42.1061 N.am      9 UNK        -0.5000 
     30 C          -3.4104  -17.9147  -43.2858 C.2       8 UNK         0.5000 
     31 O          -3.9018  -18.5358  -44.2288 O.2       8 UNK        -0.5000 
     32 CA         -3.0720  -16.4219  -43.4524 C.3       8 UNK         0.1400 
     33 CB         -4.1518  -15.5407  -42.8076 C.3       8 UNK        -0.1800 
     34 N          -1.7612  -16.0718  -42.9009 N.am      8 UNK        -0.5000 
     35 C          -0.6033  -16.5426  -43.3811 C.2       7 UNK         0.5000 
     36 O          -0.5231  -17.3305  -44.3205 O.2       7 UNK        -0.5000 
     37 CA          0.6846  -16.0854  -42.6814 C.3       7 UNK         0.1400 
     38 CB          1.0542  -14.6637  -43.1268 C.3       7 UNK        -0.1800 
     39 N           0.6556  -16.1538  -41.2177 N.am      7 UNK        -0.5000 
     40 C           0.3015  -17.2166  -40.4800 C.2       6 UNK         0.5000 
     41 O          -0.1561  -18.2592  -40.9494 O.2       6 UNK        -0.5000 
     42 CA          0.6000  -17.1102  -38.9773 C.3       6 UNK         0.1400 
     43 CB          0.0363  -18.2886  -38.1628 C.3       6 UNK        -0.1800 
     44 N           2.0513  -17.0757  -38.8405 N.am      6 UNK        -0.5000 
     45 C           2.7592  -16.1608  -38.1688 C.2       5 UNK         0.5000 
     46 O           2.2598  -15.2994  -37.4443 O.2       5 UNK        -0.5000 
     47 CA          4.2892  -16.1936  -38.3772 C.3       5 UNK         0.1400 
     48 CB          4.9641  -17.0304  -37.2798 C.3       5 UNK        -0.1800 
     49 N           4.6896  -16.7119  -39.6931 N.am      5 UNK        -0.5000 
     50 C           4.3872  -16.1326  -40.8640 C.2       4 UNK         0.5000 
     51 O           3.7753  -15.0655  -40.9488 O.2       4 UNK        -0.5000 
     52 CA          4.7942  -16.9055  -42.1370 C.3       4 UNK         0.1400 
     53 CB          4.0972  -18.2768  -42.1950 C.3       4 UNK        -0.1800 
     54 N           4.4650  -16.1669  -43.3581 N.am      4 UNK        -0.5000 
     55 C           5.1638  -15.1326  -43.8431 C.2       3 UNK         0.5000 
     56 O           6.2122  -14.7294  -43.3348 O.2       3 UNK        -0.5000 
     57 CA          4.5924  -14.4232  -45.0942 C.3       3 UNK         0.1400 
     58 CB          5.6925  -13.7718  -45.9577 C.3       3 UNK        -0.1800 
     59 N           3.7121  -15.2459  -45.9365 N.am      3 UNK        -0.5000 
     60 C           4.0215  -16.3924  -46.5667 C.2       2 UNK         0.5000 
     61 O           5.0976  -16.9771  -46.4423 O.2       2 UNK        -0.5000 
     62 CA          2.9504  -16.9894  -47.5048 C.3       2 UNK         0.1400 
     63 CB          2.1282  -18.0563  -46.7656 C.3       2 UNK        -0.1800 
     64 N           2.0434  -15.9844  -48.0674 N.am      2 UNK        -0.5000 
     65 C           2.4052  -15.0280  -48.9378 C.2       1 UNK         0.5000 
     66 O           3.5244  -14.9711  -49.4487 O.2       1 UNK        -0.5000 
     67 C          -2.5636  -20.6527  -47.1939 C.2       11 UNK         0.5000 
     68 O          -2.5893  -21.3051  -48.2384 O.2       11 UNK        -0.5000 
     69 N          -3.5246  -20.7043  -46.2598 N.am      12 UNK        -0.5000 
     70 CA         -4.7021  -21.5684  -46.3354 C.3       12 UNK         0.1400 
     71 CB         -5.6858  -21.2065  -45.2128 C.3       12 UNK        -0.1800 
     72 C          -4.3423  -23.0645  -46.2939 C.2       12 UNK         0.5000 
     73 O          -4.8453  -23.8264  -47.1195 O.2       12 UNK        -0.5000 
     74 N          -3.4500  -23.4513  -45.3703 N.am      13 UNK        -0.5000 
     75 CA         -2.9496  -24.8199  -45.2107 C.3       13 UNK         0.1400 
     76 CB         -2.0916  -24.9084  -43.9397 C.3       13 UNK        -0.1800 
     77 C          -2.1602  -25.3237  -46.4334 C.2       13 UNK         0.5000 
     78 O          -2.3063  -26.4848  -46.8165 O.2       13 UNK        -0.5000 
     79 N          -1.3677  -24.4330  -47.0434 N.am      14 UNK        -0.5000 
     80 CA         -0.6227  -24.6825  -48.2783 C.3       14 UNK         0.1400 
     81 CB          0.5206  -23.6590  -48.3741 C.3       14 UNK        -0.1800 
     82 C          -1.4964  -24.6189  -49.5477 C.2       14 UNK         0.5000 
     83 O          -0.9941  -24.9213  -50.6311 O.2       14 UNK        -0.5000 
     84 N          -2.7559  -24.1750  -49.4158 N.am      15 UNK        -0.5000 
     85 CA         -3.7208  -23.9061  -50.4865 C.3       15 UNK         0.1400 
     86 CB         -4.1909  -25.2197  -51.1434 C.3       15 UNK        -0.1800 
     87 C          -3.1838  -22.8846  -51.5087 C.2       15 UNK         0.5000 
     88 O          -3.3266  -23.0847  -52.7165 O.2       15 UNK        -0.5000 
     89 N          -2.5589  -21.8145  -50.9969 N.am      16 UNK        -0.5000 
     90 CA         -1.8527  -20.7609  -51.7349 C.3       16 UNK         0.1400 
     91 CB         -2.8229  -19.9825  -52.6438 C.3       16 UNK        -0.1800 
     92 C          -0.6082  -21.2814  -52.4840 C.2       16 UNK         0.5000 
     93 O          -0.2849  -20.7822  -53.5613 O.2       16 UNK        -0.5000 
     94 N           0.0576  -22.2842  -51.8911 N.am      17 UNK        -0.5000 
     95 CA          1.1576  -23.0756  -52.4529 C.3       17 UNK         0.1400 
     96 CB          2.4060  -22.2074  -52.7171 C.3       17 UNK        -0.1800 
     97 C           0.6866  -23.8812  -53.6800 C.2       17 UNK         0.5000 
     98 O           1.2928  -23.8045  -54.7503 O.2       17 UNK        -0.5000 
     99 N          -0.4106  -24.6271  -53.4795 N.am      18 UNK        -0.5000 
    100 CA        -1.1327  -25.4388  -54.4630 C.3       18 UNK         0.1400 
    101 CB        -0.2855  -26.6552  -54.8908 C.3       18 UNK        -0.1800 
    102 C         -1.6526  -24.6064  -55.6551 C.2       18 UNK         0.5000 
    103 O         -1.4253  -24.9647  -56.8127 O.2       18 UNK        -0.5000 
    104 N         -2.3502  -23.5088  -55.3414 N.am      19 UNK        -0.5000 
    105 CA        -2.9689  -22.5916  -56.2986 C.3       19 UNK         0.1400 
    106 CB        -2.1235  -21.3120  -56.4236 C.3       19 UNK        -0.1800 
    107 C         -4.4300  -22.3212  -55.8985 C.2       19 UNK         0.5000 
    108 O         -4.8945  -21.1805  -55.9582 O.2       19 UNK        -0.5000 
    109 N         -5.1229  -23.3927  -55.4809 N.am      20 UNK        -0.5000 
    110 CA        -6.5568  -23.4740  -55.1740 C.3       20 UNK         0.1400 
    111 CB        -7.3740  -23.3893  -56.4799 C.3       20 UNK        -0.1800 
    112 C         -7.0421  -22.4635  -54.1129 C.2       20 UNK         0.5000 
    113 O         -8.1785  -21.9921  -54.1911 O.2       20 UNK        -0.5000 
    114 N         -6.1622  -22.1174  -53.1602 N.am      21 UNK        -0.5000 
    115 CA        -6.3760  -21.1305  -52.0927 C.3       21 UNK         0.1400 
    116 CB        -7.3831  -21.6666  -51.0548 C.3       21 UNK        -0.1800 
    117 C         -6.7405  -19.7234  -52.6228 C.2       21 UNK         0.5000 
    118 O         -7.5021  -19.0013  -51.9781 O.2       21 UNK        -0.5000 
    119 N         -6.1941  -19.3695  -53.7959 N.am      22 UNK        -0.5000 
    120 CA        -6.4912  -18.1511  -54.5694 C.3       22 UNK         0.1400 
    121 C         -7.8531  -18.1838  -55.3311 C.2       22 UNK         0.5000 
    122 N         -8.5840  -19.2928  -55.3617 N.am      22 UNK        -0.7600 
    123 O         -8.2496  -17.1904  -55.9343 O.2       22 UNK        -0.5000 
    124 C124       -6.2793  -16.8344  -53.7571 C.3       23 UNK        -0.0398 
    125 S125       -5.3198  -15.5670  -54.6575 S.3       23 UNK        -0.2404 
    126 C126       -3.6029  -15.9956  -54.2175 C.3       23 UNK        -0.0205 
    127 H127       -1.8098  -13.4365  -46.8663 H         1 UNK         0.0600 
    128 H128       -0.9433  -12.6196  -45.5647 H         1 UNK         0.0600 
    129 H129       -1.0200  -14.3842  -45.6021 H         1 UNK         0.0600 
    130 H130       -0.6535  -14.0291  -48.7112 H         1 UNK         0.3000 
    131 H131        1.9095  -12.9837  -49.2237 H         1 UNK         0.0600 
    132 H132        0.1704  -14.9446  -50.8150 H         1 UNK         0.0800 
    133 H133        1.6777  -14.3291  -51.4028 H         1 UNK         0.0800 
    134 H134       -2.2100  -11.8533  -51.4570 H         1 UNK         0.0800 
    135 H135       -1.7544  -12.3943  -49.8673 H         1 UNK         0.0800 
    136 H136       -2.5373  -13.6275  -53.3347 H         1 UNK         0.1150 
    137 H137       -3.7884  -17.4833  -51.9473 H         1 UNK         0.1150 
    138 H138       -2.2640  -14.6279  -49.1705 H         1 UNK         0.1150 
    139 H139       -3.5342  -16.6625  -48.4259 H         1 UNK         0.0800 
    140 H140       -3.8657  -17.9562  -49.5594 H         1 UNK         0.0800 
    141 H141       -2.5815  -17.9487  -46.7922 H         1 UNK         0.0800 
    142 H142       -0.8740  -17.6400  -46.7551 H         1 UNK         0.0800 
    143 H143       -0.5318  -20.0973  -47.5365 H         1 UNK         0.0600 
    144 H144       -0.8906  -19.0874  -44.9349 H         1 UNK         0.3000 
    145 H145        0.0464  -22.0583  -43.1543 H         1 UNK         0.0600 
    146 H146        1.6030  -20.3596  -42.2272 H         1 UNK         0.0600 
    147 H147        2.1073  -20.8260  -43.8453 H         1 UNK         0.0600 
    148 H148        1.2906  -19.2891  -43.5917 H         1 UNK         0.0600 
    149 H149       -0.7826  -19.5247  -42.1960 H         1 UNK         0.3000 
    150 H150       -4.3074  -20.1584  -42.0482 H         1 UNK         0.0600 
    151 H151       -3.2977  -21.1383  -40.0039 H         1 UNK         0.0600 
    152 H152       -3.8097  -19.4850  -39.7016 H         1 UNK         0.0600 
    153 H153       -2.1016  -19.8523  -39.9405 H         1 UNK         0.0600 
    154 H154       -2.6262  -17.9035  -41.4154 H         1 UNK         0.3000 
    155 H155       -3.0538  -16.2064  -44.5230 H         1 UNK         0.0600 
    156 H156       -4.1985  -15.6834  -41.7273 H         1 UNK         0.0600 
    157 H157       -5.1377  -15.7730  -43.2127 H         1 UNK         0.0600 
    158 H158       -3.9638  -14.4842  -42.9993 H         1 UNK         0.0600 
    159 H159       -1.7427  -15.4391  -42.1146 H         1 UNK         0.3000 
    160 H160        1.4778  -16.7539  -43.0159 H         1 UNK         0.0600 
    161 H161        0.3057  -13.9334  -42.8176 H         1 UNK         0.0600 
    162 H162        1.1382  -14.6112  -44.2110 H         1 UNK         0.0600 
    163 H163        2.0139  -14.3496  -42.7198 H         1 UNK         0.0600 
    164 H164        1.0648  -15.3643  -40.7376 H         1 UNK         0.3000 
    165 H165        0.1485  -16.1848  -38.6140 H         1 UNK         0.0600 
    166 H166        0.2730  -18.1812  -37.1042 H         1 UNK         0.0600 
    167 H167       -1.0495  -18.3376  -38.2498 H         1 UNK         0.0600 
    168 H168        0.4395  -19.2447  -38.4993 H         1 UNK         0.0600 
    169 H169        2.5572  -17.7299  -39.4199 H         1 UNK         0.3000 
    170 H170        4.6526  -15.1669  -38.2971 H         1 UNK         0.0600 
    171 H171        4.7068  -16.6547  -36.2885 H         1 UNK         0.0600 
    172 H172        4.6569  -18.0761  -37.3242 H         1 UNK         0.0600 
    173 H173        6.0501  -16.9943  -37.3671 H         1 UNK         0.0600 
    174 H174        5.2020  -17.5823  -39.6939 H         1 UNK         0.3000 
    175 H175        5.8740  -17.0658  -42.1065 H         1 UNK         0.0600 
    176 H176        3.0176  -18.1884  -42.0800 H         1 UNK         0.0600 
    177 H177        4.2938  -18.7829  -43.1407 H         1 UNK         0.0600 
    178 H178        4.4537  -18.9355  -41.4027 H         1 UNK         0.0600 
    179 H179        3.6164  -16.4267  -43.8342 H         1 UNK         0.3000 
    180 H180        3.9627  -13.6190  -44.7109 H         1 UNK         0.0600 
    181 H181        6.4006  -14.5110  -46.3333 H         1 UNK         0.0600 
    182 H182        6.2588  -13.0353  -45.3865 H         1 UNK         0.0600 
    183 H183        5.2633  -13.2531  -46.8152 H         1 UNK         0.0600 
    184 H184        2.8110  -14.8244  -46.1360 H         1 UNK         0.3000 
    185 H185        3.4723  -17.4747  -48.3322 H         1 UNK         0.0600 
    186 H186        2.7733  -18.8291  -46.3453 H         1 UNK         0.0600 
    187 H187        1.5567  -17.6262  -45.9435 H         1 UNK         0.0600 
    188 H188        1.4318  -18.5516  -47.4413 H         1 UNK         0.0600 
    189 H189        1.1011  -15.9681  -47.7080 H         1 UNK         0.3000 
    190 H190       -3.4500  -20.1122  -45.4388 H         1 UNK         0.3000 
    191 H191       -5.1955  -21.3737  -47.2901 H         1 UNK         0.0600 
    192 H192       -5.2414  -21.3412  -44.2264 H         1 UNK         0.0600 
    193 H193       -6.5791  -21.8304  -45.2594 H         1 UNK         0.0600 
    194 H194       -6.0093  -20.1686  -45.2933 H         1 UNK         0.0600 
    195 H195       -3.1086  -22.7662  -44.7001 H         1 UNK         0.3000 
    196 H196       -3.8134  -25.4754  -45.0832 H         1 UNK         0.0600 
    197 H197       -1.7142  -25.9208  -43.7908 H         1 UNK         0.0600 
    198 H198       -2.6707  -24.6441  -43.0547 H         1 UNK         0.0600 
    199 H199       -1.2316  -24.2396  -43.9881 H         1 UNK         0.0600 
    200 H200       -1.2478  -23.5161  -46.6215 H         1 UNK         0.3000 
    201 H201       -0.1854  -25.6817  -48.2308 H         1 UNK         0.0600 
    202 H202        1.1672  -23.7091  -47.4978 H         1 UNK         0.0600 
    203 H203        0.1415  -22.6388  -48.4500 H         1 UNK         0.0600 
    204 H204        1.1479  -23.8463  -49.2458 H         1 UNK         0.0600 
    205 H205       -3.0728  -23.9359  -48.4846 H         1 UNK         0.3000 
    206 H206       -4.5866  -23.4411  -50.0132 H         1 UNK         0.0600 
    207 H207       -4.9902  -25.0334  -51.8618 H         1 UNK         0.0600 
    208 H208       -4.5806  -25.9128  -50.3981 H         1 UNK         0.0600 
    209 H209       -3.3820  -25.7205  -51.6760 H         1 UNK         0.0600 
    210 H210       -2.5295  -21.7234  -49.9808 H         1 UNK         0.3000 
    211 H211       -1.4778  -20.0658  -50.9841 H         1 UNK         0.0600 
    212 H212       -2.3351  -19.1143  -53.0877 H         1 UNK         0.0600 
    213 H213       -3.6737  -19.6254  -52.0698 H         1 UNK         0.0600 
    214 H214       -3.2072  -20.5943  -53.4584 H         1 UNK         0.0600 
    215 H215       -0.3269  -22.6415  -51.0289 H         1 UNK         0.3000 
    216 H216        1.4301  -23.8097  -51.6937 H         1 UNK         0.0600 
    217 H217        3.2527  -22.8283  -53.0118 H         1 UNK         0.0600 
    218 H218        2.7009  -21.6594  -51.8222 H         1 UNK         0.0600 
    219 H219        2.2427  -21.4836  -53.5157 H         1 UNK         0.0600 
    220 H220       -0.7987  -24.6371  -52.5399 H         1 UNK         0.3000 
    221 H221       -2.0169  -25.8203  -53.9503 H         1 UNK         0.0600 
    222 H222        0.6077  -26.3563  -55.4402 H         1 UNK         0.0600 
    223 H223        0.0323  -27.2368  -54.0255 H         1 UNK         0.0600 
    224 H224       -0.8584  -27.3219  -55.5364 H         1 UNK         0.0600 
    225 H225       -2.5376  -23.3103  -54.3595 H         1 UNK         0.3000 
    226 H226       -3.0140  -23.0567  -57.2852 H         1 UNK         0.0600 
    227 H227       -1.0914  -21.5457  -56.6853 H         1 UNK         0.0600 
    228 H228       -2.5175  -20.6576  -57.2018 H         1 UNK         0.0600 
    229 H229       -2.1105  -20.7440  -55.4951 H         1 UNK         0.0600 
    230 H230       -4.6201  -24.2668  -55.4226 H         1 UNK         0.3000 
    231 H231       -6.7224  -24.4623  -54.7430 H         1 UNK         0.0600 
    232 H232       -7.0334  -24.1263  -57.2072 H         1 UNK         0.0600 
    233 H233       -7.2957  -22.4034  -56.9397 H         1 UNK         0.0600 
    234 H234       -8.4317  -23.5833  -56.2974 H         1 UNK         0.0600 
    235 H235       -5.2348  -22.5271  -53.2062 H         1 UNK         0.3000 
    236 H236       -5.4238  -21.0177  -51.5776 H         1 UNK         0.0600 
    237 H237       -7.4420  -21.0066  -50.1885 H         1 UNK         0.0600 
    238 H238       -8.3873  -21.7503  -51.4711 H         1 UNK         0.0600 
    239 H239       -7.0877  -22.6506  -50.6907 H         1 UNK         0.0600 
    240 H240       -5.6293  -20.0528  -54.2887 H         1 UNK         0.3000 
    241 H241       -5.7458  -18.1774  -55.3650 H         1 UNK         0.0600 
    242 H242       -9.4543  -19.2903  -55.8692 H         1 UNK         0.3800 
    243 H243       -8.2967  -20.1358  -54.8757 H         1 UNK         0.3800 
    244 H244       -7.2352  -16.3958  -53.4657 H         1 UNK         0.0800 
    245 H245       -5.7819  -17.0329  -52.8121 H         1 UNK         0.0800 
    246 H246       -2.9308  -15.4999  -54.9194 H         1 UNK         0.0800 
    247 H247       -3.4476  -17.0664  -54.3599 H         1 UNK         0.0800 
@<TRIPOS>BOND
     1    1    2 1    
     2    1  127 1    
     3    1  128 1    
     4    1  129 1    
     5    2    3 2    
     6    2    4 am   BACKBONE|DICT|INTERRES
     7    4    5 1    
     8    4  130 1    
     9    5    6 1    
    10    5   65 1    
    11    5  131 1    
    12    6    7 1    
    13    6  132 1    
    14    6  133 1    
    15    7    8 1    
    16    8    9 1    
    17    8  134 1    
    18    8  135 1    
    19    9   10 ar   
    20    9   14 ar   
    21   10   11 ar   
    22   10  136 1    
    23   11   12 ar   
    24   11  126 1    
    25   12   13 ar   
    26   12  137 1    
    27   13   14 ar   
    28   13   15 1    
    29   14  138 1    
    30   15   16 1    
    31   15  139 1    
    32   15  140 1    
    33   16   17 1    
    34   17   18 1    
    35   17  141 1    
    36   17  142 1    
    37   18   19 1    
    38   18   67 1    
    39   18  143 1    
    40   19   20 am   BACKBONE|DICT|INTERRES
    41   19  144 1    
    42   20   21 2    
    43   20   22 1    
    44   22   23 1    
    45   22   24 1    
    46   22  145 1    
    47   23  146 1    
    48   23  147 1    
    49   23  148 1    
    50   24   25 am   BACKBONE|DICT|INTERRES
    51   24  149 1    
    52   25   26 2    
    53   25   27 1    
    54   27   28 1    
    55   27   29 1    
    56   27  150 1    
    57   28  151 1    
    58   28  152 1    
    59   28  153 1    
    60   29   30 am   BACKBONE|DICT|INTERRES
    61   29  154 1    
    62   30   31 2    
    63   30   32 1    
    64   32   33 1    
    65   32   34 1    
    66   32  155 1    
    67   33  156 1    
    68   33  157 1    
    69   33  158 1    
    70   34   35 am   BACKBONE|DICT|INTERRES
    71   34  159 1    
    72   35   36 2    
    73   35   37 1    
    74   37   38 1    
    75   37   39 1    
    76   37  160 1    
    77   38  161 1    
    78   38  162 1    
    79   38  163 1    
    80   39   40 am   BACKBONE|DICT|INTERRES
    81   39  164 1    
    82   40   41 2    
    83   40   42 1    
    84   42   43 1    
    85   42   44 1    
    86   42  165 1    
    87   43  166 1    
    88   43  167 1    
    89   43  168 1    
    90   44   45 am   BACKBONE|DICT|INTERRES
    91   44  169 1    
    92   45   46 2    
    93   45   47 1    
    94   47   48 1    
    95   47   49 1    
    96   47  170 1    
    97   48  171 1    
    98   48  172 1    
    99   48  173 1    
   100   49   50 am   BACKBONE|DICT|INTERRES
   101   49  174 1    
   102   50   51 2    
   103   50   52 1    
   104   52   53 1    
   105   52   54 1    
   106   52  175 1    
   107   53  176 1    
   108   53  177 1    
   109   53  178 1    
   110   54   55 am   BACKBONE|DICT|INTERRES
   111   54  179 1    
   112   55   56 2    
   113   55   57 1    
   114   57   58 1    
   115   57   59 1    
   116   57  180 1    
   117   58  181 1    
   118   58  182 1    
   119   58  183 1    
   120   59   60 am   BACKBONE|DICT|INTERRES
   121   59  184 1    
   122   60   61 2    
   123   60   62 1    
   124   62   63 1    
   125   62   64 1    
   126   62  185 1    
   127   63  186 1    
   128   63  187 1    
   129   63  188 1    
   130   64   65 am   BACKBONE|DICT|INTERRES
   131   64  189 1    
   132   65   66 2    
   133   67   68 2    
   134   67   69 am   BACKBONE|DICT|INTERRES
   135   69   70 1    
   136   69  190 1    
   137   70   71 1    
   138   70   72 1    
   139   70  191 1    
   140   71  192 1    
   141   71  193 1    
   142   71  194 1    
   143   72   73 2    
   144   72   74 am   BACKBONE|DICT|INTERRES
   145   74   75 1    
   146   74  195 1    
   147   75   76 1    
   148   75   77 1    
   149   75  196 1    
   150   76  197 1    
   151   76  198 1    
   152   76  199 1    
   153   77   78 2    
   154   77   79 am   BACKBONE|DICT|INTERRES
   155   79   80 1    
   156   79  200 1    
   157   80   81 1    
   158   80   82 1    
   159   80  201 1    
   160   81  202 1    
   161   81  203 1    
   162   81  204 1    
   163   82   83 2    
   164   82   84 am   BACKBONE|DICT|INTERRES
   165   84   85 1    
   166   84  205 1    
   167   85   86 1    
   168   85   87 1    
   169   85  206 1    
   170   86  207 1    
   171   86  208 1    
   172   86  209 1    
   173   87   88 2    
   174   87   89 am   BACKBONE|DICT|INTERRES
   175   89   90 1    
   176   89  210 1    
   177   90   91 1    
   178   90   92 1    
   179   90  211 1    
   180   91  212 1    
   181   91  213 1    
   182   91  214 1    
   183   92   93 2    
   184   92   94 am   BACKBONE|DICT|INTERRES
   185   94   95 1    
   186   94  215 1    
   187   95   96 1    
   188   95   97 1    
   189   95  216 1    
   190   96  217 1    
   191   96  218 1    
   192   96  219 1    
   193   97   98 2    
   194   97   99 am   BACKBONE|DICT|INTERRES
   195   99  100 1    
   196   99  220 1    
   197  100  101 1    
   198  100  102 1    
   199  100  221 1    
   200  101  222 1    
   201  101  223 1    
   202  101  224 1    
   203  102  103 2    
   204  102  104 am   BACKBONE|DICT|INTERRES
   205  104  105 1    
   206  104  225 1    
   207  105  106 1    
   208  105  107 1    
   209  105  226 1    
   210  106  227 1    
   211  106  228 1    
   212  106  229 1    
   213  107  108 2    
   214  107  109 am   BACKBONE|DICT|INTERRES
   215  109  110 1    
   216  109  230 1    
   217  110  111 1    
   218  110  112 1    
   219  110  231 1    
   220  111  232 1    
   221  111  233 1    
   222  111  234 1    
   223  112  113 2    
   224  112  114 am   BACKBONE|DICT|INTERRES
   225  114  115 1    
   226  114  235 1    
   227  115  116 1    
   228  115  117 1    
   229  115  236 1    
   230  116  237 1    
   231  116  238 1    
   232  116  239 1    
   233  117  118 2    
   234  117  119 am   BACKBONE|DICT|INTERRES
   235  119  120 1    
   236  119  240 1    
   237  120  121 1    
   238  120  124 1    
   239  120  241 1    
   240  121  122 am   BACKBONE|DICT|INTERRES
   241  121  123 2    
   242  122  242 1    
   243  122  243 1    
   244  124  125 1    
   245  124  244 1    
   246  124  245 1    
   247  125  126 1    
   248  126  246 1    
   249  126  247 1    
@<TRIPOS>SUBSTRUCTURE
     1 UNK         1 GROUP             0       ****    0 ROOT    
