@<TRIPOS>MOLECULE
3R540
247   249    1
SMALL
USER_CHARGES


@<TRIPOS>ATOM
      1 CA          5.7454   -9.5911  -49.8064 C.3       0 UNK        -0.1800 
      2 C           5.8756  -10.4775  -48.5755 C.2       0 UNK         0.5000 
      3 O           6.8567  -10.3639  -47.8397 O.2       0 UNK        -0.5000 
      4 N           4.8973  -11.3639  -48.3561 N.am      1 UNK        -0.5000 
      5 CA          4.8228  -12.2683  -47.2043 C.3       1 UNK         0.1400 
      6 C6          3.7382  -13.3526  -47.3926 C.3       23 UNK        -0.0398 
      7 S7          3.9473  -14.3882  -48.8777 S.3       23 UNK        -0.2404 
      8 C8          2.4863  -15.4431  -48.6544 C.3       23 UNK        -0.0205 
      9 C9          2.2492  -16.3844  -49.8203 C.ar      23 UNK        -0.0193 
     10 C10         1.4774  -15.9713  -50.9090 C.ar      23 UNK        -0.1150 
     11 C11         1.1983  -16.8564  -51.9530 C.ar      23 UNK        -0.0193 
     12 C12         1.6862  -18.1657  -51.8972 C.ar      23 UNK        -0.1150 
     13 C13         2.4603  -18.5901  -50.8132 C.ar      23 UNK        -0.0193 
     14 C14         2.7517  -17.6872  -49.7858 C.ar      23 UNK        -0.1150 
     15 C15         2.9871  -20.0190  -50.7617 C.3       23 UNK        -0.0205 
     16 S16         2.5581  -20.8797  -49.2128 S.3       23 UNK        -0.2404 
     17 C17         0.7355  -20.9008  -49.2888 C.3       23 UNK        -0.0398 
     18 CA          0.1317  -21.9761  -48.3545 C.3       11 UNK         0.1400 
     19 N           0.5164  -21.7770  -46.9560 N.am      11 UNK        -0.5000 
     20 C           0.3384  -22.6585  -45.9657 C.2       10 UNK         0.5000 
     21 O          -0.1555  -23.7725  -46.1393 O.2       10 UNK        -0.5000 
     22 CA          0.7036  -22.1979  -44.5395 C.3       10 UNK         0.1400 
     23 CB          1.3554  -23.3180  -43.7039 C.3       10 UNK        -0.1800 
     24 N           1.4921  -20.9606  -44.4980 N.am      10 UNK        -0.5000 
     25 C           2.7633  -20.7656  -44.8821 C.2       9 UNK         0.5000 
     26 O           3.4949  -21.6516  -45.3232 O.2       9 UNK        -0.5000 
     27 CA          3.3058  -19.3243  -44.7748 C.3       9 UNK         0.1400 
     28 CB          3.4012  -18.6859  -46.1686 C.3       9 UNK        -0.1800 
     29 N           2.4877  -18.4579  -43.9238 N.am      9 UNK        -0.5000 
     30 C           2.4092  -18.5387  -42.5887 C.2       8 UNK         0.5000 
     31 O           3.0795  -19.3137  -41.9062 O.2       8 UNK        -0.5000 
     32 CA          1.3687  -17.6296  -41.9138 C.3       8 UNK         0.1400 
     33 CB          1.9411  -16.2228  -41.6802 C.3       8 UNK        -0.1800 
     34 N           0.1335  -17.5466  -42.6999 N.am      8 UNK        -0.5000 
     35 C          -0.7978  -18.5117  -42.7437 C.2       7 UNK         0.5000 
     36 O          -0.7310  -19.5506  -42.0878 O.2       7 UNK        -0.5000 
     37 CA         -1.9863  -18.3087  -43.7023 C.3       7 UNK         0.1400 
     38 CB         -3.1508  -17.6053  -42.9924 C.3       7 UNK        -0.1800 
     39 N          -1.6151  -17.5516  -44.8975 N.am      7 UNK        -0.5000 
     40 C          -0.9655  -18.0807  -45.9438 C.2       6 UNK         0.5000 
     41 O          -0.7011  -19.2787  -46.0435 O.2       6 UNK        -0.5000 
     42 CA         -0.5062  -17.1220  -47.0587 C.3       6 UNK         0.1400 
     43 CB         -1.4803  -17.1554  -48.2445 C.3       6 UNK        -0.1800 
     44 N          -0.3230  -15.7381  -46.6134 N.am      6 UNK        -0.5000 
     45 C           0.5700  -15.3471  -45.6943 C.2       5 UNK         0.5000 
     46 O           1.3198  -16.1287  -45.1096 O.2       5 UNK        -0.5000 
     47 CA          0.6507  -13.8480  -45.3601 C.3       5 UNK         0.1400 
     48 CB         -0.1599  -12.9342  -46.3058 C.3       5 UNK        -0.1800 
     49 N           0.3111  -13.5853  -43.9646 N.am      5 UNK        -0.5000 
     50 C          -0.8532  -13.8277  -43.3465 C.2       4 UNK         0.5000 
     51 O          -1.7967  -14.4057  -43.8888 O.2       4 UNK        -0.5000 
     52 CA         -0.9921  -13.3605  -41.8791 C.3       4 UNK         0.1400 
     53 CB         -1.6363  -14.4445  -40.9977 C.3       4 UNK        -0.1800 
     54 N           0.2750  -12.9451  -41.2686 N.am      4 UNK        -0.5000 
     55 C           0.8798  -11.7621  -41.4422 C.2       3 UNK         0.5000 
     56 O           0.4157  -10.8556  -42.1352 O.2       3 UNK        -0.5000 
     57 CA          2.2409  -11.5542  -40.7423 C.3       3 UNK         0.1400 
     58 CB          2.6889  -12.7422  -39.8595 C.3       3 UNK        -0.1800 
     59 N           3.3115  -11.2034  -41.6827 N.am      3 UNK        -0.5000 
     60 C           3.7115  -11.8992  -42.7575 C.2       2 UNK         0.5000 
     61 O           3.1647  -12.9307  -43.1579 O.2       2 UNK        -0.5000 
     62 CA          4.9772  -11.3683  -43.4591 C.3       2 UNK         0.1400 
     63 CB          6.2271  -11.7038  -42.6282 C.3       2 UNK        -0.1800 
     64 N           5.1506  -11.9386  -44.7954 N.am      2 UNK        -0.5000 
     65 C           4.5477  -11.4859  -45.9000 C.2       1 UNK         0.5000 
     66 O           3.7837  -10.5169  -45.9144 O.2       1 UNK        -0.5000 
     67 C          -1.4012  -22.0331  -48.5001 C.2       11 UNK         0.5000 
     68 O          -1.9067  -22.8564  -49.2616 O.2       11 UNK        -0.5000 
     69 N          -2.1153  -21.2008  -47.7258 N.am      12 UNK        -0.5000 
     70 CA         -3.5778  -21.2013  -47.6472 C.3       12 UNK         0.1400 
     71 CB         -4.0567  -19.9438  -46.9079 C.3       12 UNK        -0.1800 
     72 C          -4.1292  -22.4685  -46.9680 C.2       12 UNK         0.5000 
     73 O          -5.1790  -22.9677  -47.3746 O.2       12 UNK        -0.5000 
     74 N          -3.3958  -22.9792  -45.9683 N.am      13 UNK        -0.5000 
     75 CA         -3.7112  -24.2184  -45.2589 C.3       13 UNK         0.1400 
     76 CB         -2.8899  -24.3037  -43.9632 C.3       13 UNK        -0.1800 
     77 C          -3.4883  -25.4545  -46.1465 C.2       13 UNK         0.5000 
     78 O          -4.3574  -26.3242  -46.1963 O.2       13 UNK        -0.5000 
     79 N          -2.3635  -25.4820  -46.8773 N.am      14 UNK        -0.5000 
     80 CA         -2.0305  -26.5095  -47.8694 C.3       14 UNK         0.1400 
     81 CB         -0.5999  -26.2785  -48.3788 C.3       14 UNK        -0.1800 
     82 C          -3.0263  -26.5517  -49.0453 C.2       14 UNK         0.5000 
     83 O          -3.3642  -27.6342  -49.5245 O.2       14 UNK        -0.5000 
     84 N          -3.5102  -25.3715  -49.4525 N.am      15 UNK        -0.5000 
     85 CA         -4.5745  -25.1802  -50.4369 C.3       15 UNK         0.1400 
     86 CB         -4.5913  -23.6974  -50.8376 C.3       15 UNK        -0.1800 
     87 C          -5.9759  -25.5813  -49.9369 C.2       15 UNK         0.5000 
     88 O          -6.8997  -25.6504  -50.7503 O.2       15 UNK        -0.5000 
     89 N          -6.1370  -25.7498  -48.6147 N.am      16 UNK        -0.5000 
     90 CA         -7.4008  -25.9360  -47.8895 C.3       16 UNK         0.1400 
     91 CB         -8.0081  -27.3168  -48.2108 C.3       16 UNK        -0.1800 
     92 C          -8.3964  -24.7755  -48.1195 C.2       16 UNK         0.5000 
     93 O          -9.6096  -24.9896  -48.1081 O.2       16 UNK        -0.5000 
     94 N          -7.8493  -23.5749  -48.3710 N.am      17 UNK        -0.5000 
     95 CA         -8.5216  -22.3441  -48.7984 C.3       17 UNK         0.1400 
     96 CB         -9.3745  -21.7736  -47.6469 C.3       17 UNK        -0.1800 
     97 C          -9.3170  -22.4754  -50.1214 C.2       17 UNK         0.5000 
     98 O         -10.2202  -21.6716  -50.3605 O.2       17 UNK        -0.5000 
     99 N          -8.9807  -23.4709  -50.9556 N.am      18 UNK        -0.5000 
    100 CA        -9.6951  -23.8042  -52.1876 C.3       18 UNK         0.1400 
    101 CB       -10.4272  -25.1444  -52.0013 C.3       18 UNK        -0.1800 
    102 C         -8.7375  -23.8526  -53.3858 C.2       18 UNK         0.5000 
    103 O         -8.9090  -23.0872  -54.3356 O.2       18 UNK        -0.5000 
    104 N         -7.7292  -24.7308  -53.3219 N.am      19 UNK        -0.5000 
    105 CA        -6.7345  -24.9559  -54.3732 C.3       19 UNK         0.1400 
    106 CB        -6.2890  -26.4285  -54.3150 C.3       19 UNK        -0.1800 
    107 C         -5.5590  -23.9715  -54.2241 C.2       19 UNK         0.5000 
    108 O         -4.4197  -24.3949  -54.0228 O.2       19 UNK        -0.5000 
    109 N         -5.8844  -22.6715  -54.2447 N.am      20 UNK        -0.5000 
    110 CA        -5.0060  -21.5452  -53.9290 C.3       20 UNK         0.1400 
    111 CB        -5.7874  -20.2343  -54.1084 C.3       20 UNK        -0.1800 
    112 C         -3.7054  -21.5197  -54.7513 C.2       20 UNK         0.5000 
    113 O         -3.7568  -21.4352  -55.9808 O.2       20 UNK        -0.5000 
    114 N         -2.5661  -21.5426  -54.0454 N.am      21 UNK        -0.5000 
    115 CA        -1.2138  -21.4763  -54.6100 C.3       21 UNK         0.1400 
    116 CB        -0.1957  -21.6785  -53.4756 C.3       21 UNK        -0.1800 
    117 C         -0.9239  -20.1586  -55.3556 C.2       21 UNK         0.5000 
    118 O         -0.0758  -20.1346  -56.2480 O.2       21 UNK        -0.5000 
    119 N         -1.6437  -19.0967  -54.9769 N.am      22 UNK        -0.5000 
    120 CA        -1.5861  -17.7608  -55.5845 C.3       22 UNK         0.1400 
    121 C         -2.3434  -17.6413  -56.9409 C.2       22 UNK         0.5000 
    122 N         -3.0829  -18.6502  -57.3901 N.am      22 UNK        -0.7600 
    123 O         -2.2531  -16.6115  -57.6035 O.2       22 UNK        -0.5000 
    124 C124       -2.0396  -16.6513  -54.5936 C.3       23 UNK        -0.0398 
    125 S125       -1.3833  -16.8410  -52.8974 S.3       23 UNK        -0.2404 
    126 C126        0.3641  -16.4063  -53.1395 C.3       23 UNK        -0.0205 
    127 H127        4.8376   -9.8097  -50.3694 H         1 UNK         0.0600 
    128 H128        6.5992   -9.7390  -50.4676 H         1 UNK         0.0600 
    129 H129        5.7183   -8.5420  -49.5118 H         1 UNK         0.0600 
    130 H130        4.1154  -11.4063  -48.9935 H         1 UNK         0.3000 
    131 H131        5.7907  -12.7660  -47.1110 H         1 UNK         0.0600 
    132 H132        2.7535  -12.8853  -47.4476 H         1 UNK         0.0800 
    133 H133        3.7266  -14.0200  -46.5284 H         1 UNK         0.0800 
    134 H134        1.6064  -14.8129  -48.5226 H         1 UNK         0.0800 
    135 H135        2.6018  -16.0175  -47.7345 H         1 UNK         0.0800 
    136 H136        1.0848  -14.9645  -50.9384 H         1 UNK         0.1150 
    137 H137        1.4591  -18.8526  -52.7005 H         1 UNK         0.1150 
    138 H138        3.3527  -18.0080  -48.9475 H         1 UNK         0.1150 
    139 H139        2.6154  -20.6034  -51.6049 H         1 UNK         0.0800 
    140 H140        4.0730  -19.9940  -50.8596 H         1 UNK         0.0800 
    141 H141        0.4351  -21.0856  -50.3215 H         1 UNK         0.0800 
    142 H142        0.3673  -19.9062  -49.0300 H         1 UNK         0.0800 
    143 H143        0.5199  -22.9482  -48.6663 H         1 UNK         0.0600 
    144 H144        0.8662  -20.8615  -46.7128 H         1 UNK         0.3000 
    145 H145       -0.2454  -21.9508  -44.0615 H         1 UNK         0.0600 
    146 H146        1.5995  -22.9697  -42.7003 H         1 UNK         0.0600 
    147 H147        0.6811  -24.1682  -43.5959 H         1 UNK         0.0600 
    148 H148        2.2710  -23.6895  -44.1642 H         1 UNK         0.0600 
    149 H149        0.9882  -20.1470  -44.1751 H         1 UNK         0.3000 
    150 H150        4.3099  -19.3782  -44.3494 H         1 UNK         0.0600 
    151 H151        4.0534  -19.2678  -46.8212 H         1 UNK         0.0600 
    152 H152        3.8107  -17.6769  -46.1155 H         1 UNK         0.0600 
    153 H153        2.4245  -18.6274  -46.6491 H         1 UNK         0.0600 
    154 H154        1.9582  -17.7267  -44.3931 H         1 UNK         0.3000 
    155 H155        1.1351  -18.0608  -40.9378 H         1 UNK         0.0600 
    156 H156        2.8868  -16.2717  -41.1391 H         1 UNK         0.0600 
    157 H157        1.2622  -15.6207  -41.0804 H         1 UNK         0.0600 
    158 H158        2.1288  -15.6930  -42.6144 H         1 UNK         0.0600 
    159 H159        0.0517  -16.7615  -43.3304 H         1 UNK         0.3000 
    160 H160       -2.3320  -19.2994  -44.0043 H         1 UNK         0.0600 
    161 H161       -2.8814  -16.5976  -42.6796 H         1 UNK         0.0600 
    162 H162       -3.4568  -18.1558  -42.1019 H         1 UNK         0.0600 
    163 H163       -4.0212  -17.5315  -43.6446 H         1 UNK         0.0600 
    164 H164       -1.7978  -16.5558  -44.8839 H         1 UNK         0.3000 
    165 H165        0.4596  -17.4861  -47.4131 H         1 UNK         0.0600 
    166 H166       -1.1058  -16.5609  -49.0784 H         1 UNK         0.0600 
    167 H167       -1.6154  -18.1732  -48.6131 H         1 UNK         0.0600 
    168 H168       -2.4631  -16.7706  -47.9698 H         1 UNK         0.0600 
    169 H169       -0.9292  -15.0443  -47.0267 H         1 UNK         0.3000 
    170 H170        1.6994  -13.5739  -45.4536 H         1 UNK         0.0600 
    171 H171        0.1400  -13.0716  -47.3453 H         1 UNK         0.0600 
    172 H172       -1.2330  -13.1162  -46.2406 H         1 UNK         0.0600 
    173 H173        0.0086  -11.8846  -46.0637 H         1 UNK         0.0600 
    174 H174        1.0642  -13.1809  -43.4197 H         1 UNK         0.3000 
    175 H175       -1.6645  -12.5004  -41.8878 H         1 UNK         0.0600 
    176 H176       -2.6564  -14.6522  -41.3220 H         1 UNK         0.0600 
    177 H177       -1.0836  -15.3831  -41.0329 H         1 UNK         0.0600 
    178 H178       -1.6938  -14.1265  -39.9566 H         1 UNK         0.0600 
    179 H179        0.7384  -13.6317  -40.6923 H         1 UNK         0.3000 
    180 H180        2.1101  -10.6915  -40.0875 H         1 UNK         0.0600 
    181 H181        2.8673  -13.6450  -40.4442 H         1 UNK         0.0600 
    182 H182        1.9463  -12.9744  -39.0950 H         1 UNK         0.0600 
    183 H183        3.6158  -12.5060  -39.3366 H         1 UNK         0.0600 
    184 H184        3.8090  -10.3528  -41.4598 H         1 UNK         0.3000 
    185 H185        4.8964  -10.2821  -43.5413 H         1 UNK         0.0600 
    186 H186        6.1728  -11.2597  -41.6335 H         1 UNK         0.0600 
    187 H187        6.3476  -12.7803  -42.4993 H         1 UNK         0.0600 
    188 H188        7.1305  -11.3196  -43.1023 H         1 UNK         0.0600 
    189 H189        5.7244  -12.7674  -44.8501 H         1 UNK         0.3000 
    190 H190       -1.6190  -20.5620  -47.1100 H         1 UNK         0.3000 
    191 H191       -3.9738  -21.1655  -48.6638 H         1 UNK         0.0600 
    192 H192       -3.6812  -19.9095  -45.8855 H         1 UNK         0.0600 
    193 H193       -5.1460  -19.9123  -46.8579 H         1 UNK         0.0600 
    194 H194       -3.7307  -19.0374  -47.4170 H         1 UNK         0.0600 
    195 H195       -2.5321  -22.5209  -45.7244 H         1 UNK         0.3000 
    196 H196       -4.7681  -24.1913  -44.9844 H         1 UNK         0.0600 
    197 H197       -3.1581  -25.1941  -43.3934 H         1 UNK         0.0600 
    198 H198       -3.0729  -23.4412  -43.3221 H         1 UNK         0.0600 
    199 H199       -1.8195  -24.3546  -44.1595 H         1 UNK         0.0600 
    200 H200       -1.6679  -24.7548  -46.7315 H         1 UNK         0.3000 
    201 H201       -2.0644  -27.4796  -47.3695 H         1 UNK         0.0600 
    202 H202        0.1201  -26.3127  -47.5609 H         1 UNK         0.0600 
    203 H203       -0.5002  -25.3106  -48.8710 H         1 UNK         0.0600 
    204 H204       -0.3122  -27.0455  -49.0989 H         1 UNK         0.0600 
    205 H205       -3.1091  -24.5265  -49.0604 H         1 UNK         0.3000 
    206 H206       -4.3545  -25.7815  -51.3211 H         1 UNK         0.0600 
    207 H207       -3.6939  -23.4335  -51.3971 H         1 UNK         0.0600 
    208 H208       -5.4530  -23.4623  -51.4603 H         1 UNK         0.0600 
    209 H209       -4.6485  -23.0446  -49.9692 H         1 UNK         0.0600 
    210 H210       -5.3174  -25.6726  -48.0253 H         1 UNK         0.3000 
    211 H211       -7.1511  -25.9187  -46.8278 H         1 UNK         0.0600 
    212 H212       -8.3456  -27.3801  -49.2458 H         1 UNK         0.0600 
    213 H213       -8.8680  -27.5245  -47.5732 H         1 UNK         0.0600 
    214 H214       -7.2826  -28.1132  -48.0450 H         1 UNK         0.0600 
    215 H215       -6.8412  -23.4970  -48.2645 H         1 UNK         0.3000 
    216 H216       -7.7249  -21.6273  -49.0017 H         1 UNK         0.0600 
    217 H217       -9.7568  -20.7823  -47.8930 H         1 UNK         0.0600 
    218 H218       -8.7866  -21.6739  -46.7343 H         1 UNK         0.0600 
    219 H219      -10.2321  -22.4097  -47.4261 H         1 UNK         0.0600 
    220 H220       -8.2222  -24.0925  -50.6978 H         1 UNK         0.3000 
    221 H221      -10.4463  -23.0455  -52.4161 H         1 UNK         0.0600 
    222 H222       -9.7429  -25.9474  -51.7239 H         1 UNK         0.0600 
    223 H223      -11.1820  -25.0700  -51.2182 H         1 UNK         0.0600 
    224 H224      -10.9368  -25.4446  -52.9178 H         1 UNK         0.0600 
    225 H225       -7.5929  -25.2599  -52.4645 H         1 UNK         0.3000 
    226 H226       -7.1864  -24.7829  -55.3521 H         1 UNK         0.0600 
    227 H227       -7.1344  -27.1005  -54.4630 H         1 UNK         0.0600 
    228 H228       -5.5592  -26.6487  -55.0951 H         1 UNK         0.0600 
    229 H229       -5.8319  -26.6738  -53.3554 H         1 UNK         0.0600 
    230 H230       -6.8561  -22.4453  -54.4200 H         1 UNK         0.3000 
    231 H231       -4.7451  -21.6271  -52.8732 H         1 UNK         0.0600 
    232 H232       -6.6598  -20.2019  -53.4553 H         1 UNK         0.0600 
    233 H233       -6.1330  -20.1101  -55.1356 H         1 UNK         0.0600 
    234 H234       -5.1673  -19.3707  -53.8642 H         1 UNK         0.0600 
    235 H235       -2.6194  -21.6258  -53.0410 H         1 UNK         0.3000 
    236 H236       -1.1069  -22.2939  -55.3257 H         1 UNK         0.0600 
    237 H237        0.8251  -21.6722  -53.8600 H         1 UNK         0.0600 
    238 H238       -0.2682  -20.8887  -52.7269 H         1 UNK         0.0600 
    239 H239       -0.3465  -22.6341  -52.9728 H         1 UNK         0.0600 
    240 H240       -2.3009  -19.2090  -54.2206 H         1 UNK         0.3000 
    241 H241       -0.5408  -17.5670  -55.8288 H         1 UNK         0.0600 
    242 H242       -3.5620  -18.5555  -58.2717 H         1 UNK         0.3800 
    243 H243       -3.1665  -19.5131  -56.8679 H         1 UNK         0.3800 
    244 H244       -1.7580  -15.6665  -54.9701 H         1 UNK         0.0800 
    245 H245       -3.1281  -16.6431  -54.5142 H         1 UNK         0.0800 
    246 H246        0.4544  -15.3293  -53.2883 H         1 UNK         0.0800 
    247 H247        0.7490  -16.8774  -54.0440 H         1 UNK         0.0800 
@<TRIPOS>BOND
     1    1    2 1    
     2    1  127 1    
     3    1  128 1    
     4    1  129 1    
     5    2    3 2    
     6    2    4 am   BACKBONE|DICT|INTERRES
     7    4    5 1    
     8    4  130 1    
     9    5    6 1    
    10    5   65 1    
    11    5  131 1    
    12    6    7 1    
    13    6  132 1    
    14    6  133 1    
    15    7    8 1    
    16    8    9 1    
    17    8  134 1    
    18    8  135 1    
    19    9   10 ar   
    20    9   14 ar   
    21   10   11 ar   
    22   10  136 1    
    23   11   12 ar   
    24   11  126 1    
    25   12   13 ar   
    26   12  137 1    
    27   13   14 ar   
    28   13   15 1    
    29   14  138 1    
    30   15   16 1    
    31   15  139 1    
    32   15  140 1    
    33   16   17 1    
    34   17   18 1    
    35   17  141 1    
    36   17  142 1    
    37   18   19 1    
    38   18   67 1    
    39   18  143 1    
    40   19   20 am   BACKBONE|DICT|INTERRES
    41   19  144 1    
    42   20   21 2    
    43   20   22 1    
    44   22   23 1    
    45   22   24 1    
    46   22  145 1    
    47   23  146 1    
    48   23  147 1    
    49   23  148 1    
    50   24   25 am   BACKBONE|DICT|INTERRES
    51   24  149 1    
    52   25   26 2    
    53   25   27 1    
    54   27   28 1    
    55   27   29 1    
    56   27  150 1    
    57   28  151 1    
    58   28  152 1    
    59   28  153 1    
    60   29   30 am   BACKBONE|DICT|INTERRES
    61   29  154 1    
    62   30   31 2    
    63   30   32 1    
    64   32   33 1    
    65   32   34 1    
    66   32  155 1    
    67   33  156 1    
    68   33  157 1    
    69   33  158 1    
    70   34   35 am   BACKBONE|DICT|INTERRES
    71   34  159 1    
    72   35   36 2    
    73   35   37 1    
    74   37   38 1    
    75   37   39 1    
    76   37  160 1    
    77   38  161 1    
    78   38  162 1    
    79   38  163 1    
    80   39   40 am   BACKBONE|DICT|INTERRES
    81   39  164 1    
    82   40   41 2    
    83   40   42 1    
    84   42   43 1    
    85   42   44 1    
    86   42  165 1    
    87   43  166 1    
    88   43  167 1    
    89   43  168 1    
    90   44   45 am   BACKBONE|DICT|INTERRES
    91   44  169 1    
    92   45   46 2    
    93   45   47 1    
    94   47   48 1    
    95   47   49 1    
    96   47  170 1    
    97   48  171 1    
    98   48  172 1    
    99   48  173 1    
   100   49   50 am   BACKBONE|DICT|INTERRES
   101   49  174 1    
   102   50   51 2    
   103   50   52 1    
   104   52   53 1    
   105   52   54 1    
   106   52  175 1    
   107   53  176 1    
   108   53  177 1    
   109   53  178 1    
   110   54   55 am   BACKBONE|DICT|INTERRES
   111   54  179 1    
   112   55   56 2    
   113   55   57 1    
   114   57   58 1    
   115   57   59 1    
   116   57  180 1    
   117   58  181 1    
   118   58  182 1    
   119   58  183 1    
   120   59   60 am   BACKBONE|DICT|INTERRES
   121   59  184 1    
   122   60   61 2    
   123   60   62 1    
   124   62   63 1    
   125   62   64 1    
   126   62  185 1    
   127   63  186 1    
   128   63  187 1    
   129   63  188 1    
   130   64   65 am   BACKBONE|DICT|INTERRES
   131   64  189 1    
   132   65   66 2    
   133   67   68 2    
   134   67   69 am   BACKBONE|DICT|INTERRES
   135   69   70 1    
   136   69  190 1    
   137   70   71 1    
   138   70   72 1    
   139   70  191 1    
   140   71  192 1    
   141   71  193 1    
   142   71  194 1    
   143   72   73 2    
   144   72   74 am   BACKBONE|DICT|INTERRES
   145   74   75 1    
   146   74  195 1    
   147   75   76 1    
   148   75   77 1    
   149   75  196 1    
   150   76  197 1    
   151   76  198 1    
   152   76  199 1    
   153   77   78 2    
   154   77   79 am   BACKBONE|DICT|INTERRES
   155   79   80 1    
   156   79  200 1    
   157   80   81 1    
   158   80   82 1    
   159   80  201 1    
   160   81  202 1    
   161   81  203 1    
   162   81  204 1    
   163   82   83 2    
   164   82   84 am   BACKBONE|DICT|INTERRES
   165   84   85 1    
   166   84  205 1    
   167   85   86 1    
   168   85   87 1    
   169   85  206 1    
   170   86  207 1    
   171   86  208 1    
   172   86  209 1    
   173   87   88 2    
   174   87   89 am   BACKBONE|DICT|INTERRES
   175   89   90 1    
   176   89  210 1    
   177   90   91 1    
   178   90   92 1    
   179   90  211 1    
   180   91  212 1    
   181   91  213 1    
   182   91  214 1    
   183   92   93 2    
   184   92   94 am   BACKBONE|DICT|INTERRES
   185   94   95 1    
   186   94  215 1    
   187   95   96 1    
   188   95   97 1    
   189   95  216 1    
   190   96  217 1    
   191   96  218 1    
   192   96  219 1    
   193   97   98 2    
   194   97   99 am   BACKBONE|DICT|INTERRES
   195   99  100 1    
   196   99  220 1    
   197  100  101 1    
   198  100  102 1    
   199  100  221 1    
   200  101  222 1    
   201  101  223 1    
   202  101  224 1    
   203  102  103 2    
   204  102  104 am   BACKBONE|DICT|INTERRES
   205  104  105 1    
   206  104  225 1    
   207  105  106 1    
   208  105  107 1    
   209  105  226 1    
   210  106  227 1    
   211  106  228 1    
   212  106  229 1    
   213  107  108 2    
   214  107  109 am   BACKBONE|DICT|INTERRES
   215  109  110 1    
   216  109  230 1    
   217  110  111 1    
   218  110  112 1    
   219  110  231 1    
   220  111  232 1    
   221  111  233 1    
   222  111  234 1    
   223  112  113 2    
   224  112  114 am   BACKBONE|DICT|INTERRES
   225  114  115 1    
   226  114  235 1    
   227  115  116 1    
   228  115  117 1    
   229  115  236 1    
   230  116  237 1    
   231  116  238 1    
   232  116  239 1    
   233  117  118 2    
   234  117  119 am   BACKBONE|DICT|INTERRES
   235  119  120 1    
   236  119  240 1    
   237  120  121 1    
   238  120  124 1    
   239  120  241 1    
   240  121  122 am   BACKBONE|DICT|INTERRES
   241  121  123 2    
   242  122  242 1    
   243  122  243 1    
   244  124  125 1    
   245  124  244 1    
   246  124  245 1    
   247  125  126 1    
   248  126  246 1    
   249  126  247 1    
@<TRIPOS>SUBSTRUCTURE
     1 UNK         1 GROUP             0       ****    0 ROOT    
