@<TRIPOS>MOLECULE
3R540
247   249    1
SMALL
USER_CHARGES


@<TRIPOS>ATOM
      1 CA          6.0420  -11.5973  -48.6892 C.3       0 UNK        -0.1800 
      2 C           5.7800  -13.0926  -48.8018 C.2       0 UNK         0.5000 
      3 O           6.6384  -13.8309  -49.2861 O.2       0 UNK        -0.5000 
      4 N           4.5949  -13.5370  -48.3670 N.am      1 UNK        -0.5000 
      5 CA          4.1746  -14.9422  -48.3448 C.3       1 UNK         0.1400 
      6 C6          2.6496  -15.0874  -48.0931 C.3       23 UNK        -0.0398 
      7 S7          1.6068  -14.0663  -49.1993 S.3       23 UNK        -0.2404 
      8 C8          1.8799  -14.8008  -50.8467 C.3       23 UNK        -0.0205 
      9 C9          1.2649  -16.1855  -50.9574 C.ar      23 UNK        -0.0193 
     10 C10        -0.0544  -16.3445  -51.3926 C.ar      23 UNK        -0.1150 
     11 C11        -0.6315  -17.6168  -51.4464 C.ar      23 UNK        -0.0193 
     12 C12         0.1119  -18.7288  -51.0415 C.ar      23 UNK        -0.1150 
     13 C13         1.4308  -18.5785  -50.6067 C.ar      23 UNK        -0.0193 
     14 C14         2.0118  -17.3097  -50.6006 C.ar      23 UNK        -0.1150 
     15 C15         2.2071  -19.7733  -50.0769 C.3       23 UNK        -0.0205 
     16 S16         2.6328  -19.5803  -48.3117 S.3       23 UNK        -0.2404 
     17 C17         1.0169  -19.2233  -47.5418 C.3       23 UNK        -0.0398 
     18 CA          0.3466  -20.4786  -46.9400 C.3       11 UNK         0.1400 
     19 N          -0.5587  -20.1252  -45.8472 N.am      11 UNK        -0.5000 
     20 C          -1.1074  -21.0012  -44.9963 C.2       10 UNK         0.5000 
     21 O          -0.8644  -22.2073  -44.9997 O.2       10 UNK        -0.5000 
     22 CA         -2.1399  -20.4326  -44.0110 C.3       10 UNK         0.1400 
     23 CB         -1.4421  -19.8768  -42.7646 C.3       10 UNK        -0.1800 
     24 N          -2.9617  -19.3893  -44.6287 N.am      10 UNK        -0.5000 
     25 C          -3.8917  -19.6379  -45.5633 C.2       9 UNK         0.5000 
     26 O          -4.1778  -20.7718  -45.9472 O.2       9 UNK        -0.5000 
     27 CA         -4.5888  -18.4252  -46.2100 C.3       9 UNK         0.1400 
     28 CB         -5.7957  -17.9860  -45.3681 C.3       9 UNK        -0.1800 
     29 N          -3.6984  -17.2806  -46.4082 N.am      9 UNK        -0.5000 
     30 C          -2.6113  -17.2776  -47.1931 C.2       8 UNK         0.5000 
     31 O          -2.2588  -18.2406  -47.8694 O.2       8 UNK        -0.5000 
     32 CA         -1.7407  -16.0065  -47.1890 C.3       8 UNK         0.1400 
     33 CB         -2.1084  -15.1054  -48.3765 C.3       8 UNK        -0.1800 
     34 N          -1.8292  -15.2317  -45.9467 N.am      8 UNK        -0.5000 
     35 C          -1.4943  -15.6864  -44.7308 C.2       7 UNK         0.5000 
     36 O          -1.0669  -16.8263  -44.5357 O.2       7 UNK        -0.5000 
     37 CA         -1.6936  -14.6887  -43.5709 C.3       7 UNK         0.1400 
     38 CB         -3.1771  -14.2950  -43.4057 C.3       7 UNK        -0.1800 
     39 N          -1.1194  -15.1371  -42.2983 N.am      7 UNK        -0.5000 
     40 C          -1.5145  -16.1432  -41.5010 C.2       6 UNK         0.5000 
     41 O          -2.5237  -16.8212  -41.6989 O.2       6 UNK        -0.5000 
     42 CA         -0.6439  -16.4229  -40.2551 C.3       6 UNK         0.1400 
     43 CB         -0.4588  -17.9277  -39.9965 C.3       6 UNK        -0.1800 
     44 N           0.6793  -15.8135  -40.3850 N.am      6 UNK        -0.5000 
     45 C           1.1812  -14.8437  -39.6096 C.2       5 UNK         0.5000 
     46 O           0.6030  -14.3887  -38.6220 O.2       5 UNK        -0.5000 
     47 CA          2.5543  -14.2612  -40.0144 C.3       5 UNK         0.1400 
     48 CB          3.6738  -14.8986  -39.1775 C.3       5 UNK        -0.1800 
     49 N           2.8764  -14.4233  -41.4362 N.am      5 UNK        -0.5000 
     50 C           2.1726  -13.9037  -42.4516 C.2       4 UNK         0.5000 
     51 O           1.2015  -13.1634  -42.2960 O.2       4 UNK        -0.5000 
     52 CA          2.5715  -14.3230  -43.8807 C.3       4 UNK         0.1400 
     53 CB          3.4738  -13.2439  -44.4995 C.3       4 UNK        -0.1800 
     54 N           3.2106  -15.6442  -44.0063 N.am      4 UNK        -0.5000 
     55 C           2.7188  -16.8067  -43.5392 C.2       3 UNK         0.5000 
     56 O           1.6909  -16.8811  -42.8671 O.2       3 UNK        -0.5000 
     57 CA          3.5040  -18.0948  -43.8545 C.3       3 UNK         0.1400 
     58 CB          2.5999  -19.3413  -43.8750 C.3       3 UNK        -0.1800 
     59 N           4.2052  -17.9840  -45.1334 N.am      3 UNK        -0.5000 
     60 C           5.5191  -18.1676  -45.3144 C.2       2 UNK         0.5000 
     61 O           6.2917  -18.5162  -44.4208 O.2       2 UNK        -0.5000 
     62 CA          6.0798  -17.8932  -46.7264 C.3       2 UNK         0.1400 
     63 CB          6.3563  -19.2102  -47.4679 C.3       2 UNK        -0.1800 
     64 N           5.2398  -17.0269  -47.5658 N.am      2 UNK        -0.5000 
     65 C           4.9841  -15.7387  -47.2969 C.2       1 UNK         0.5000 
     66 O           5.3401  -15.1882  -46.2523 O.2       1 UNK        -0.5000 
     67 C          -0.3784  -21.3231  -48.0095 C.2       11 UNK         0.5000 
     68 O           0.1543  -22.3424  -48.4450 O.2       11 UNK        -0.5000 
     69 N          -1.6057  -20.9180  -48.3660 N.am      12 UNK        -0.5000 
     70 CA         -2.5097  -21.6386  -49.2612 C.3       12 UNK         0.1400 
     71 CB         -3.7792  -20.8040  -49.4827 C.3       12 UNK        -0.1800 
     72 C          -2.8707  -23.0353  -48.7278 C.2       12 UNK         0.5000 
     73 O          -2.8360  -24.0017  -49.4883 O.2       12 UNK        -0.5000 
     74 N          -3.1746  -23.1267  -47.4253 N.am      13 UNK        -0.5000 
     75 CA         -3.4402  -24.3835  -46.7262 C.3       13 UNK         0.1400 
     76 CB         -3.9567  -24.0948  -45.3097 C.3       13 UNK        -0.1800 
     77 C          -2.2172  -25.3177  -46.6957 C.2       13 UNK         0.5000 
     78 O          -2.3663  -26.5086  -46.9687 O.2       13 UNK        -0.5000 
     79 N          -1.0273  -24.7615  -46.4242 N.am      14 UNK        -0.5000 
     80 CA          0.2533  -25.4753  -46.4615 C.3       14 UNK         0.1400 
     81 CB          1.3631  -24.5718  -45.9027 C.3       14 UNK        -0.1800 
     82 C           0.6188  -25.9860  -47.8700 C.2       14 UNK         0.5000 
     83 O           1.1634  -27.0829  -47.9981 O.2       14 UNK        -0.5000 
     84 N           0.2734  -25.2025  -48.9001 N.am      15 UNK        -0.5000 
     85 CA          0.4064  -25.5513  -50.3162 C.3       15 UNK         0.1400 
     86 CB          0.3673  -24.2571  -51.1462 C.3       15 UNK        -0.1800 
     87 C          -0.6634  -26.5476  -50.8160 C.2       15 UNK         0.5000 
     88 O          -0.5567  -27.0115  -51.9520 O.2       15 UNK        -0.5000 
     89 N          -1.6692  -26.8492  -49.9793 N.am      16 UNK        -0.5000 
     90 CA         -2.8345  -27.6995  -50.2447 C.3       16 UNK         0.1400 
     91 CB         -2.4117  -29.1646  -50.4803 C.3       16 UNK        -0.1800 
     92 C          -3.7435  -27.1365  -51.3586 C.2       16 UNK         0.5000 
     93 O          -4.2822  -27.8947  -52.1673 O.2       16 UNK        -0.5000 
     94 N          -3.9012  -25.8086  -51.3706 N.am      17 UNK        -0.5000 
     95 CA         -4.6969  -25.0449  -52.3268 C.3       17 UNK         0.1400 
     96 CB         -3.7709  -24.4908  -53.4257 C.3       17 UNK        -0.1800 
     97 C          -5.4648  -23.9430  -51.5773 C.2       17 UNK         0.5000 
     98 O          -5.4751  -22.7918  -52.0108 O.2       17 UNK        -0.5000 
     99 N          -6.0834  -24.3173  -50.4468 N.am      18 UNK        -0.5000 
    100 CA        -6.7164  -23.4390  -49.4522 C.3       18 UNK         0.1400 
    101 CB        -7.2722  -24.3117  -48.3157 C.3       18 UNK        -0.1800 
    102 C         -7.8151  -22.4891  -49.9764 C.2       18 UNK         0.5000 
    103 O         -8.1342  -21.5105  -49.3010 O.2       18 UNK        -0.5000 
    104 N         -8.3764  -22.7861  -51.1555 N.am      19 UNK        -0.5000 
    105 CA        -9.3405  -21.9397  -51.8592 C.3       19 UNK         0.1400 
    106 CB       -10.0037  -22.7666  -52.9716 C.3       19 UNK        -0.1800 
    107 C         -8.7212  -20.6513  -52.4424 C.2       19 UNK         0.5000 
    108 O         -9.4544  -19.6891  -52.6726 O.2       19 UNK        -0.5000 
    109 N         -7.4029  -20.6504  -52.6856 N.am      20 UNK        -0.5000 
    110 CA        -6.6461  -19.5010  -53.1794 C.3       20 UNK         0.1400 
    111 CB        -5.3058  -20.0160  -53.7262 C.3       20 UNK        -0.1800 
    112 C         -6.4273  -18.4730  -52.0432 C.2       20 UNK         0.5000 
    113 O         -6.1067  -18.8958  -50.9330 O.2       20 UNK        -0.5000 
    114 N         -6.5589  -17.1501  -52.2399 N.am      21 UNK        -0.5000 
    115 CA        -6.9154  -16.3667  -53.4309 C.3       21 UNK         0.1400 
    116 CB        -8.4010  -16.5393  -53.8133 C.3       21 UNK        -0.1800 
    117 C         -5.9301  -16.5375  -54.6024 C.2       21 UNK         0.5000 
    118 O         -6.3464  -16.7578  -55.7405 O.2       21 UNK        -0.5000 
    119 N         -4.6332  -16.4592  -54.2827 N.am      22 UNK        -0.5000 
    120 CA        -3.5226  -16.5040  -55.2469 C.3       22 UNK         0.1400 
    121 C         -3.4611  -15.2331  -56.1396 C.2       22 UNK         0.5000 
    122 N         -3.0549  -15.3682  -57.3945 N.am      22 UNK        -0.7600 
    123 O         -3.7390  -14.1214  -55.6943 O.2       22 UNK        -0.5000 
    124 C124       -2.1607  -16.7360  -54.5430 C.3       23 UNK        -0.0398 
    125 S125       -2.1114  -18.3311  -53.6590 S.3       23 UNK        -0.2404 
    126 C126       -2.0623  -17.8026  -51.9203 C.3       23 UNK        -0.0205 
    127 H127        5.1946  -11.0690  -48.2514 H         1 UNK         0.0600 
    128 H128        6.2338  -11.1743  -49.6752 H         1 UNK         0.0600 
    129 H129        6.9155  -11.4161  -48.0628 H         1 UNK         0.0600 
    130 H130        3.9311  -12.8798  -47.9847 H         1 UNK         0.3000 
    131 H131        4.4038  -15.3653  -49.3241 H         1 UNK         0.0600 
    132 H132        2.3373  -16.1287  -48.1726 H         1 UNK         0.0800 
    133 H133        2.4053  -14.7928  -47.0718 H         1 UNK         0.0800 
    134 H134        1.4368  -14.1436  -51.5964 H         1 UNK         0.0800 
    135 H135        2.9459  -14.8337  -51.0736 H         1 UNK         0.0800 
    136 H136       -0.6334  -15.4774  -51.6773 H         1 UNK         0.1150 
    137 H137       -0.3448  -19.7086  -51.0519 H         1 UNK         0.1150 
    138 H138        3.0320  -17.1954  -50.2654 H         1 UNK         0.1150 
    139 H139        1.6422  -20.6969  -50.2109 H         1 UNK         0.0800 
    140 H140        3.1256  -19.8892  -50.6536 H         1 UNK         0.0800 
    141 H141        1.2188  -18.4989  -46.7524 H         1 UNK         0.0800 
    142 H142        0.3495  -18.7032  -48.2279 H         1 UNK         0.0800 
    143 H143        1.1273  -21.1056  -46.5031 H         1 UNK         0.0600 
    144 H144       -0.8377  -19.1566  -45.7759 H         1 UNK         0.3000 
    145 H145       -2.7929  -21.2500  -43.6982 H         1 UNK         0.0600 
    146 H146       -2.1710  -19.5363  -42.0298 H         1 UNK         0.0600 
    147 H147       -0.8283  -20.6401  -42.2847 H         1 UNK         0.0600 
    148 H148       -0.7904  -19.0367  -43.0080 H         1 UNK         0.0600 
    149 H149       -2.7411  -18.4320  -44.3836 H         1 UNK         0.3000 
    150 H150       -4.9518  -18.7374  -47.1915 H         1 UNK         0.0600 
    151 H151       -6.4891  -18.8148  -45.2188 H         1 UNK         0.0600 
    152 H152       -6.3493  -17.1856  -45.8592 H         1 UNK         0.0600 
    153 H153       -5.4916  -17.6301  -44.3828 H         1 UNK         0.0600 
    154 H154       -3.9089  -16.4455  -45.8829 H         1 UNK         0.3000 
    155 H155       -0.7024  -16.3227  -47.3107 H         1 UNK         0.0600 
    156 H156       -1.4361  -14.2504  -48.4474 H         1 UNK         0.0600 
    157 H157       -3.1282  -14.7274  -48.2956 H         1 UNK         0.0600 
    158 H158       -2.0350  -15.6521  -49.3173 H         1 UNK         0.0600 
    159 H159       -2.1698  -14.2854  -46.0376 H         1 UNK         0.3000 
    160 H160       -1.1378  -13.7884  -43.8366 H         1 UNK         0.0600 
    161 H161       -3.8180  -15.1653  -43.2613 H         1 UNK         0.0600 
    162 H162       -3.5466  -13.7649  -44.2838 H         1 UNK         0.0600 
    163 H163       -3.3158  -13.6322  -42.5515 H         1 UNK         0.0600 
    164 H164       -0.2773  -14.6442  -42.0278 H         1 UNK         0.3000 
    165 H165       -1.1803  -15.9972  -39.4051 H         1 UNK         0.0600 
    166 H166        0.0873  -18.4065  -40.8095 H         1 UNK         0.0600 
    167 H167        0.0993  -18.0998  -39.0762 H         1 UNK         0.0600 
    168 H168       -1.4180  -18.4355  -39.8910 H         1 UNK         0.0600 
    169 H169        1.2098  -16.1233  -41.1967 H         1 UNK         0.3000 
    170 H170        2.5306  -13.1911  -39.7989 H         1 UNK         0.0600 
    171 H171        3.4849  -14.7722  -38.1105 H         1 UNK         0.0600 
    172 H172        3.7602  -15.9686  -39.3710 H         1 UNK         0.0600 
    173 H173        4.6386  -14.4383  -39.3916 H         1 UNK         0.0600 
    174 H174        3.6537  -15.0278  -41.6573 H         1 UNK         0.3000 
    175 H175        1.6478  -14.3632  -44.4614 H         1 UNK         0.0600 
    176 H176        4.4735  -13.2579  -44.0639 H         1 UNK         0.0600 
    177 H177        3.5738  -13.3755  -45.5747 H         1 UNK         0.0600 
    178 H178        3.0620  -12.2455  -44.3441 H         1 UNK         0.0600 
    179 H179        4.0747  -15.6652  -44.5358 H         1 UNK         0.3000 
    180 H180        4.2194  -18.2148  -43.0389 H         1 UNK         0.0600 
    181 H181        1.7826  -19.2300  -44.5849 H         1 UNK         0.0600 
    182 H182        2.1556  -19.5207  -42.8951 H         1 UNK         0.0600 
    183 H183        3.1615  -20.2357  -44.1451 H         1 UNK         0.0600 
    184 H184        3.6513  -17.7028  -45.9285 H         1 UNK         0.3000 
    185 H185        7.0357  -17.3826  -46.5913 H         1 UNK         0.0600 
    186 H186        6.8045  -19.0293  -48.4450 H         1 UNK         0.0600 
    187 H187        7.0512  -19.8345  -46.9049 H         1 UNK         0.0600 
    188 H188        5.4470  -19.7914  -47.6160 H         1 UNK         0.0600 
    189 H189        4.9074  -17.4344  -48.4278 H         1 UNK         0.3000 
    190 H190       -1.9418  -20.0238  -48.0141 H         1 UNK         0.3000 
    191 H191       -2.0013  -21.7567  -50.2200 H         1 UNK         0.0600 
    192 H192       -4.3754  -21.2093  -50.2983 H         1 UNK         0.0600 
    193 H193       -3.5458  -19.7732  -49.7398 H         1 UNK         0.0600 
    194 H194       -4.4143  -20.7796  -48.5979 H         1 UNK         0.0600 
    195 H195       -3.2437  -22.2754  -46.8764 H         1 UNK         0.3000 
    196 H196       -4.2293  -24.9022  -47.2726 H         1 UNK         0.0600 
    197 H197       -4.1894  -25.0210  -44.7829 H         1 UNK         0.0600 
    198 H198       -4.8689  -23.4985  -45.3381 H         1 UNK         0.0600 
    199 H199       -3.2219  -23.5537  -44.7139 H         1 UNK         0.0600 
    200 H200       -0.9925  -23.7808  -46.1609 H         1 UNK         0.3000 
    201 H201        0.1656  -26.3460  -45.8085 H         1 UNK         0.0600 
    202 H202        1.1440  -24.2651  -44.8798 H         1 UNK         0.0600 
    203 H203        1.4896  -23.6698  -46.5015 H         1 UNK         0.0600 
    204 H204        2.3209  -25.0931  -45.8883 H         1 UNK         0.0600 
    205 H205       -0.0960  -24.2776  -48.6992 H         1 UNK         0.3000 
    206 H206        1.3808  -26.0206  -50.4651 H         1 UNK         0.0600 
    207 H207        1.1503  -23.5649  -50.8359 H         1 UNK         0.0600 
    208 H208        0.5191  -24.4642  -52.2061 H         1 UNK         0.0600 
    209 H209       -0.5900  -23.7452  -51.0465 H         1 UNK         0.0600 
    210 H210       -1.6665  -26.4028  -49.0708 H         1 UNK         0.3000 
    211 H211       -3.4331  -27.6778  -49.3331 H         1 UNK         0.0600 
    212 H212       -1.8630  -29.2854  -51.4146 H         1 UNK         0.0600 
    213 H213       -3.2828  -29.8190  -50.5275 H         1 UNK         0.0600 
    214 H214       -1.7790  -29.5264  -49.6698 H         1 UNK         0.0600 
    215 H215       -3.4346  -25.2495  -50.6557 H         1 UNK         0.3000 
    216 H216       -5.4466  -25.6865  -52.7937 H         1 UNK         0.0600 
    217 H217       -4.3364  -23.9339  -54.1737 H         1 UNK         0.0600 
    218 H218       -3.2501  -25.2958  -53.9443 H         1 UNK         0.0600 
    219 H219       -3.0183  -23.8187  -53.0110 H         1 UNK         0.0600 
    220 H220       -6.0251  -25.2925  -50.1929 H         1 UNK         0.3000 
    221 H221       -5.9294  -22.8083  -49.0367 H         1 UNK         0.0600 
    222 H222       -8.0652  -24.9714  -48.6700 H         1 UNK         0.0600 
    223 H223       -6.4955  -24.9323  -47.8707 H         1 UNK         0.0600 
    224 H224       -7.6890  -23.6966  -47.5170 H         1 UNK         0.0600 
    225 H225       -8.0526  -23.6088  -51.6416 H         1 UNK         0.3000 
    226 H226      -10.1146  -21.6396  -51.1498 H         1 UNK         0.0600 
    227 H227      -10.5089  -23.6429  -52.5650 H         1 UNK         0.0600 
    228 H228      -10.7534  -22.1779  -53.5020 H         1 UNK         0.0600 
    229 H229       -9.2745  -23.1088  -53.7072 H         1 UNK         0.0600 
    230 H230       -6.8501  -21.4587  -52.4148 H         1 UNK         0.3000 
    231 H231       -7.1968  -19.0700  -54.0108 H         1 UNK         0.0600 
    232 H232       -4.7957  -19.2447  -54.2988 H         1 UNK         0.0600 
    233 H233       -5.4481  -20.8644  -54.3957 H         1 UNK         0.0600 
    234 H234       -4.6350  -20.3332  -52.9262 H         1 UNK         0.0600 
    235 H235       -6.3831  -16.5753  -51.4289 H         1 UNK         0.3000 
    236 H236       -6.8044  -15.3257  -53.1233 H         1 UNK         0.0600 
    237 H237       -9.0477  -16.4022  -52.9467 H         1 UNK         0.0600 
    238 H238       -8.6929  -15.7917  -54.5517 H         1 UNK         0.0600 
    239 H239       -8.6299  -17.5109  -54.2452 H         1 UNK         0.0600 
    240 H240       -4.3818  -16.2733  -53.3242 H         1 UNK         0.3000 
    241 H241       -3.7052  -17.3560  -55.9055 H         1 UNK         0.0600 
    242 H242       -2.8153  -16.2686  -57.7810 H         1 UNK         0.3800 
    243 H243       -2.9967  -14.5497  -57.9809 H         1 UNK         0.3800 
    244 H244       -1.3518  -16.7500  -55.2756 H         1 UNK         0.0800 
    245 H245       -1.9323  -15.9167  -53.8597 H         1 UNK         0.0800 
    246 H246       -2.5440  -18.5690  -51.3157 H         1 UNK         0.0800 
    247 H247       -2.6470  -16.8936  -51.7743 H         1 UNK         0.0800 
@<TRIPOS>BOND
     1    1    2 1    
     2    1  127 1    
     3    1  128 1    
     4    1  129 1    
     5    2    3 2    
     6    2    4 am   BACKBONE|DICT|INTERRES
     7    4    5 1    
     8    4  130 1    
     9    5    6 1    
    10    5   65 1    
    11    5  131 1    
    12    6    7 1    
    13    6  132 1    
    14    6  133 1    
    15    7    8 1    
    16    8    9 1    
    17    8  134 1    
    18    8  135 1    
    19    9   10 ar   
    20    9   14 ar   
    21   10   11 ar   
    22   10  136 1    
    23   11   12 ar   
    24   11  126 1    
    25   12   13 ar   
    26   12  137 1    
    27   13   14 ar   
    28   13   15 1    
    29   14  138 1    
    30   15   16 1    
    31   15  139 1    
    32   15  140 1    
    33   16   17 1    
    34   17   18 1    
    35   17  141 1    
    36   17  142 1    
    37   18   19 1    
    38   18   67 1    
    39   18  143 1    
    40   19   20 am   BACKBONE|DICT|INTERRES
    41   19  144 1    
    42   20   21 2    
    43   20   22 1    
    44   22   23 1    
    45   22   24 1    
    46   22  145 1    
    47   23  146 1    
    48   23  147 1    
    49   23  148 1    
    50   24   25 am   BACKBONE|DICT|INTERRES
    51   24  149 1    
    52   25   26 2    
    53   25   27 1    
    54   27   28 1    
    55   27   29 1    
    56   27  150 1    
    57   28  151 1    
    58   28  152 1    
    59   28  153 1    
    60   29   30 am   BACKBONE|DICT|INTERRES
    61   29  154 1    
    62   30   31 2    
    63   30   32 1    
    64   32   33 1    
    65   32   34 1    
    66   32  155 1    
    67   33  156 1    
    68   33  157 1    
    69   33  158 1    
    70   34   35 am   BACKBONE|DICT|INTERRES
    71   34  159 1    
    72   35   36 2    
    73   35   37 1    
    74   37   38 1    
    75   37   39 1    
    76   37  160 1    
    77   38  161 1    
    78   38  162 1    
    79   38  163 1    
    80   39   40 am   BACKBONE|DICT|INTERRES
    81   39  164 1    
    82   40   41 2    
    83   40   42 1    
    84   42   43 1    
    85   42   44 1    
    86   42  165 1    
    87   43  166 1    
    88   43  167 1    
    89   43  168 1    
    90   44   45 am   BACKBONE|DICT|INTERRES
    91   44  169 1    
    92   45   46 2    
    93   45   47 1    
    94   47   48 1    
    95   47   49 1    
    96   47  170 1    
    97   48  171 1    
    98   48  172 1    
    99   48  173 1    
   100   49   50 am   BACKBONE|DICT|INTERRES
   101   49  174 1    
   102   50   51 2    
   103   50   52 1    
   104   52   53 1    
   105   52   54 1    
   106   52  175 1    
   107   53  176 1    
   108   53  177 1    
   109   53  178 1    
   110   54   55 am   BACKBONE|DICT|INTERRES
   111   54  179 1    
   112   55   56 2    
   113   55   57 1    
   114   57   58 1    
   115   57   59 1    
   116   57  180 1    
   117   58  181 1    
   118   58  182 1    
   119   58  183 1    
   120   59   60 am   BACKBONE|DICT|INTERRES
   121   59  184 1    
   122   60   61 2    
   123   60   62 1    
   124   62   63 1    
   125   62   64 1    
   126   62  185 1    
   127   63  186 1    
   128   63  187 1    
   129   63  188 1    
   130   64   65 am   BACKBONE|DICT|INTERRES
   131   64  189 1    
   132   65   66 2    
   133   67   68 2    
   134   67   69 am   BACKBONE|DICT|INTERRES
   135   69   70 1    
   136   69  190 1    
   137   70   71 1    
   138   70   72 1    
   139   70  191 1    
   140   71  192 1    
   141   71  193 1    
   142   71  194 1    
   143   72   73 2    
   144   72   74 am   BACKBONE|DICT|INTERRES
   145   74   75 1    
   146   74  195 1    
   147   75   76 1    
   148   75   77 1    
   149   75  196 1    
   150   76  197 1    
   151   76  198 1    
   152   76  199 1    
   153   77   78 2    
   154   77   79 am   BACKBONE|DICT|INTERRES
   155   79   80 1    
   156   79  200 1    
   157   80   81 1    
   158   80   82 1    
   159   80  201 1    
   160   81  202 1    
   161   81  203 1    
   162   81  204 1    
   163   82   83 2    
   164   82   84 am   BACKBONE|DICT|INTERRES
   165   84   85 1    
   166   84  205 1    
   167   85   86 1    
   168   85   87 1    
   169   85  206 1    
   170   86  207 1    
   171   86  208 1    
   172   86  209 1    
   173   87   88 2    
   174   87   89 am   BACKBONE|DICT|INTERRES
   175   89   90 1    
   176   89  210 1    
   177   90   91 1    
   178   90   92 1    
   179   90  211 1    
   180   91  212 1    
   181   91  213 1    
   182   91  214 1    
   183   92   93 2    
   184   92   94 am   BACKBONE|DICT|INTERRES
   185   94   95 1    
   186   94  215 1    
   187   95   96 1    
   188   95   97 1    
   189   95  216 1    
   190   96  217 1    
   191   96  218 1    
   192   96  219 1    
   193   97   98 2    
   194   97   99 am   BACKBONE|DICT|INTERRES
   195   99  100 1    
   196   99  220 1    
   197  100  101 1    
   198  100  102 1    
   199  100  221 1    
   200  101  222 1    
   201  101  223 1    
   202  101  224 1    
   203  102  103 2    
   204  102  104 am   BACKBONE|DICT|INTERRES
   205  104  105 1    
   206  104  225 1    
   207  105  106 1    
   208  105  107 1    
   209  105  226 1    
   210  106  227 1    
   211  106  228 1    
   212  106  229 1    
   213  107  108 2    
   214  107  109 am   BACKBONE|DICT|INTERRES
   215  109  110 1    
   216  109  230 1    
   217  110  111 1    
   218  110  112 1    
   219  110  231 1    
   220  111  232 1    
   221  111  233 1    
   222  111  234 1    
   223  112  113 2    
   224  112  114 am   BACKBONE|DICT|INTERRES
   225  114  115 1    
   226  114  235 1    
   227  115  116 1    
   228  115  117 1    
   229  115  236 1    
   230  116  237 1    
   231  116  238 1    
   232  116  239 1    
   233  117  118 2    
   234  117  119 am   BACKBONE|DICT|INTERRES
   235  119  120 1    
   236  119  240 1    
   237  120  121 1    
   238  120  124 1    
   239  120  241 1    
   240  121  122 am   BACKBONE|DICT|INTERRES
   241  121  123 2    
   242  122  242 1    
   243  122  243 1    
   244  124  125 1    
   245  124  244 1    
   246  124  245 1    
   247  125  126 1    
   248  126  246 1    
   249  126  247 1    
@<TRIPOS>SUBSTRUCTURE
     1 UNK         1 GROUP             0       ****    0 ROOT    
