@<TRIPOS>MOLECULE
3R540
247   249    1
SMALL
USER_CHARGES


@<TRIPOS>ATOM
      1 CA         -4.6248  -10.4353  -44.3802 C.3       0 UNK        -0.1800 
      2 C          -3.2911  -10.4373  -45.1132 C.2       0 UNK         0.5000 
      3 O          -2.7163   -9.3731  -45.3472 O.2       0 UNK        -0.5000 
      4 N          -2.7901  -11.6263  -45.4720 N.am      1 UNK        -0.5000 
      5 CA         -1.5108  -11.8394  -46.1553 C.3       1 UNK         0.1400 
      6 C6         -1.5294  -13.1571  -46.9652 C.3       23 UNK        -0.0398 
      7 S7         -0.1660  -13.2546  -48.1745 S.3       23 UNK        -0.2404 
      8 C8         -0.0435  -15.0537  -48.3908 C.3       23 UNK        -0.0205 
      9 C9         -1.0901  -15.5868  -49.3567 C.ar      23 UNK        -0.0193 
     10 C10        -0.7937  -15.6820  -50.7199 C.ar      23 UNK        -0.1150 
     11 C11        -1.7489  -16.1579  -51.6217 C.ar      23 UNK        -0.0193 
     12 C12        -3.0072  -16.5394  -51.1506 C.ar      23 UNK        -0.1150 
     13 C13        -3.3138  -16.4577  -49.7896 C.ar      23 UNK        -0.0193 
     14 C14        -2.3483  -15.9881  -48.8937 C.ar      23 UNK        -0.1150 
     15 C15        -4.7041  -16.8441  -49.3103 C.3       23 UNK        -0.0205 
     16 S16        -4.9378  -18.6476  -49.3031 S.3       23 UNK        -0.2404 
     17 C17        -4.6100  -19.0514  -47.5566 C.3       23 UNK        -0.0398 
     18 CA         -4.3166  -20.5588  -47.3892 C.3       11 UNK         0.1400 
     19 N          -3.0205  -20.9324  -47.9647 N.am      11 UNK        -0.5000 
     20 C          -2.5625  -22.1840  -48.0893 C.2       10 UNK         0.5000 
     21 O          -3.2100  -23.1812  -47.7723 O.2       10 UNK        -0.5000 
     22 CA         -1.1285  -22.3598  -48.6158 C.3       10 UNK         0.1400 
     23 CB         -1.1619  -22.5742  -50.1345 C.3       10 UNK        -0.1800 
     24 N          -0.2179  -21.2528  -48.3074 N.am      10 UNK        -0.5000 
     25 C           0.0484  -20.7552  -47.0914 C.2       9 UNK         0.5000 
     26 O          -0.5017  -21.1340  -46.0540 O.2       9 UNK        -0.5000 
     27 CA          1.0568  -19.6004  -47.0596 C.3       9 UNK         0.1400 
     28 CB          0.3768  -18.2931  -47.4773 C.3       9 UNK        -0.1800 
     29 N           1.6319  -19.4261  -45.7284 N.am      9 UNK        -0.5000 
     30 C           2.7915  -19.9675  -45.3337 C.2       8 UNK         0.5000 
     31 O           3.4890  -20.6777  -46.0598 O.2       8 UNK        -0.5000 
     32 CA          3.2857  -19.6571  -43.9068 C.3       8 UNK         0.1400 
     33 CB          4.5285  -18.7530  -43.9446 C.3       8 UNK        -0.1800 
     34 N           2.2674  -19.0431  -43.0511 N.am      8 UNK        -0.5000 
     35 C           1.3255  -19.7495  -42.4115 C.2       7 UNK         0.5000 
     36 O           1.2086  -20.9717  -42.5073 O.2       7 UNK        -0.5000 
     37 CA          0.3607  -18.9804  -41.4915 C.3       7 UNK         0.1400 
     38 CB          0.9814  -18.8189  -40.0954 C.3       7 UNK        -0.1800 
     39 N          -0.0631  -17.6639  -41.9655 N.am      7 UNK        -0.5000 
     40 C          -0.5990  -17.3334  -43.1466 C.2       6 UNK         0.5000 
     41 O          -0.7051  -18.1100  -44.0947 O.2       6 UNK        -0.5000 
     42 CA         -1.0978  -15.8777  -43.2996 C.3       6 UNK         0.1400 
     43 CB         -2.4785  -15.6873  -42.6472 C.3       6 UNK        -0.1800 
     44 N          -0.1428  -14.8602  -42.8418 N.am      6 UNK        -0.5000 
     45 C           0.3917  -14.6712  -41.6238 C.2       5 UNK         0.5000 
     46 O          -0.0277  -15.2140  -40.6000 O.2       5 UNK        -0.5000 
     47 CA          1.6665  -13.7973  -41.5676 C.3       5 UNK         0.1400 
     48 CB          2.5678  -14.1403  -40.3644 C.3       5 UNK        -0.1800 
     49 N           2.4406  -13.8505  -42.8154 N.am      5 UNK        -0.5000 
     50 C           2.9078  -14.9418  -43.4465 C.2       4 UNK         0.5000 
     51 O           2.8749  -16.0770  -42.9674 O.2       4 UNK        -0.5000 
     52 CA          3.4052  -14.7512  -44.8931 C.3       4 UNK         0.1400 
     53 CB          2.5627  -15.6111  -45.8492 C.3       4 UNK        -0.1800 
     54 N           3.2887  -13.3577  -45.3287 N.am      4 UNK        -0.5000 
     55 C           4.3106  -12.5055  -45.4791 C.2       3 UNK         0.5000 
     56 O           5.4927  -12.8165  -45.3303 O.2       3 UNK        -0.5000 
     57 CA          3.9493  -11.0476  -45.8334 C.3       3 UNK         0.1400 
     58 CB          3.9455  -10.8536  -47.3573 C.3       3 UNK        -0.1800 
     59 N           2.6554  -10.6145  -45.2966 N.am      3 UNK        -0.5000 
     60 C           2.3429  -10.5391  -43.9949 C.2       2 UNK         0.5000 
     61 O           3.1330  -10.7984  -43.0881 O.2       2 UNK        -0.5000 
     62 CA          0.8905  -10.1702  -43.6381 C.3       2 UNK         0.1400 
     63 CB          0.7774   -8.6697  -43.3319 C.3       2 UNK        -0.1800 
     64 N          -0.0975  -10.5219  -44.6608 N.am      2 UNK        -0.5000 
     65 C          -0.3445  -11.7463  -45.1451 C.2       1 UNK         0.5000 
     66 O           0.2845  -12.7541  -44.8092 O.2       1 UNK        -0.5000 
     67 C          -4.4867  -21.0093  -45.9222 C.2       11 UNK         0.5000 
     68 O          -5.6153  -21.2819  -45.5119 O.2       11 UNK        -0.5000 
     69 N          -3.3782  -21.1223  -45.1797 N.am      12 UNK        -0.5000 
     70 CA         -3.3468  -21.6743  -43.8291 C.3       12 UNK         0.1400 
     71 CB         -2.5517  -20.7286  -42.9214 C.3       12 UNK        -0.1800 
     72 C          -2.7174  -23.0756  -43.8305 C.2       12 UNK         0.5000 
     73 O          -3.2902  -23.9966  -43.2488 O.2       12 UNK        -0.5000 
     74 N          -1.5565  -23.2163  -44.4860 N.am      13 UNK        -0.5000 
     75 CA         -0.7125  -24.4126  -44.4501 C.3       13 UNK         0.1400 
     76 CB          0.6615  -24.0710  -45.0477 C.3       13 UNK        -0.1800 
     77 C          -1.3144  -25.6418  -45.1556 C.2       13 UNK         0.5000 
     78 O          -1.0035  -26.7677  -44.7649 O.2       13 UNK        -0.5000 
     79 N          -2.1538  -25.4114  -46.1717 N.am      14 UNK        -0.5000 
     80 CA         -2.8193  -26.4454  -46.9658 C.3       14 UNK         0.1400 
     81 CB         -2.2088  -26.4503  -48.3794 C.3       14 UNK        -0.1800 
     82 C          -4.3426  -26.2278  -47.0141 C.2       14 UNK         0.5000 
     83 O          -5.0071  -26.8301  -47.8565 O.2       14 UNK        -0.5000 
     84 N          -4.8728  -25.3437  -46.1529 N.am      15 UNK        -0.5000 
     85 CA         -6.2809  -24.9285  -46.0708 C.3       15 UNK         0.1400 
     86 CB         -7.1352  -26.0655  -45.4737 C.3       15 UNK        -0.1800 
     87 C          -6.8488  -24.3941  -47.4080 C.2       15 UNK         0.5000 
     88 O          -8.0250  -24.6028  -47.7090 O.2       15 UNK        -0.5000 
     89 N          -5.9815  -23.7371  -48.1919 N.am      16 UNK        -0.5000 
     90 CA         -6.2031  -23.1797  -49.5290 C.3       16 UNK         0.1400 
     91 CB         -7.3620  -22.1605  -49.5436 C.3       16 UNK        -0.1800 
     92 C          -6.3290  -24.2288  -50.6523 C.2       16 UNK         0.5000 
     93 O          -6.6332  -23.8497  -51.7834 O.2       16 UNK        -0.5000 
     94 N          -6.0426  -25.5106  -50.3740 N.am      17 UNK        -0.5000 
     95 CA         -6.0506  -26.5781  -51.3822 C.3       17 UNK         0.1400 
     96 CB         -6.0139  -27.9475  -50.6885 C.3       17 UNK        -0.1800 
     97 C          -4.8921  -26.4580  -52.3925 C.2       17 UNK         0.5000 
     98 O          -5.0397  -26.8825  -53.5387 O.2       17 UNK        -0.5000 
     99 N          -3.7735  -25.8660  -51.9524 N.am      18 UNK        -0.5000 
    100 CA        -2.5687  -25.6303  -52.7503 C.3       18 UNK         0.1400 
    101 CB        -1.3420  -26.1017  -51.9495 C.3       18 UNK        -0.1800 
    102 C         -2.4297  -24.1562  -53.1824 C.2       18 UNK         0.5000 
    103 O         -1.3607  -23.7674  -53.6528 O.2       18 UNK        -0.5000 
    104 N         -3.4948  -23.3491  -53.0375 N.am      19 UNK        -0.5000 
    105 CA        -3.5170  -21.9157  -53.3709 C.3       19 UNK         0.1400 
    106 CB        -4.8332  -21.2923  -52.8845 C.3       19 UNK        -0.1800 
    107 C         -3.2796  -21.6003  -54.8634 C.2       19 UNK         0.5000 
    108 O         -2.9265  -20.4699  -55.1958 O.2       19 UNK        -0.5000 
    109 N         -3.4110  -22.6120  -55.7328 N.am      20 UNK        -0.5000 
    110 CA        -3.0308  -22.5765  -57.1472 C.3       20 UNK         0.1400 
    111 CB        -3.4767  -23.8903  -57.8076 C.3       20 UNK        -0.1800 
    112 C         -1.5232  -22.3325  -57.3901 C.2       20 UNK         0.5000 
    113 O         -1.1489  -21.9701  -58.5056 O.2       20 UNK        -0.5000 
    114 N         -0.6868  -22.5193  -56.3565 N.am      21 UNK        -0.5000 
    115 CA         0.7439  -22.2100  -56.3664 C.3       21 UNK         0.1400 
    116 CB         1.4017  -22.8554  -55.1368 C.3       21 UNK        -0.1800 
    117 C          1.0571  -20.6985  -56.4104 C.2       21 UNK         0.5000 
    118 O          2.1776  -20.3373  -56.7741 O.2       21 UNK        -0.5000 
    119 N          0.0908  -19.8449  -56.0397 N.am      22 UNK        -0.5000 
    120 CA         0.1861  -18.3794  -56.1343 C.3       22 UNK         0.1400 
    121 C          0.3177  -17.8893  -57.6047 C.2       22 UNK         0.5000 
    122 N          1.2089  -16.9451  -57.8750 N.am      22 UNK        -0.7600 
    123 O         -0.4139  -18.3225  -58.4920 O.2       22 UNK        -0.5000 
    124 C124       -1.0202  -17.6851  -55.4554 C.3       23 UNK        -0.0398 
    125 S125       -1.0604  -17.9243  -53.6454 S.3       23 UNK        -0.2404 
    126 C126       -1.4429  -16.2276  -53.1089 C.3       23 UNK        -0.0205 
    127 H127       -5.0134  -11.4445  -44.2416 H         1 UNK         0.0600 
    128 H128       -5.3610   -9.8616  -44.9432 H         1 UNK         0.0600 
    129 H129       -4.5119   -9.9764  -43.3980 H         1 UNK         0.0600 
    130 H130       -3.2980  -12.4635  -45.2248 H         1 UNK         0.3000 
    131 H131       -1.3776  -11.0266  -46.8732 H         1 UNK         0.0600 
    132 H132       -1.5113  -14.0208  -46.2991 H         1 UNK         0.0800 
    133 H133       -2.4599  -13.2303  -47.5301 H         1 UNK         0.0800 
    134 H134       -0.1460  -15.5404  -47.4220 H         1 UNK         0.0800 
    135 H135        0.9560  -15.2966  -48.7544 H         1 UNK         0.0800 
    136 H136        0.1781  -15.3741  -51.0797 H         1 UNK         0.1150 
    137 H137       -3.7520  -16.9002  -51.8465 H         1 UNK         0.1150 
    138 H138       -2.5805  -15.9192  -47.8405 H         1 UNK         0.1150 
    139 H139       -4.9076  -16.4310  -48.3212 H         1 UNK         0.0800 
    140 H140       -5.4442  -16.4012  -49.9784 H         1 UNK         0.0800 
    141 H141       -5.4921  -18.7559  -46.9850 H         1 UNK         0.0800 
    142 H142       -3.7790  -18.4505  -47.1826 H         1 UNK         0.0800 
    143 H143       -5.0772  -21.1023  -47.9467 H         1 UNK         0.0600 
    144 H144       -2.4278  -20.1727  -48.2641 H         1 UNK         0.3000 
    145 H145       -0.7241  -23.2604  -48.1503 H         1 UNK         0.0600 
    146 H146       -0.1900  -22.8891  -50.5148 H         1 UNK         0.0600 
    147 H147       -1.8814  -23.3484  -50.3992 H         1 UNK         0.0600 
    148 H148       -1.4530  -21.6660  -50.6634 H         1 UNK         0.0600 
    149 H149        0.2707  -20.8599  -49.0990 H         1 UNK         0.3000 
    150 H150        1.8469  -19.8153  -47.7823 H         1 UNK         0.0600 
    151 H151       -0.0701  -18.3722  -48.4692 H         1 UNK         0.0600 
    152 H152        1.1104  -17.4903  -47.5190 H         1 UNK         0.0600 
    153 H153       -0.4115  -18.0022  -46.7823 H         1 UNK         0.0600 
    154 H154        1.0528  -18.9455  -45.0492 H         1 UNK         0.3000 
    155 H155        3.5899  -20.6068  -43.4613 H         1 UNK         0.0600 
    156 H156        4.3279  -17.8067  -44.4447 H         1 UNK         0.0600 
    157 H157        5.3456  -19.2363  -44.4814 H         1 UNK         0.0600 
    158 H158        4.8873  -18.5312  -42.9394 H         1 UNK         0.0600 
    159 H159        2.3134  -18.0354  -42.9292 H         1 UNK         0.3000 
    160 H160       -0.5396  -19.5843  -41.3822 H         1 UNK         0.0600 
    161 H161        1.8591  -18.1714  -40.1209 H         1 UNK         0.0600 
    162 H162        1.2931  -19.7821  -39.6892 H         1 UNK         0.0600 
    163 H163        0.2677  -18.3867  -39.3936 H         1 UNK         0.0600 
    164 H164       -0.0104  -16.9131  -41.2814 H         1 UNK         0.3000 
    165 H165       -1.2161  -15.7041  -44.3703 H         1 UNK         0.0600 
    166 H166       -2.4479  -15.8498  -41.5697 H         1 UNK         0.0600 
    167 H167       -2.8609  -14.6819  -42.8239 H         1 UNK         0.0600 
    168 H168       -3.2031  -16.3895  -43.0615 H         1 UNK         0.0600 
    169 H169        0.2502  -14.2957  -43.5894 H         1 UNK         0.3000 
    170 H170        1.3293  -12.7668  -41.4520 H         1 UNK         0.0600 
    171 H171        2.0436  -13.9774  -39.4221 H         1 UNK         0.0600 
    172 H172        2.8894  -15.1822  -40.3844 H         1 UNK         0.0600 
    173 H173        3.4598  -13.5141  -40.3504 H         1 UNK         0.0600 
    174 H174        2.5550  -12.9632  -43.2858 H         1 UNK         0.3000 
    175 H175        4.4417  -15.0909  -44.9365 H         1 UNK         0.0600 
    176 H176        1.5070  -15.3466  -45.7887 H         1 UNK         0.0600 
    177 H177        2.8841  -15.4849  -46.8830 H         1 UNK         0.0600 
    178 H178        2.6452  -16.6711  -45.6115 H         1 UNK         0.0600 
    179 H179        2.3442  -13.0134  -45.4585 H         1 UNK         0.3000 
    180 H180        4.7207  -10.4038  -45.4059 H         1 UNK         0.0600 
    181 H181        3.1714  -11.4542  -47.8372 H         1 UNK         0.0600 
    182 H182        4.9032  -11.1450  -47.7909 H         1 UNK         0.0600 
    183 H183        3.7747   -9.8101  -47.6224 H         1 UNK         0.0600 
    184 H184        1.9395  -10.3860  -45.9705 H         1 UNK         0.3000 
    185 H185        0.6292  -10.7223  -42.7335 H         1 UNK         0.0600 
    186 H186        0.9935   -8.0629  -44.2121 H         1 UNK         0.0600 
    187 H187       -0.2234   -8.4123  -42.9843 H         1 UNK         0.0600 
    188 H188        1.4777   -8.3752  -42.5490 H         1 UNK         0.0600 
    189 H189       -0.7189   -9.7774  -44.9588 H         1 UNK         0.3000 
    190 H190       -2.4787  -20.9112  -45.5988 H         1 UNK         0.3000 
    191 H191       -4.3547  -21.7614  -43.4180 H         1 UNK         0.0600 
    192 H192       -2.4906  -21.1181  -41.9045 H         1 UNK         0.0600 
    193 H193       -3.0181  -19.7446  -42.8697 H         1 UNK         0.0600 
    194 H194       -1.5342  -20.5954  -43.2893 H         1 UNK         0.0600 
    195 H195       -1.1549  -22.4075  -44.9567 H         1 UNK         0.3000 
    196 H196       -0.5656  -24.6797  -43.4015 H         1 UNK         0.0600 
    197 H197        0.5861  -23.7980  -46.1004 H         1 UNK         0.0600 
    198 H198        1.1254  -23.2372  -44.5194 H         1 UNK         0.0600 
    199 H199        1.3419  -24.9204  -44.9766 H         1 UNK         0.0600 
    200 H200       -2.3627  -24.4559  -46.4390 H         1 UNK         0.3000 
    201 H201       -2.6665  -27.4310  -46.5223 H         1 UNK         0.0600 
    202 H202       -2.3934  -25.5092  -48.8970 H         1 UNK         0.0600 
    203 H203       -2.6288  -27.2503  -48.9904 H         1 UNK         0.0600 
    204 H204       -1.1306  -26.6057  -48.3426 H         1 UNK         0.0600 
    205 H205       -4.2489  -24.9100  -45.4870 H         1 UNK         0.3000 
    206 H206       -6.3118  -24.0896  -45.3740 H         1 UNK         0.0600 
    207 H207       -6.7256  -26.4082  -44.5235 H         1 UNK         0.0600 
    208 H208       -8.1559  -25.7319  -45.2833 H         1 UNK         0.0600 
    209 H209       -7.1901  -26.9235  -46.1444 H         1 UNK         0.0600 
    210 H210       -5.0237  -23.6553  -47.8585 H         1 UNK         0.3000 
    211 H211       -5.2904  -22.6297  -49.7591 H         1 UNK         0.0600 
    212 H212       -7.3665  -21.5907  -50.4736 H         1 UNK         0.0600 
    213 H213       -7.2780  -21.4433  -48.7276 H         1 UNK         0.0600 
    214 H214       -8.3329  -22.6491  -49.4603 H         1 UNK         0.0600 
    215 H215       -5.7989  -25.7809  -49.4263 H         1 UNK         0.3000 
    216 H216       -6.9868  -26.5093  -51.9404 H         1 UNK         0.0600 
    217 H217       -5.0671  -28.1134  -50.1736 H         1 UNK         0.0600 
    218 H218       -6.1352  -28.7534  -51.4133 H         1 UNK         0.0600 
    219 H219       -6.8164  -28.0435  -49.9568 H         1 UNK         0.0600 
    220 H220       -3.7526  -25.5472  -50.9952 H         1 UNK         0.3000 
    221 H221       -2.6061  -26.2192  -53.6688 H         1 UNK         0.0600 
    222 H222       -1.4439  -27.1457  -51.6526 H         1 UNK         0.0600 
    223 H223       -1.1915  -25.5114  -51.0467 H         1 UNK         0.0600 
    224 H224       -0.4311  -26.0247  -52.5444 H         1 UNK         0.0600 
    225 H225       -4.3577  -23.7434  -52.6889 H         1 UNK         0.3000 
    226 H226       -2.7015  -21.4404  -52.8222 H         1 UNK         0.0600 
    227 H227       -5.6981  -21.7577  -53.3582 H         1 UNK         0.0600 
    228 H228       -4.9421  -21.3919  -51.8053 H         1 UNK         0.0600 
    229 H229       -4.8687  -20.2256  -53.1106 H         1 UNK         0.0600 
    230 H230       -3.7084  -23.5056  -55.3710 H         1 UNK         0.3000 
    231 H231       -3.5718  -21.7528  -57.6173 H         1 UNK         0.0600 
    232 H232       -2.9796  -24.7527  -57.3614 H         1 UNK         0.0600 
    233 H233       -3.2437  -23.8921  -58.8732 H         1 UNK         0.0600 
    234 H234       -4.5530  -24.0353  -57.7125 H         1 UNK         0.0600 
    235 H235       -1.0623  -22.8533  -55.4750 H         1 UNK         0.3000 
    236 H236        1.1801  -22.6599  -57.2605 H         1 UNK         0.0600 
    237 H237        1.2299  -23.9318  -55.1152 H         1 UNK         0.0600 
    238 H238        2.4810  -22.6984  -55.1418 H         1 UNK         0.0600 
    239 H239        1.0131  -22.4355  -54.2081 H         1 UNK         0.0600 
    240 H240       -0.8117  -20.2115  -55.7634 H         1 UNK         0.3000 
    241 H241        1.0903  -18.0814  -55.5997 H         1 UNK         0.0600 
    242 H242        1.2924  -16.6071  -58.8215 H         1 UNK         0.3800 
    243 H243        1.8169  -16.5706  -57.1627 H         1 UNK         0.3800 
    244 H244       -1.9596  -18.0462  -55.8769 H         1 UNK         0.0800 
    245 H245       -0.9950  -16.6132  -55.6607 H         1 UNK         0.0800 
    246 H246       -2.3034  -15.8559  -53.6676 H         1 UNK         0.0800 
    247 H247       -0.6063  -15.5728  -53.3580 H         1 UNK         0.0800 
@<TRIPOS>BOND
     1    1    2 1    
     2    1  127 1    
     3    1  128 1    
     4    1  129 1    
     5    2    3 2    
     6    2    4 am   BACKBONE|DICT|INTERRES
     7    4    5 1    
     8    4  130 1    
     9    5    6 1    
    10    5   65 1    
    11    5  131 1    
    12    6    7 1    
    13    6  132 1    
    14    6  133 1    
    15    7    8 1    
    16    8    9 1    
    17    8  134 1    
    18    8  135 1    
    19    9   10 ar   
    20    9   14 ar   
    21   10   11 ar   
    22   10  136 1    
    23   11   12 ar   
    24   11  126 1    
    25   12   13 ar   
    26   12  137 1    
    27   13   14 ar   
    28   13   15 1    
    29   14  138 1    
    30   15   16 1    
    31   15  139 1    
    32   15  140 1    
    33   16   17 1    
    34   17   18 1    
    35   17  141 1    
    36   17  142 1    
    37   18   19 1    
    38   18   67 1    
    39   18  143 1    
    40   19   20 am   BACKBONE|DICT|INTERRES
    41   19  144 1    
    42   20   21 2    
    43   20   22 1    
    44   22   23 1    
    45   22   24 1    
    46   22  145 1    
    47   23  146 1    
    48   23  147 1    
    49   23  148 1    
    50   24   25 am   BACKBONE|DICT|INTERRES
    51   24  149 1    
    52   25   26 2    
    53   25   27 1    
    54   27   28 1    
    55   27   29 1    
    56   27  150 1    
    57   28  151 1    
    58   28  152 1    
    59   28  153 1    
    60   29   30 am   BACKBONE|DICT|INTERRES
    61   29  154 1    
    62   30   31 2    
    63   30   32 1    
    64   32   33 1    
    65   32   34 1    
    66   32  155 1    
    67   33  156 1    
    68   33  157 1    
    69   33  158 1    
    70   34   35 am   BACKBONE|DICT|INTERRES
    71   34  159 1    
    72   35   36 2    
    73   35   37 1    
    74   37   38 1    
    75   37   39 1    
    76   37  160 1    
    77   38  161 1    
    78   38  162 1    
    79   38  163 1    
    80   39   40 am   BACKBONE|DICT|INTERRES
    81   39  164 1    
    82   40   41 2    
    83   40   42 1    
    84   42   43 1    
    85   42   44 1    
    86   42  165 1    
    87   43  166 1    
    88   43  167 1    
    89   43  168 1    
    90   44   45 am   BACKBONE|DICT|INTERRES
    91   44  169 1    
    92   45   46 2    
    93   45   47 1    
    94   47   48 1    
    95   47   49 1    
    96   47  170 1    
    97   48  171 1    
    98   48  172 1    
    99   48  173 1    
   100   49   50 am   BACKBONE|DICT|INTERRES
   101   49  174 1    
   102   50   51 2    
   103   50   52 1    
   104   52   53 1    
   105   52   54 1    
   106   52  175 1    
   107   53  176 1    
   108   53  177 1    
   109   53  178 1    
   110   54   55 am   BACKBONE|DICT|INTERRES
   111   54  179 1    
   112   55   56 2    
   113   55   57 1    
   114   57   58 1    
   115   57   59 1    
   116   57  180 1    
   117   58  181 1    
   118   58  182 1    
   119   58  183 1    
   120   59   60 am   BACKBONE|DICT|INTERRES
   121   59  184 1    
   122   60   61 2    
   123   60   62 1    
   124   62   63 1    
   125   62   64 1    
   126   62  185 1    
   127   63  186 1    
   128   63  187 1    
   129   63  188 1    
   130   64   65 am   BACKBONE|DICT|INTERRES
   131   64  189 1    
   132   65   66 2    
   133   67   68 2    
   134   67   69 am   BACKBONE|DICT|INTERRES
   135   69   70 1    
   136   69  190 1    
   137   70   71 1    
   138   70   72 1    
   139   70  191 1    
   140   71  192 1    
   141   71  193 1    
   142   71  194 1    
   143   72   73 2    
   144   72   74 am   BACKBONE|DICT|INTERRES
   145   74   75 1    
   146   74  195 1    
   147   75   76 1    
   148   75   77 1    
   149   75  196 1    
   150   76  197 1    
   151   76  198 1    
   152   76  199 1    
   153   77   78 2    
   154   77   79 am   BACKBONE|DICT|INTERRES
   155   79   80 1    
   156   79  200 1    
   157   80   81 1    
   158   80   82 1    
   159   80  201 1    
   160   81  202 1    
   161   81  203 1    
   162   81  204 1    
   163   82   83 2    
   164   82   84 am   BACKBONE|DICT|INTERRES
   165   84   85 1    
   166   84  205 1    
   167   85   86 1    
   168   85   87 1    
   169   85  206 1    
   170   86  207 1    
   171   86  208 1    
   172   86  209 1    
   173   87   88 2    
   174   87   89 am   BACKBONE|DICT|INTERRES
   175   89   90 1    
   176   89  210 1    
   177   90   91 1    
   178   90   92 1    
   179   90  211 1    
   180   91  212 1    
   181   91  213 1    
   182   91  214 1    
   183   92   93 2    
   184   92   94 am   BACKBONE|DICT|INTERRES
   185   94   95 1    
   186   94  215 1    
   187   95   96 1    
   188   95   97 1    
   189   95  216 1    
   190   96  217 1    
   191   96  218 1    
   192   96  219 1    
   193   97   98 2    
   194   97   99 am   BACKBONE|DICT|INTERRES
   195   99  100 1    
   196   99  220 1    
   197  100  101 1    
   198  100  102 1    
   199  100  221 1    
   200  101  222 1    
   201  101  223 1    
   202  101  224 1    
   203  102  103 2    
   204  102  104 am   BACKBONE|DICT|INTERRES
   205  104  105 1    
   206  104  225 1    
   207  105  106 1    
   208  105  107 1    
   209  105  226 1    
   210  106  227 1    
   211  106  228 1    
   212  106  229 1    
   213  107  108 2    
   214  107  109 am   BACKBONE|DICT|INTERRES
   215  109  110 1    
   216  109  230 1    
   217  110  111 1    
   218  110  112 1    
   219  110  231 1    
   220  111  232 1    
   221  111  233 1    
   222  111  234 1    
   223  112  113 2    
   224  112  114 am   BACKBONE|DICT|INTERRES
   225  114  115 1    
   226  114  235 1    
   227  115  116 1    
   228  115  117 1    
   229  115  236 1    
   230  116  237 1    
   231  116  238 1    
   232  116  239 1    
   233  117  118 2    
   234  117  119 am   BACKBONE|DICT|INTERRES
   235  119  120 1    
   236  119  240 1    
   237  120  121 1    
   238  120  124 1    
   239  120  241 1    
   240  121  122 am   BACKBONE|DICT|INTERRES
   241  121  123 2    
   242  122  242 1    
   243  122  243 1    
   244  124  125 1    
   245  124  244 1    
   246  124  245 1    
   247  125  126 1    
   248  126  246 1    
   249  126  247 1    
@<TRIPOS>SUBSTRUCTURE
     1 UNK         1 GROUP             0       ****    0 ROOT    
