@<TRIPOS>MOLECULE
3R540
247   249    1
SMALL
USER_CHARGES


@<TRIPOS>ATOM
      1 CA         -0.5412  -12.7533  -55.1138 C.3       0 UNK        -0.1800 
      2 C           0.6722  -12.6361  -54.2025 C.2       0 UNK         0.5000 
      3 O           1.2113  -11.5418  -54.0387 O.2       0 UNK        -0.5000 
      4 N           1.1074  -13.7607  -53.6191 N.am      1 UNK        -0.5000 
      5 CA          2.3044  -13.8630  -52.7703 C.3       1 UNK         0.1400 
      6 C6          2.7413  -15.3352  -52.5577 C.3       23 UNK        -0.0398 
      7 S7          3.0086  -16.2176  -54.1315 S.3       23 UNK        -0.2404 
      8 C8          3.5128  -17.8654  -53.5433 C.3       23 UNK        -0.0205 
      9 C9          2.3695  -18.6445  -52.9050 C.ar      23 UNK        -0.0193 
     10 C10         1.2785  -19.0549  -53.6772 C.ar      23 UNK        -0.1150 
     11 C11         0.2466  -19.8090  -53.1102 C.ar      23 UNK        -0.0193 
     12 C12         0.3221  -20.1678  -51.7618 C.ar      23 UNK        -0.1150 
     13 C13         1.4107  -19.7714  -50.9774 C.ar      23 UNK        -0.0193 
     14 C14         2.4253  -19.0003  -51.5539 C.ar      23 UNK        -0.1150 
     15 C15         1.5153  -20.2077  -49.5213 C.3       23 UNK        -0.0205 
     16 S16         0.0676  -19.6964  -48.5510 S.3       23 UNK        -0.2404 
     17 C17         0.5977  -20.1098  -46.8592 C.3       23 UNK        -0.0398 
     18 CA          0.6007  -21.6056  -46.4427 C.3       11 UNK         0.1400 
     19 N           0.6523  -21.7348  -44.9851 N.am      11 UNK        -0.5000 
     20 C           0.8094  -22.8771  -44.3031 C.2       10 UNK         0.5000 
     21 O           0.9838  -23.9741  -44.8321 O.2       10 UNK        -0.5000 
     22 CA          0.7032  -22.7812  -42.7707 C.3       10 UNK         0.1400 
     23 CB          2.0105  -22.2489  -42.1655 C.3       10 UNK        -0.1800 
     24 N          -0.4166  -21.9426  -42.3382 N.am      10 UNK        -0.5000 
     25 C          -1.7076  -22.2177  -42.5768 C.2       9 UNK         0.5000 
     26 O          -2.0951  -23.2360  -43.1509 O.2       9 UNK        -0.5000 
     27 CA         -2.7341  -21.1516  -42.1483 C.3       9 UNK         0.1400 
     28 CB         -2.9874  -21.2023  -40.6344 C.3       9 UNK        -0.1800 
     29 N          -2.3338  -19.7983  -42.5377 N.am      9 UNK        -0.5000 
     30 C          -2.1754  -19.3952  -43.8063 C.2       8 UNK         0.5000 
     31 O          -2.3886  -20.1071  -44.7856 O.2       8 UNK        -0.5000 
     32 CA         -1.6387  -17.9732  -44.0224 C.3       8 UNK         0.1400 
     33 CB         -2.7759  -16.9447  -43.9488 C.3       8 UNK        -0.1800 
     34 N          -0.5630  -17.6386  -43.0850 N.am      8 UNK        -0.5000 
     35 C           0.6395  -18.2359  -43.0829 C.2       7 UNK         0.5000 
     36 O           0.9864  -19.0760  -43.9108 O.2       7 UNK        -0.5000 
     37 CA          1.5962  -17.8871  -41.9319 C.3       7 UNK         0.1400 
     38 CB          2.4139  -16.6267  -42.2509 C.3       7 UNK        -0.1800 
     39 N           0.8844  -17.7297  -40.6638 N.am      7 UNK        -0.5000 
     40 C           0.3238  -18.7520  -39.9998 C.2       6 UNK         0.5000 
     41 O           0.3918  -19.9231  -40.3731 O.2       6 UNK        -0.5000 
     42 CA         -0.4798  -18.4161  -38.7303 C.3       6 UNK         0.1400 
     43 CB          0.4231  -18.4823  -37.4899 C.3       6 UNK        -0.1800 
     44 N          -1.1340  -17.1082  -38.7805 N.am      6 UNK        -0.5000 
     45 C          -2.0900  -16.7560  -39.6509 C.2       5 UNK         0.5000 
     46 O          -2.5284  -17.5160  -40.5171 O.2       5 UNK        -0.5000 
     47 CA         -2.6421  -15.3146  -39.5505 C.3       5 UNK         0.1400 
     48 CB         -1.9727  -14.4613  -38.4490 C.3       5 UNK        -0.1800 
     49 N          -2.6006  -14.5837  -40.8231 N.am      5 UNK        -0.5000 
     50 C          -1.5418  -14.4184  -41.6276 C.2       4 UNK         0.5000 
     51 O          -0.4471  -14.9601  -41.4552 O.2       4 UNK        -0.5000 
     52 CA         -1.7367  -13.4707  -42.8192 C.3       4 UNK         0.1400 
     53 CB         -1.5680  -12.0038  -42.3846 C.3       4 UNK        -0.1800 
     54 N          -0.7646  -13.7948  -43.8609 N.am      4 UNK        -0.5000 
     55 C          -0.9305  -13.5466  -45.1638 C.2       3 UNK         0.5000 
     56 O          -1.9154  -12.9637  -45.6280 O.2       3 UNK        -0.5000 
     57 CA          0.1700  -14.0486  -46.1132 C.3       3 UNK         0.1400 
     58 CB          0.1079  -15.5816  -46.2676 C.3       3 UNK        -0.1800 
     59 N          -0.0169  -13.3934  -47.4052 N.am      3 UNK        -0.5000 
     60 C           0.8555  -13.3595  -48.4167 C.2       2 UNK         0.5000 
     61 O           1.9478  -13.9284  -48.3878 O.2       2 UNK        -0.5000 
     62 CA          0.4167  -12.5316  -49.6445 C.3       2 UNK         0.1400 
     63 CB          0.7959  -11.0470  -49.4806 C.3       2 UNK        -0.1800 
     64 N           0.8905  -13.0659  -50.9276 N.am      2 UNK        -0.5000 
     65 C           2.1418  -13.1477  -51.4096 C.2       1 UNK         0.5000 
     66 O           3.1405  -12.6872  -50.8549 O.2       1 UNK        -0.5000 
     67 C          -0.5564  -22.4355  -47.0385 C.2       11 UNK         0.5000 
     68 O          -0.3163  -23.2351  -47.9427 O.2       11 UNK        -0.5000 
     69 N          -1.7676  -22.2767  -46.4862 N.am      12 UNK        -0.5000 
     70 CA         -2.9658  -23.0094  -46.8923 C.3       12 UNK         0.1400 
     71 CB         -4.1900  -22.4564  -46.1500 C.3       12 UNK        -0.1800 
     72 C          -2.8506  -24.5304  -46.7007 C.2       12 UNK         0.5000 
     73 O          -3.3497  -25.2784  -47.5395 O.2       12 UNK        -0.5000 
     74 N          -2.1763  -24.9642  -45.6281 N.am      13 UNK        -0.5000 
     75 CA         -1.8673  -26.3700  -45.3748 C.3       13 UNK         0.1400 
     76 CB         -1.3926  -26.5385  -43.9233 C.3       13 UNK        -0.1800 
     77 C          -0.8286  -26.9320  -46.3649 C.2       13 UNK         0.5000 
     78 O          -1.0101  -28.0415  -46.8674 O.2       13 UNK        -0.5000 
     79 N           0.2367  -26.1622  -46.6248 N.am      14 UNK        -0.5000 
     80 CA          1.3556  -26.5526  -47.4817 C.3       14 UNK         0.1400 
     81 CB          2.5498  -25.6226  -47.2137 C.3       14 UNK        -0.1800 
     82 C           1.0061  -26.5647  -48.9803 C.2       14 UNK         0.5000 
     83 O           1.2973  -27.5474  -49.6633 O.2       14 UNK        -0.5000 
     84 N           0.4105  -25.4700  -49.4689 N.am      15 UNK        -0.5000 
     85 CA          0.1236  -25.2443  -50.8882 C.3       15 UNK         0.1400 
     86 CB          0.3093  -23.7488  -51.1938 C.3       15 UNK        -0.1800 
     87 C          -1.2792  -25.7201  -51.3109 C.2       15 UNK         0.5000 
     88 O          -1.5929  -25.6653  -52.5001 O.2       15 UNK        -0.5000 
     89 N          -2.0997  -26.1548  -50.3422 N.am      16 UNK        -0.5000 
     90 CA         -3.4957  -26.6034  -50.4659 C.3       16 UNK         0.1400 
     91 CB         -3.6295  -27.7832  -51.4515 C.3       16 UNK        -0.1800 
     92 C          -4.5052  -25.4713  -50.7664 C.2       16 UNK         0.5000 
     93 O          -5.6942  -25.7492  -50.9320 O.2       16 UNK        -0.5000 
     94 N          -4.0350  -24.2209  -50.7996 N.am      17 UNK        -0.5000 
     95 CA         -4.8037  -22.9962  -50.9732 C.3       17 UNK         0.1400 
     96 CB         -5.1739  -22.8005  -52.4528 C.3       17 UNK        -0.1800 
     97 C          -3.9343  -21.8425  -50.4588 C.2       17 UNK         0.5000 
     98 O          -2.7097  -21.9118  -50.5813 O.2       17 UNK        -0.5000 
     99 N          -4.5668  -20.8258  -49.8638 N.am      18 UNK        -0.5000 
    100 CA        -3.8849  -19.6581  -49.3047 C.3       18 UNK         0.1400 
    101 CB        -4.8615  -18.9002  -48.3918 C.3       18 UNK        -0.1800 
    102 C         -3.3431  -18.7230  -50.4013 C.2       18 UNK         0.5000 
    103 O         -3.9138  -18.6538  -51.4914 O.2       18 UNK        -0.5000 
    104 N         -2.2745  -17.9890  -50.0708 N.am      19 UNK        -0.5000 
    105 CA        -1.6242  -17.0014  -50.9288 C.3       19 UNK         0.1400 
    106 CB        -0.4240  -16.3997  -50.1859 C.3       19 UNK        -0.1800 
    107 C         -2.5919  -15.8894  -51.3681 C.2       19 UNK         0.5000 
    108 O         -3.3056  -15.3384  -50.5280 O.2       19 UNK        -0.5000 
    109 N         -2.5953  -15.6013  -52.6768 N.am      20 UNK        -0.5000 
    110 CA        -3.4921  -14.6732  -53.3816 C.3       20 UNK         0.1400 
    111 CB        -3.4020  -13.2440  -52.8052 C.3       20 UNK        -0.1800 
    112 C         -4.9516  -15.1711  -53.5000 C.2       20 UNK         0.5000 
    113 O         -5.8025  -14.4301  -53.9940 O.2       20 UNK        -0.5000 
    114 N         -5.2112  -16.4214  -53.0995 N.am      21 UNK        -0.5000 
    115 CA        -6.4784  -17.1357  -53.2501 C.3       21 UNK         0.1400 
    116 CB        -7.2232  -17.1353  -51.9028 C.3       21 UNK        -0.1800 
    117 C         -6.2004  -18.5567  -53.7801 C.2       21 UNK         0.5000 
    118 O         -6.9095  -19.5012  -53.4304 O.2       21 UNK        -0.5000 
    119 N         -5.1423  -18.6781  -54.5934 N.am      22 UNK        -0.5000 
    120 CA        -4.5485  -19.9390  -55.0635 C.3       22 UNK         0.1400 
    121 C         -5.4131  -20.7560  -56.0693 C.2       22 UNK         0.5000 
    122 N         -6.4852  -20.2091  -56.6289 N.am      22 UNK        -0.7600 
    123 O         -5.1035  -21.9112  -56.3468 O.2       22 UNK        -0.5000 
    124 C124       -3.1229  -19.7119  -55.6314 C.3       23 UNK        -0.0398 
    125 S125       -1.9925  -18.8788  -54.4594 S.3       23 UNK        -0.2404 
    126 C126       -0.9242  -20.2682  -53.9667 C.3       23 UNK        -0.0205 
    127 H127       -0.9315  -13.7706  -55.1394 H         1 UNK         0.0600 
    128 H128       -0.2727  -12.4684  -56.1310 H         1 UNK         0.0600 
    129 H129       -1.3351  -12.0890  -54.7733 H         1 UNK         0.0600 
    130 H130        0.6539  -14.6365  -53.8342 H         1 UNK         0.3000 
    131 H131        3.1155  -13.3535  -53.2956 H         1 UNK         0.0600 
    132 H132        3.6688  -15.3764  -51.9834 H         1 UNK         0.0800 
    133 H133        1.9976  -15.8832  -51.9791 H         1 UNK         0.0800 
    134 H134        4.3496  -17.7592  -52.8511 H         1 UNK         0.0800 
    135 H135        3.8924  -18.4363  -54.3917 H         1 UNK         0.0800 
    136 H136        1.2339  -18.7894  -54.7242 H         1 UNK         0.1150 
    137 H137       -0.4643  -20.7625  -51.3190 H         1 UNK         0.1150 
    138 H138        3.2733  -18.6975  -50.9560 H         1 UNK         0.1150 
    139 H139        1.6079  -21.2938  -49.4808 H         1 UNK         0.0800 
    140 H140        2.4153  -19.7970  -49.0613 H         1 UNK         0.0800 
    141 H141       -0.0907  -19.5651  -46.2162 H         1 UNK         0.0800 
    142 H142        1.5785  -19.6695  -46.6748 H         1 UNK         0.0800 
    143 H143        1.5226  -22.0437  -46.8305 H         1 UNK         0.0600 
    144 H144        0.5648  -20.8680  -44.4623 H         1 UNK         0.3000 
    145 H145        0.5347  -23.7889  -42.3855 H         1 UNK         0.0600 
    146 H146        1.9698  -22.2530  -41.0761 H         1 UNK         0.0600 
    147 H147        2.8588  -22.8667  -42.4623 H         1 UNK         0.0600 
    148 H148        2.2175  -21.2278  -42.4874 H         1 UNK         0.0600 
    149 H149       -0.1811  -21.1044  -41.8145 H         1 UNK         0.3000 
    150 H150       -3.6750  -21.3756  -42.6554 H         1 UNK         0.0600 
    151 H151       -3.3550  -22.1845  -40.3352 H         1 UNK         0.0600 
    152 H152       -3.7356  -20.4683  -40.3343 H         1 UNK         0.0600 
    153 H153       -2.0794  -21.0064  -40.0649 H         1 UNK         0.0600 
    154 H154       -2.1782  -19.1276  -41.7929 H         1 UNK         0.3000 
    155 H155       -1.2300  -17.9333  -45.0327 H         1 UNK         0.0600 
    156 H156       -3.5957  -17.2248  -44.6119 H         1 UNK         0.0600 
    157 H157       -2.4373  -15.9616  -44.2659 H         1 UNK         0.0600 
    158 H158       -3.1871  -16.8563  -42.9441 H         1 UNK         0.0600 
    159 H159       -0.7754  -16.9805  -42.3459 H         1 UNK         0.3000 
    160 H160        2.2983  -18.7166  -41.8231 H         1 UNK         0.0600 
    161 H161        1.7816  -15.7563  -42.4190 H         1 UNK         0.0600 
    162 H162        3.0096  -16.7720  -43.1530 H         1 UNK         0.0600 
    163 H163        3.1041  -16.3890  -41.4414 H         1 UNK         0.0600 
    164 H164        0.7352  -16.7850  -40.3353 H         1 UNK         0.3000 
    165 H165       -1.2592  -19.1731  -38.6247 H         1 UNK         0.0600 
    166 H166       -0.1506  -18.3319  -36.5752 H         1 UNK         0.0600 
    167 H167        0.9075  -19.4567  -37.4114 H         1 UNK         0.0600 
    168 H168        1.2090  -17.7266  -37.5229 H         1 UNK         0.0600 
    169 H169       -0.8219  -16.4222  -38.1088 H         1 UNK         0.3000 
    170 H170       -3.6963  -15.4194  -39.2906 H         1 UNK         0.0600 
    171 H171       -2.0830  -14.9193  -37.4653 H         1 UNK         0.0600 
    172 H172       -0.9085  -14.3128  -38.6371 H         1 UNK         0.0600 
    173 H173       -2.4338  -13.4753  -38.3896 H         1 UNK         0.0600 
    174 H174       -3.4654  -14.1280  -41.0784 H         1 UNK         0.3000 
    175 H175       -2.7465  -13.6205  -43.2076 H         1 UNK         0.0600 
    176 H176       -0.5645  -11.8132  -42.0021 H         1 UNK         0.0600 
    177 H177       -1.7442  -11.3211  -43.2160 H         1 UNK         0.0600 
    178 H178       -2.2756  -11.7422  -41.5970 H         1 UNK         0.0600 
    179 H179        0.0443  -14.3044  -43.5289 H         1 UNK         0.3000 
    180 H180        1.1402  -13.7563  -45.7066 H         1 UNK         0.0600 
    181 H181        0.3085  -16.0721  -45.3160 H         1 UNK         0.0600 
    182 H182        0.8519  -15.9507  -46.9733 H         1 UNK         0.0600 
    183 H183       -0.8721  -15.9116  -46.6141 H         1 UNK         0.0600 
    184 H184       -0.8920  -12.8854  -47.4655 H         1 UNK         0.3000 
    185 H185       -0.6719  -12.5881  -49.6996 H         1 UNK         0.0600 
    186 H186        0.3157  -10.6179  -48.6005 H         1 UNK         0.0600 
    187 H187        1.8708  -10.9110  -49.3599 H         1 UNK         0.0600 
    188 H188        0.4775  -10.4607  -50.3428 H         1 UNK         0.0600 
    189 H189        0.1676  -13.4608  -51.5101 H         1 UNK         0.3000 
    190 H190       -1.8936  -21.5767  -45.7578 H         1 UNK         0.3000 
    191 H191       -3.1056  -22.8313  -47.9576 H         1 UNK         0.0600 
    192 H192       -4.0938  -22.5797  -45.0707 H         1 UNK         0.0600 
    193 H193       -5.1014  -22.9675  -46.4622 H         1 UNK         0.0600 
    194 H194       -4.3259  -21.3948  -46.3534 H         1 UNK         0.0600 
    195 H195       -1.8435  -24.2876  -44.9497 H         1 UNK         0.3000 
    196 H196       -2.7871  -26.9464  -45.4947 H         1 UNK         0.0600 
    197 H197       -1.1792  -27.5847  -43.7013 H         1 UNK         0.0600 
    198 H198       -2.1550  -26.2047  -43.2192 H         1 UNK         0.0600 
    199 H199       -0.4847  -25.9687  -43.7248 H         1 UNK         0.0600 
    200 H200        0.3277  -25.2736  -46.1404 H         1 UNK         0.3000 
    201 H201        1.6552  -27.5656  -47.2045 H         1 UNK         0.0600 
    202 H202        2.8737  -25.6889  -46.1749 H         1 UNK         0.0600 
    203 H203        2.3029  -24.5801  -47.4191 H         1 UNK         0.0600 
    204 H204        3.4032  -25.8891  -47.8384 H         1 UNK         0.0600 
    205 H205        0.1859  -24.7000  -48.8381 H         1 UNK         0.3000 
    206 H206        0.8428  -25.7959  -51.4971 H         1 UNK         0.0600 
    207 H207        1.3253  -23.4238  -50.9703 H         1 UNK         0.0600 
    208 H208        0.1242  -23.5310  -52.2464 H         1 UNK         0.0600 
    209 H209       -0.3723  -23.1327  -50.6084 H         1 UNK         0.0600 
    210 H210       -1.7469  -26.1253  -49.3951 H         1 UNK         0.3000 
    211 H211       -3.7663  -26.9867  -49.4817 H         1 UNK         0.0600 
    212 H212       -3.4815  -27.4717  -52.4855 H         1 UNK         0.0600 
    213 H213       -4.6223  -28.2300  -51.3896 H         1 UNK         0.0600 
    214 H214       -2.9074  -28.5687  -51.2283 H         1 UNK         0.0600 
    215 H215       -3.0483  -24.0634  -50.6377 H         1 UNK         0.3000 
    216 H216       -5.7114  -23.0564  -50.3693 H         1 UNK         0.0600 
    217 H217       -5.7322  -21.8745  -52.5928 H         1 UNK         0.0600 
    218 H218       -5.8007  -23.6135  -52.8188 H         1 UNK         0.0600 
    219 H219       -4.2854  -22.7536  -53.0838 H         1 UNK         0.0600 
    220 H220       -5.5755  -20.8121  -49.8413 H         1 UNK         0.3000 
    221 H221       -3.0471  -20.0100  -48.6978 H         1 UNK         0.0600 
    222 H222       -5.7183  -18.5191  -48.9485 H         1 UNK         0.0600 
    223 H223       -5.2380  -19.5392  -47.5935 H         1 UNK         0.0600 
    224 H224       -4.3725  -18.0472  -47.9193 H         1 UNK         0.0600 
    225 H225       -1.8558  -18.1235  -49.1623 H         1 UNK         0.3000 
    226 H226       -1.2542  -17.5245  -51.8123 H         1 UNK         0.0600 
    227 H227        0.0428  -15.6185  -50.7806 H         1 UNK         0.0600 
    228 H228       -0.7195  -15.9567  -49.2345 H         1 UNK         0.0600 
    229 H229        0.3417  -17.1483  -49.9878 H         1 UNK         0.0600 
    230 H230       -1.9939  -16.1473  -53.2789 H         1 UNK         0.3000 
    231 H231       -3.1176  -14.6313  -54.4049 H         1 UNK         0.0600 
    232 H232       -3.8683  -12.5243  -53.4788 H         1 UNK         0.0600 
    233 H233       -2.3668  -12.9345  -52.6645 H         1 UNK         0.0600 
    234 H234       -3.9095  -13.1598  -51.8441 H         1 UNK         0.0600 
    235 H235       -4.4690  -16.9735  -52.6809 H         1 UNK         0.3000 
    236 H236       -7.1048  -16.6420  -53.9955 H         1 UNK         0.0600 
    237 H237       -7.3981  -16.1189  -51.5500 H         1 UNK         0.0600 
    238 H238       -8.1958  -17.6209  -51.9897 H         1 UNK         0.0600 
    239 H239       -6.6561  -17.6634  -51.1355 H         1 UNK         0.0600 
    240 H240       -4.6254  -17.8431  -54.8223 H         1 UNK         0.3000 
    241 H241       -4.4417  -20.5726  -54.1827 H         1 UNK         0.0600 
    242 H242       -7.0390  -20.7485  -57.2757 H         1 UNK         0.3800 
    243 H243       -6.7570  -19.2666  -56.3996 H         1 UNK         0.3800 
    244 H244       -2.6795  -20.6605  -55.9389 H         1 UNK         0.0800 
    245 H245       -3.1740  -19.1021  -56.5349 H         1 UNK         0.0800 
    246 H246       -0.5342  -20.7652  -54.8560 H         1 UNK         0.0800 
    247 H247       -1.5260  -21.0066  -53.4332 H         1 UNK         0.0800 
@<TRIPOS>BOND
     1    1    2 1    
     2    1  127 1    
     3    1  128 1    
     4    1  129 1    
     5    2    3 2    
     6    2    4 am   BACKBONE|DICT|INTERRES
     7    4    5 1    
     8    4  130 1    
     9    5    6 1    
    10    5   65 1    
    11    5  131 1    
    12    6    7 1    
    13    6  132 1    
    14    6  133 1    
    15    7    8 1    
    16    8    9 1    
    17    8  134 1    
    18    8  135 1    
    19    9   10 ar   
    20    9   14 ar   
    21   10   11 ar   
    22   10  136 1    
    23   11   12 ar   
    24   11  126 1    
    25   12   13 ar   
    26   12  137 1    
    27   13   14 ar   
    28   13   15 1    
    29   14  138 1    
    30   15   16 1    
    31   15  139 1    
    32   15  140 1    
    33   16   17 1    
    34   17   18 1    
    35   17  141 1    
    36   17  142 1    
    37   18   19 1    
    38   18   67 1    
    39   18  143 1    
    40   19   20 am   BACKBONE|DICT|INTERRES
    41   19  144 1    
    42   20   21 2    
    43   20   22 1    
    44   22   23 1    
    45   22   24 1    
    46   22  145 1    
    47   23  146 1    
    48   23  147 1    
    49   23  148 1    
    50   24   25 am   BACKBONE|DICT|INTERRES
    51   24  149 1    
    52   25   26 2    
    53   25   27 1    
    54   27   28 1    
    55   27   29 1    
    56   27  150 1    
    57   28  151 1    
    58   28  152 1    
    59   28  153 1    
    60   29   30 am   BACKBONE|DICT|INTERRES
    61   29  154 1    
    62   30   31 2    
    63   30   32 1    
    64   32   33 1    
    65   32   34 1    
    66   32  155 1    
    67   33  156 1    
    68   33  157 1    
    69   33  158 1    
    70   34   35 am   BACKBONE|DICT|INTERRES
    71   34  159 1    
    72   35   36 2    
    73   35   37 1    
    74   37   38 1    
    75   37   39 1    
    76   37  160 1    
    77   38  161 1    
    78   38  162 1    
    79   38  163 1    
    80   39   40 am   BACKBONE|DICT|INTERRES
    81   39  164 1    
    82   40   41 2    
    83   40   42 1    
    84   42   43 1    
    85   42   44 1    
    86   42  165 1    
    87   43  166 1    
    88   43  167 1    
    89   43  168 1    
    90   44   45 am   BACKBONE|DICT|INTERRES
    91   44  169 1    
    92   45   46 2    
    93   45   47 1    
    94   47   48 1    
    95   47   49 1    
    96   47  170 1    
    97   48  171 1    
    98   48  172 1    
    99   48  173 1    
   100   49   50 am   BACKBONE|DICT|INTERRES
   101   49  174 1    
   102   50   51 2    
   103   50   52 1    
   104   52   53 1    
   105   52   54 1    
   106   52  175 1    
   107   53  176 1    
   108   53  177 1    
   109   53  178 1    
   110   54   55 am   BACKBONE|DICT|INTERRES
   111   54  179 1    
   112   55   56 2    
   113   55   57 1    
   114   57   58 1    
   115   57   59 1    
   116   57  180 1    
   117   58  181 1    
   118   58  182 1    
   119   58  183 1    
   120   59   60 am   BACKBONE|DICT|INTERRES
   121   59  184 1    
   122   60   61 2    
   123   60   62 1    
   124   62   63 1    
   125   62   64 1    
   126   62  185 1    
   127   63  186 1    
   128   63  187 1    
   129   63  188 1    
   130   64   65 am   BACKBONE|DICT|INTERRES
   131   64  189 1    
   132   65   66 2    
   133   67   68 2    
   134   67   69 am   BACKBONE|DICT|INTERRES
   135   69   70 1    
   136   69  190 1    
   137   70   71 1    
   138   70   72 1    
   139   70  191 1    
   140   71  192 1    
   141   71  193 1    
   142   71  194 1    
   143   72   73 2    
   144   72   74 am   BACKBONE|DICT|INTERRES
   145   74   75 1    
   146   74  195 1    
   147   75   76 1    
   148   75   77 1    
   149   75  196 1    
   150   76  197 1    
   151   76  198 1    
   152   76  199 1    
   153   77   78 2    
   154   77   79 am   BACKBONE|DICT|INTERRES
   155   79   80 1    
   156   79  200 1    
   157   80   81 1    
   158   80   82 1    
   159   80  201 1    
   160   81  202 1    
   161   81  203 1    
   162   81  204 1    
   163   82   83 2    
   164   82   84 am   BACKBONE|DICT|INTERRES
   165   84   85 1    
   166   84  205 1    
   167   85   86 1    
   168   85   87 1    
   169   85  206 1    
   170   86  207 1    
   171   86  208 1    
   172   86  209 1    
   173   87   88 2    
   174   87   89 am   BACKBONE|DICT|INTERRES
   175   89   90 1    
   176   89  210 1    
   177   90   91 1    
   178   90   92 1    
   179   90  211 1    
   180   91  212 1    
   181   91  213 1    
   182   91  214 1    
   183   92   93 2    
   184   92   94 am   BACKBONE|DICT|INTERRES
   185   94   95 1    
   186   94  215 1    
   187   95   96 1    
   188   95   97 1    
   189   95  216 1    
   190   96  217 1    
   191   96  218 1    
   192   96  219 1    
   193   97   98 2    
   194   97   99 am   BACKBONE|DICT|INTERRES
   195   99  100 1    
   196   99  220 1    
   197  100  101 1    
   198  100  102 1    
   199  100  221 1    
   200  101  222 1    
   201  101  223 1    
   202  101  224 1    
   203  102  103 2    
   204  102  104 am   BACKBONE|DICT|INTERRES
   205  104  105 1    
   206  104  225 1    
   207  105  106 1    
   208  105  107 1    
   209  105  226 1    
   210  106  227 1    
   211  106  228 1    
   212  106  229 1    
   213  107  108 2    
   214  107  109 am   BACKBONE|DICT|INTERRES
   215  109  110 1    
   216  109  230 1    
   217  110  111 1    
   218  110  112 1    
   219  110  231 1    
   220  111  232 1    
   221  111  233 1    
   222  111  234 1    
   223  112  113 2    
   224  112  114 am   BACKBONE|DICT|INTERRES
   225  114  115 1    
   226  114  235 1    
   227  115  116 1    
   228  115  117 1    
   229  115  236 1    
   230  116  237 1    
   231  116  238 1    
   232  116  239 1    
   233  117  118 2    
   234  117  119 am   BACKBONE|DICT|INTERRES
   235  119  120 1    
   236  119  240 1    
   237  120  121 1    
   238  120  124 1    
   239  120  241 1    
   240  121  122 am   BACKBONE|DICT|INTERRES
   241  121  123 2    
   242  122  242 1    
   243  122  243 1    
   244  124  125 1    
   245  124  244 1    
   246  124  245 1    
   247  125  126 1    
   248  126  246 1    
   249  126  247 1    
@<TRIPOS>SUBSTRUCTURE
     1 UNK         1 GROUP             0       ****    0 ROOT    
