@<TRIPOS>MOLECULE
3R540
247   249    1
SMALL
USER_CHARGES


@<TRIPOS>ATOM
      1 CA          5.2471  -13.0030  -47.5636 C.3       0 UNK        -0.1800 
      2 C           4.2607  -13.2278  -48.7009 C.2       0 UNK         0.5000 
      3 O           4.0259  -12.3178  -49.4955 O.2       0 UNK        -0.5000 
      4 N           3.6810  -14.4341  -48.7708 N.am      1 UNK        -0.5000 
      5 CA          2.6950  -14.8776  -49.7687 C.3       1 UNK         0.1400 
      6 C6          3.2832  -15.0131  -51.2036 C.3       23 UNK        -0.0398 
      7 S7          4.3597  -16.4820  -51.3619 S.3       23 UNK        -0.2404 
      8 C8          3.3280  -17.6111  -52.3637 C.3       23 UNK        -0.0205 
      9 C9          2.2897  -18.3563  -51.5320 C.ar      23 UNK        -0.0193 
     10 C10         1.1527  -17.6931  -51.0637 C.ar      23 UNK        -0.1150 
     11 C11         0.2161  -18.3534  -50.2676 C.ar      23 UNK        -0.0193 
     12 C12         0.3792  -19.7138  -50.0004 C.ar      23 UNK        -0.1150 
     13 C13         1.4877  -20.4055  -50.4991 C.ar      23 UNK        -0.0193 
     14 C14         2.4491  -19.7172  -51.2475 C.ar      23 UNK        -0.1150 
     15 C15         1.6257  -21.9025  -50.2614 C.3       23 UNK        -0.0205 
     16 S16         2.8016  -22.3160  -48.9307 S.3       23 UNK        -0.2404 
     17 C17         2.0343  -21.5712  -47.4518 C.3       23 UNK        -0.0398 
     18 CA          1.1118  -22.5379  -46.6687 C.3       11 UNK         0.1400 
     19 N           0.9643  -22.1402  -45.2665 N.am      11 UNK        -0.5000 
     20 C           0.3213  -22.8499  -44.3277 C.2       10 UNK         0.5000 
     21 O          -0.1549  -23.9687  -44.5218 O.2       10 UNK        -0.5000 
     22 CA          0.1302  -22.1714  -42.9583 C.3       10 UNK         0.1400 
     23 CB          1.3895  -22.3180  -42.0917 C.3       10 UNK        -0.1800 
     24 N          -0.2241  -20.7556  -43.0810 N.am      10 UNK        -0.5000 
     25 C          -1.3592  -20.3039  -43.6349 C.2       9 UNK         0.5000 
     26 O          -2.2594  -21.0399  -44.0380 O.2       9 UNK        -0.5000 
     27 CA         -1.4850  -18.7800  -43.8247 C.3       9 UNK         0.1400 
     28 CB         -1.8975  -18.0935  -42.5154 C.3       9 UNK        -0.1800 
     29 N          -0.2499  -18.1805  -44.3321 N.am      9 UNK        -0.5000 
     30 C           0.2866  -18.4601  -45.5284 C.2       8 UNK         0.5000 
     31 O          -0.2481  -19.1872  -46.3621 O.2       8 UNK        -0.5000 
     32 CA          1.6733  -17.8728  -45.8316 C.3       8 UNK         0.1400 
     33 CB          1.5458  -16.4587  -46.4001 C.3       8 UNK        -0.1800 
     34 N           2.5308  -17.8486  -44.6478 N.am      8 UNK        -0.5000 
     35 C           3.0689  -18.9414  -44.0898 C.2       7 UNK         0.5000 
     36 O           2.9151  -20.0787  -44.5323 O.2       7 UNK        -0.5000 
     37 CA          3.8750  -18.7304  -42.7963 C.3       7 UNK         0.1400 
     38 CB          5.3022  -18.2615  -43.1158 C.3       7 UNK        -0.1800 
     39 N           3.2378  -17.7719  -41.8926 N.am      7 UNK        -0.5000 
     40 C           2.0618  -17.9760  -41.2828 C.2       6 UNK         0.5000 
     41 O           1.4061  -19.0115  -41.3931 O.2       6 UNK        -0.5000 
     42 CA          1.5052  -16.8105  -40.4444 C.3       6 UNK         0.1400 
     43 CB          2.0334  -16.8826  -39.0042 C.3       6 UNK        -0.1800 
     44 N           1.8024  -15.4889  -41.0061 N.am      6 UNK        -0.5000 
     45 C           1.3663  -15.0532  -42.1950 C.2       5 UNK         0.5000 
     46 O           0.7154  -15.7463  -42.9809 O.2       5 UNK        -0.5000 
     47 CA          1.7541  -13.6192  -42.5881 C.3       5 UNK         0.1400 
     48 CB          2.8381  -13.6313  -43.6781 C.3       5 UNK        -0.1800 
     49 N           0.5763  -12.9159  -43.0851 N.am      5 UNK        -0.5000 
     50 C          -0.3285  -12.3049  -42.3054 C.2       4 UNK         0.5000 
     51 O          -0.1887  -12.1528  -41.0910 O.2       4 UNK        -0.5000 
     52 CA         -1.6162  -11.7911  -42.9858 C.3       4 UNK         0.1400 
     53 CB         -1.4529  -10.3245  -43.4128 C.3       4 UNK        -0.1800 
     54 N          -1.9879  -12.5879  -44.1544 N.am      4 UNK        -0.5000 
     55 C          -2.3741  -13.8696  -44.1108 C.2       3 UNK         0.5000 
     56 O          -2.6805  -14.4434  -43.0654 O.2       3 UNK        -0.5000 
     57 CA         -2.4004  -14.6560  -45.4407 C.3       3 UNK         0.1400 
     58 CB         -3.8123  -15.1827  -45.7436 C.3       3 UNK        -0.1800 
     59 N          -1.8980  -13.9437  -46.6251 N.am      3 UNK        -0.5000 
     60 C          -0.6471  -13.5029  -46.8066 C.2       2 UNK         0.5000 
     61 O           0.2110  -13.4858  -45.9227 O.2       2 UNK        -0.5000 
     62 CA         -0.2774  -12.9911  -48.2002 C.3       2 UNK         0.1400 
     63 CB         -0.1794  -11.4584  -48.2244 C.3       2 UNK        -0.1800 
     64 N           1.0154  -13.5777  -48.5277 N.am      2 UNK        -0.5000 
     65 C           1.3610  -14.0892  -49.7135 C.2       1 UNK         0.5000 
     66 O           0.6460  -14.0059  -50.7131 O.2       1 UNK        -0.5000 
     67 C          -0.2609  -22.6985  -47.3535 C.2       11 UNK         0.5000 
     68 O          -0.5024  -23.7251  -47.9848 O.2       11 UNK        -0.5000 
     69 N          -1.1501  -21.7094  -47.1833 N.am      12 UNK        -0.5000 
     70 CA         -2.5159  -21.7179  -47.7069 C.3       12 UNK         0.1400 
     71 CB         -3.1849  -20.3588  -47.4567 C.3       12 UNK        -0.1800 
     72 C          -3.3717  -22.8607  -47.1355 C.2       12 UNK         0.5000 
     73 O          -4.1031  -23.4997  -47.8897 O.2       12 UNK        -0.5000 
     74 N          -3.2365  -23.1304  -45.8300 N.am      13 UNK        -0.5000 
     75 CA         -3.8912  -24.2477  -45.1479 C.3       13 UNK         0.1400 
     76 CB         -3.6599  -24.1344  -43.6336 C.3       13 UNK        -0.1800 
     77 C          -3.4349  -25.6229  -45.6735 C.2       13 UNK         0.5000 
     78 O          -4.2643  -26.5232  -45.8074 O.2       13 UNK        -0.5000 
     79 N          -2.1373  -25.7528  -45.9832 N.am      14 UNK        -0.5000 
     80 CA         -1.5492  -26.9462  -46.5908 C.3       14 UNK         0.1400 
     81 CB         -0.0214  -26.9013  -46.4318 C.3       14 UNK        -0.1800 
     82 C          -1.9457  -27.1114  -48.0707 C.2       14 UNK         0.5000 
     83 O          -2.2711  -28.2228  -48.4901 O.2       14 UNK        -0.5000 
     84 N          -1.9106  -26.0085  -48.8314 N.am      15 UNK        -0.5000 
     85 CA         -2.2544  -25.9530  -50.2535 C.3       15 UNK         0.1400 
     86 CB         -1.7801  -24.6120  -50.8347 C.3       15 UNK        -0.1800 
     87 C          -3.7535  -26.1723  -50.5294 C.2       15 UNK         0.5000 
     88 O          -4.0953  -26.7727  -51.5496 O.2       15 UNK        -0.5000 
     89 N          -4.6138  -25.6949  -49.6181 N.am      16 UNK        -0.5000 
     90 CA         -6.0727  -25.8151  -49.6189 C.3       16 UNK         0.1400 
     91 CB         -6.4894  -27.2728  -49.3234 C.3       16 UNK        -0.1800 
     92 C          -6.6885  -25.2314  -50.9058 C.2       16 UNK         0.5000 
     93 O          -6.6908  -24.0124  -51.0729 O.2       16 UNK        -0.5000 
     94 N          -7.1617  -26.0967  -51.8121 N.am      17 UNK        -0.5000 
     95 CA         -7.7147  -25.7277  -53.1175 C.3       17 UNK         0.1400 
     96 CB         -8.3067  -26.9817  -53.7786 C.3       17 UNK        -0.1800 
     97 C          -6.6987  -25.0493  -54.0607 C.2       17 UNK         0.5000 
     98 O          -7.1106  -24.3010  -54.9476 O.2       17 UNK        -0.5000 
     99 N          -5.3989  -25.3047  -53.8527 N.am      18 UNK        -0.5000 
    100 CA        -4.3044  -24.7134  -54.6237 C.3       18 UNK         0.1400 
    101 CB        -3.1272  -25.7020  -54.6604 C.3       18 UNK        -0.1800 
    102 C         -3.8576  -23.3325  -54.0987 C.2       18 UNK         0.5000 
    103 O         -2.9866  -22.7182  -54.7174 O.2       18 UNK        -0.5000 
    104 N         -4.4357  -22.8512  -52.9866 N.am      19 UNK        -0.5000 
    105 CA        -4.1364  -21.5516  -52.3765 C.3       19 UNK         0.1400 
    106 CB        -4.5478  -21.5836  -50.8948 C.3       19 UNK        -0.1800 
    107 C         -4.8021  -20.3875  -53.1420 C.2       19 UNK         0.5000 
    108 O         -5.6805  -19.7080  -52.6070 O.2       19 UNK        -0.5000 
    109 N         -4.3902  -20.1935  -54.3998 N.am      20 UNK        -0.5000 
    110 CA        -4.8038  -19.0829  -55.2547 C.3       20 UNK         0.1400 
    111 CB        -4.3423  -19.3621  -56.6931 C.3       20 UNK        -0.1800 
    112 C         -4.2307  -17.7465  -54.7469 C.2       20 UNK         0.5000 
    113 O         -3.0834  -17.7110  -54.2971 O.2       20 UNK        -0.5000 
    114 N         -5.0333  -16.6788  -54.8567 N.am      21 UNK        -0.5000 
    115 CA        -4.7745  -15.3278  -54.3494 C.3       21 UNK         0.1400 
    116 CB        -3.5733  -14.6718  -55.0699 C.3       21 UNK        -0.1800 
    117 C         -4.6835  -15.3209  -52.8083 C.2       21 UNK         0.5000 
    118 O         -5.7060  -15.5390  -52.1569 O.2       21 UNK        -0.5000 
    119 N         -3.4895  -15.0593  -52.2602 N.am      22 UNK        -0.5000 
    120 CA        -3.1737  -15.0005  -50.8189 C.3       22 UNK         0.1400 
    121 C         -3.7775  -13.7820  -50.0561 C.2       22 UNK         0.5000 
    122 N         -4.3475  -12.7876  -50.7243 N.am      22 UNK        -0.7600 
    123 O         -3.6815  -13.7093  -48.8340 O.2       22 UNK        -0.5000 
    124 C124       -3.4196  -16.3433  -50.0679 C.3       23 UNK        -0.0398 
    125 S125       -2.4268  -17.7146  -50.7448 S.3       23 UNK        -0.2404 
    126 C126       -0.9567  -17.5848  -49.6865 C.3       23 UNK        -0.0205 
    127 H127        6.2291  -12.7496  -47.9630 H         1 UNK         0.0600 
    128 H128        5.3530  -13.8884  -46.9361 H         1 UNK         0.0600 
    129 H129        4.9108  -12.1796  -46.9334 H         1 UNK         0.0600 
    130 H130        3.9503  -15.1365  -48.0972 H         1 UNK         0.3000 
    131 H131        2.4109  -15.8770  -49.4391 H         1 UNK         0.0600 
    132 H132        2.5066  -15.0805  -51.9653 H         1 UNK         0.0800 
    133 H133        3.8606  -14.1275  -51.4697 H         1 UNK         0.0800 
    134 H134        3.9889  -18.3256  -52.8566 H         1 UNK         0.0800 
    135 H135        2.8358  -17.0613  -53.1670 H         1 UNK         0.0800 
    136 H136        0.9973  -16.6533  -51.3048 H         1 UNK         0.1150 
    137 H137       -0.3617  -20.2310  -49.4083 H         1 UNK         0.1150 
    138 H138        3.3131  -20.2484  -51.6216 H         1 UNK         0.1150 
    139 H139        0.6529  -22.3465  -50.0501 H         1 UNK         0.0800 
    140 H140        1.9687  -22.3773  -51.1817 H         1 UNK         0.0800 
    141 H141        1.5280  -20.6410  -47.7044 H         1 UNK         0.0800 
    142 H142        2.8698  -21.2782  -46.8166 H         1 UNK         0.0800 
    143 H143        1.5857  -23.5219  -46.6566 H         1 UNK         0.0600 
    144 H144        1.3858  -21.2563  -45.0002 H         1 UNK         0.3000 
    145 H145       -0.6919  -22.6782  -42.4491 H         1 UNK         0.0600 
    146 H146        2.2457  -21.8066  -42.5319 H         1 UNK         0.0600 
    147 H147        1.2311  -21.9048  -41.0954 H         1 UNK         0.0600 
    148 H148        1.6597  -23.3676  -41.9701 H         1 UNK         0.0600 
    149 H149        0.4447  -20.0845  -42.7144 H         1 UNK         0.3000 
    150 H150       -2.2688  -18.5976  -44.5629 H         1 UNK         0.0600 
    151 H151       -2.8608  -18.4677  -42.1672 H         1 UNK         0.0600 
    152 H152       -1.9944  -17.0165  -42.6487 H         1 UNK         0.0600 
    153 H153       -1.1725  -18.2670  -41.7210 H         1 UNK         0.0600 
    154 H154        0.2210  -17.5135  -43.7282 H         1 UNK         0.3000 
    155 H155        2.1473  -18.4999  -46.5895 H         1 UNK         0.0600 
    156 H156        1.0741  -15.8009  -45.6737 H         1 UNK         0.0600 
    157 H157        2.5201  -16.0421  -46.6505 H         1 UNK         0.0600 
    158 H158        0.9351  -16.4503  -47.3037 H         1 UNK         0.0600 
    159 H159        2.6503  -16.9580  -44.1891 H         1 UNK         0.3000 
    160 H160        3.9376  -19.6921  -42.2824 H         1 UNK         0.0600 
    161 H161        5.8048  -18.9671  -43.7788 H         1 UNK         0.0600 
    162 H162        5.3083  -17.2877  -43.6071 H         1 UNK         0.0600 
    163 H163        5.9035  -18.1843  -42.2098 H         1 UNK         0.0600 
    164 H164        3.7113  -16.8930  -41.7452 H         1 UNK         0.3000 
    165 H165        0.4193  -16.9188  -40.4130 H         1 UNK         0.0600 
    166 H166        1.5740  -16.1186  -38.3766 H         1 UNK         0.0600 
    167 H167        1.8071  -17.8500  -38.5535 H         1 UNK         0.0600 
    168 H168        3.1148  -16.7464  -38.9634 H         1 UNK         0.0600 
    169 H169        2.3368  -14.8631  -40.4206 H         1 UNK         0.3000 
    170 H170        2.1515  -13.0953  -41.7163 H         1 UNK         0.0600 
    171 H171        3.7403  -14.1336  -43.3274 H         1 UNK         0.0600 
    172 H172        2.5037  -14.1473  -44.5782 H         1 UNK         0.0600 
    173 H173        3.1196  -12.6175  -43.9632 H         1 UNK         0.0600 
    174 H174        0.3652  -13.0564  -44.0699 H         1 UNK         0.3000 
    175 H175       -2.4271  -11.8509  -42.2571 H         1 UNK         0.0600 
    176 H176       -0.6633  -10.2076  -44.1563 H         1 UNK         0.0600 
    177 H177       -2.3767   -9.9321  -43.8383 H         1 UNK         0.0600 
    178 H178       -1.1962   -9.6960  -42.5590 H         1 UNK         0.0600 
    179 H179       -1.7507  -12.2044  -45.0570 H         1 UNK         0.3000 
    180 H180       -1.7492  -15.5199  -45.2895 H         1 UNK         0.0600 
    181 H181       -4.5071  -14.3670  -45.9470 H         1 UNK         0.0600 
    182 H182       -4.2103  -15.7552  -44.9048 H         1 UNK         0.0600 
    183 H183       -3.8089  -15.8440  -46.6100 H         1 UNK         0.0600 
    184 H184       -2.5591  -13.8592  -47.3962 H         1 UNK         0.3000 
    185 H185       -1.0336  -13.3178  -48.9146 H         1 UNK         0.0600 
    186 H186        0.1064  -11.1000  -49.2135 H         1 UNK         0.0600 
    187 H187       -1.1389  -11.0028  -47.9766 H         1 UNK         0.0600 
    188 H188        0.5575  -11.0898  -47.5095 H         1 UNK         0.0600 
    189 H189        1.6293  -13.7060  -47.7340 H         1 UNK         0.3000 
    190 H190       -0.8626  -20.8682  -46.6869 H         1 UNK         0.3000 
    191 H191       -2.4453  -21.8642  -48.7854 H         1 UNK         0.0600 
    192 H192       -3.2237  -20.1158  -46.3952 H         1 UNK         0.0600 
    193 H193       -4.2085  -20.3509  -47.8330 H         1 UNK         0.0600 
    194 H194       -2.6494  -19.5585  -47.9636 H         1 UNK         0.0600 
    195 H195       -2.6602  -22.5174  -45.2604 H         1 UNK         0.3000 
    196 H196       -4.9641  -24.1640  -45.3326 H         1 UNK         0.0600 
    197 H197       -4.1707  -24.9366  -43.0998 H         1 UNK         0.0600 
    198 H198       -4.0426  -23.1900  -43.2461 H         1 UNK         0.0600 
    199 H199       -2.6013  -24.1943  -43.3812 H         1 UNK         0.0600 
    200 H200       -1.5116  -24.9759  -45.8005 H         1 UNK         0.3000 
    201 H201       -1.9157  -27.8204  -46.0486 H         1 UNK         0.0600 
    202 H202        0.2630  -26.8504  -45.3806 H         1 UNK         0.0600 
    203 H203        0.4141  -26.0381  -46.9357 H         1 UNK         0.0600 
    204 H204        0.4412  -27.7950  -46.8522 H         1 UNK         0.0600 
    205 H205       -1.5621  -25.1455  -48.4185 H         1 UNK         0.3000 
    206 H206       -1.7106  -26.7515  -50.7622 H         1 UNK         0.0600 
    207 H207       -0.6967  -24.5159  -50.7624 H         1 UNK         0.0600 
    208 H208       -2.0440  -24.5157  -51.8871 H         1 UNK         0.0600 
    209 H209       -2.2223  -23.7687  -50.3063 H         1 UNK         0.0600 
    210 H210       -4.2398  -25.1144  -48.8716 H         1 UNK         0.3000 
    211 H211       -6.4333  -25.1947  -48.7972 H         1 UNK         0.0600 
    212 H212       -6.1082  -27.9742  -50.0662 H         1 UNK         0.0600 
    213 H213       -7.5750  -27.3736  -49.2930 H         1 UNK         0.0600 
    214 H214       -6.1107  -27.5904  -48.3515 H         1 UNK         0.0600 
    215 H215       -7.0870  -27.0841  -51.6148 H         1 UNK         0.3000 
    216 H216       -8.5249  -25.0160  -52.9466 H         1 UNK         0.0600 
    217 H217       -8.7558  -26.7406  -54.7430 H         1 UNK         0.0600 
    218 H218       -9.0879  -27.4234  -53.1597 H         1 UNK         0.0600 
    219 H219       -7.5441  -27.7420  -53.9524 H         1 UNK         0.0600 
    220 H220       -5.1324  -25.9185  -53.0885 H         1 UNK         0.3000 
    221 H221       -4.6361  -24.5647  -55.6534 H         1 UNK         0.0600 
    222 H222       -2.7243  -25.8941  -53.6671 H         1 UNK         0.0600 
    223 H223       -3.4309  -26.6582  -55.0868 H         1 UNK         0.0600 
    224 H224       -2.3116  -25.3195  -55.2753 H         1 UNK         0.0600 
    225 H225       -5.1748  -23.3866  -52.5471 H         1 UNK         0.3000 
    226 H226       -3.0563  -21.3921  -52.4102 H         1 UNK         0.0600 
    227 H227       -4.1354  -22.4531  -50.3871 H         1 UNK         0.0600 
    228 H228       -4.1900  -20.6937  -50.3759 H         1 UNK         0.0600 
    229 H229       -5.6306  -21.6187  -50.7733 H         1 UNK         0.0600 
    230 H230       -3.6766  -20.8159  -54.7634 H         1 UNK         0.3000 
    231 H231       -5.8947  -19.0314  -55.2431 H         1 UNK         0.0600 
    232 H232       -4.6549  -18.5626  -57.3660 H         1 UNK         0.0600 
    233 H233       -4.7690  -20.2913  -57.0714 H         1 UNK         0.0600 
    234 H234       -3.2562  -19.4405  -56.7583 H         1 UNK         0.0600 
    235 H235       -5.9618  -16.8209  -55.2292 H         1 UNK         0.3000 
    236 H236       -5.6569  -14.7365  -54.5991 H         1 UNK         0.0600 
    237 H237       -3.4362  -13.6410  -54.7407 H         1 UNK         0.0600 
    238 H238       -3.7374  -14.6432  -56.1471 H         1 UNK         0.0600 
    239 H239       -2.6363  -15.2009  -54.8962 H         1 UNK         0.0600 
    240 H240       -2.7070  -14.9131  -52.8812 H         1 UNK         0.3000 
    241 H241       -2.1000  -14.8143  -50.7837 H         1 UNK         0.0600 
    242 H242       -4.4206  -12.8160  -51.7280 H         1 UNK         0.3800 
    243 H243       -4.7190  -12.0009  -50.2159 H         1 UNK         0.3800 
    244 H244       -3.1847  -16.2493  -49.0067 H         1 UNK         0.0800 
    245 H245       -4.4722  -16.6243  -50.1108 H         1 UNK         0.0800 
    246 H246       -0.6839  -16.5350  -49.5701 H         1 UNK         0.0800 
    247 H247       -1.1851  -17.9496  -48.6850 H         1 UNK         0.0800 
@<TRIPOS>BOND
     1    1    2 1    
     2    1  127 1    
     3    1  128 1    
     4    1  129 1    
     5    2    3 2    
     6    2    4 am   BACKBONE|DICT|INTERRES
     7    4    5 1    
     8    4  130 1    
     9    5    6 1    
    10    5   65 1    
    11    5  131 1    
    12    6    7 1    
    13    6  132 1    
    14    6  133 1    
    15    7    8 1    
    16    8    9 1    
    17    8  134 1    
    18    8  135 1    
    19    9   10 ar   
    20    9   14 ar   
    21   10   11 ar   
    22   10  136 1    
    23   11   12 ar   
    24   11  126 1    
    25   12   13 ar   
    26   12  137 1    
    27   13   14 ar   
    28   13   15 1    
    29   14  138 1    
    30   15   16 1    
    31   15  139 1    
    32   15  140 1    
    33   16   17 1    
    34   17   18 1    
    35   17  141 1    
    36   17  142 1    
    37   18   19 1    
    38   18   67 1    
    39   18  143 1    
    40   19   20 am   BACKBONE|DICT|INTERRES
    41   19  144 1    
    42   20   21 2    
    43   20   22 1    
    44   22   23 1    
    45   22   24 1    
    46   22  145 1    
    47   23  146 1    
    48   23  147 1    
    49   23  148 1    
    50   24   25 am   BACKBONE|DICT|INTERRES
    51   24  149 1    
    52   25   26 2    
    53   25   27 1    
    54   27   28 1    
    55   27   29 1    
    56   27  150 1    
    57   28  151 1    
    58   28  152 1    
    59   28  153 1    
    60   29   30 am   BACKBONE|DICT|INTERRES
    61   29  154 1    
    62   30   31 2    
    63   30   32 1    
    64   32   33 1    
    65   32   34 1    
    66   32  155 1    
    67   33  156 1    
    68   33  157 1    
    69   33  158 1    
    70   34   35 am   BACKBONE|DICT|INTERRES
    71   34  159 1    
    72   35   36 2    
    73   35   37 1    
    74   37   38 1    
    75   37   39 1    
    76   37  160 1    
    77   38  161 1    
    78   38  162 1    
    79   38  163 1    
    80   39   40 am   BACKBONE|DICT|INTERRES
    81   39  164 1    
    82   40   41 2    
    83   40   42 1    
    84   42   43 1    
    85   42   44 1    
    86   42  165 1    
    87   43  166 1    
    88   43  167 1    
    89   43  168 1    
    90   44   45 am   BACKBONE|DICT|INTERRES
    91   44  169 1    
    92   45   46 2    
    93   45   47 1    
    94   47   48 1    
    95   47   49 1    
    96   47  170 1    
    97   48  171 1    
    98   48  172 1    
    99   48  173 1    
   100   49   50 am   BACKBONE|DICT|INTERRES
   101   49  174 1    
   102   50   51 2    
   103   50   52 1    
   104   52   53 1    
   105   52   54 1    
   106   52  175 1    
   107   53  176 1    
   108   53  177 1    
   109   53  178 1    
   110   54   55 am   BACKBONE|DICT|INTERRES
   111   54  179 1    
   112   55   56 2    
   113   55   57 1    
   114   57   58 1    
   115   57   59 1    
   116   57  180 1    
   117   58  181 1    
   118   58  182 1    
   119   58  183 1    
   120   59   60 am   BACKBONE|DICT|INTERRES
   121   59  184 1    
   122   60   61 2    
   123   60   62 1    
   124   62   63 1    
   125   62   64 1    
   126   62  185 1    
   127   63  186 1    
   128   63  187 1    
   129   63  188 1    
   130   64   65 am   BACKBONE|DICT|INTERRES
   131   64  189 1    
   132   65   66 2    
   133   67   68 2    
   134   67   69 am   BACKBONE|DICT|INTERRES
   135   69   70 1    
   136   69  190 1    
   137   70   71 1    
   138   70   72 1    
   139   70  191 1    
   140   71  192 1    
   141   71  193 1    
   142   71  194 1    
   143   72   73 2    
   144   72   74 am   BACKBONE|DICT|INTERRES
   145   74   75 1    
   146   74  195 1    
   147   75   76 1    
   148   75   77 1    
   149   75  196 1    
   150   76  197 1    
   151   76  198 1    
   152   76  199 1    
   153   77   78 2    
   154   77   79 am   BACKBONE|DICT|INTERRES
   155   79   80 1    
   156   79  200 1    
   157   80   81 1    
   158   80   82 1    
   159   80  201 1    
   160   81  202 1    
   161   81  203 1    
   162   81  204 1    
   163   82   83 2    
   164   82   84 am   BACKBONE|DICT|INTERRES
   165   84   85 1    
   166   84  205 1    
   167   85   86 1    
   168   85   87 1    
   169   85  206 1    
   170   86  207 1    
   171   86  208 1    
   172   86  209 1    
   173   87   88 2    
   174   87   89 am   BACKBONE|DICT|INTERRES
   175   89   90 1    
   176   89  210 1    
   177   90   91 1    
   178   90   92 1    
   179   90  211 1    
   180   91  212 1    
   181   91  213 1    
   182   91  214 1    
   183   92   93 2    
   184   92   94 am   BACKBONE|DICT|INTERRES
   185   94   95 1    
   186   94  215 1    
   187   95   96 1    
   188   95   97 1    
   189   95  216 1    
   190   96  217 1    
   191   96  218 1    
   192   96  219 1    
   193   97   98 2    
   194   97   99 am   BACKBONE|DICT|INTERRES
   195   99  100 1    
   196   99  220 1    
   197  100  101 1    
   198  100  102 1    
   199  100  221 1    
   200  101  222 1    
   201  101  223 1    
   202  101  224 1    
   203  102  103 2    
   204  102  104 am   BACKBONE|DICT|INTERRES
   205  104  105 1    
   206  104  225 1    
   207  105  106 1    
   208  105  107 1    
   209  105  226 1    
   210  106  227 1    
   211  106  228 1    
   212  106  229 1    
   213  107  108 2    
   214  107  109 am   BACKBONE|DICT|INTERRES
   215  109  110 1    
   216  109  230 1    
   217  110  111 1    
   218  110  112 1    
   219  110  231 1    
   220  111  232 1    
   221  111  233 1    
   222  111  234 1    
   223  112  113 2    
   224  112  114 am   BACKBONE|DICT|INTERRES
   225  114  115 1    
   226  114  235 1    
   227  115  116 1    
   228  115  117 1    
   229  115  236 1    
   230  116  237 1    
   231  116  238 1    
   232  116  239 1    
   233  117  118 2    
   234  117  119 am   BACKBONE|DICT|INTERRES
   235  119  120 1    
   236  119  240 1    
   237  120  121 1    
   238  120  124 1    
   239  120  241 1    
   240  121  122 am   BACKBONE|DICT|INTERRES
   241  121  123 2    
   242  122  242 1    
   243  122  243 1    
   244  124  125 1    
   245  124  244 1    
   246  124  245 1    
   247  125  126 1    
   248  126  246 1    
   249  126  247 1    
@<TRIPOS>SUBSTRUCTURE
     1 UNK         1 GROUP             0       ****    0 ROOT    
