@<TRIPOS>MOLECULE
3R540
247   249    1
SMALL
USER_CHARGES


@<TRIPOS>ATOM
      1 CA         -5.1693  -15.5213  -44.6617 C.3       0 UNK        -0.1800 
      2 C          -4.4947  -15.5453  -46.0257 C.2       0 UNK         0.5000 
      3 O          -4.7265  -14.6536  -46.8416 O.2       0 UNK        -0.5000 
      4 N          -3.6584  -16.5612  -46.2734 N.am      1 UNK        -0.5000 
      5 CA         -2.9216  -16.7656  -47.5280 C.3       1 UNK         0.1400 
      6 C6         -2.3523  -18.2007  -47.6290 C.3       23 UNK        -0.0398 
      7 S7         -3.6348  -19.5020  -47.6022 S.3       23 UNK        -0.2404 
      8 C8         -4.1085  -19.6159  -49.3636 C.3       23 UNK        -0.0205 
      9 C9         -2.9199  -19.7878  -50.3040 C.ar      23 UNK        -0.0193 
     10 C10        -2.7805  -18.9473  -51.4111 C.ar      23 UNK        -0.1150 
     11 C11        -1.6500  -19.0095  -52.2327 C.ar      23 UNK        -0.0193 
     12 C12        -0.6404  -19.9280  -51.9138 C.ar      23 UNK        -0.1150 
     13 C13        -0.7766  -20.7902  -50.8219 C.ar      23 UNK        -0.0193 
     14 C14        -1.9333  -20.7400  -50.0432 C.ar      23 UNK        -0.1150 
     15 C15         0.3438  -21.7499  -50.4601 C.3       23 UNK        -0.0205 
     16 S16         1.6190  -20.9485  -49.4324 S.3       23 UNK        -0.2404 
     17 C17         0.7643  -20.6562  -47.8414 C.3       23 UNK        -0.0398 
     18 CA          0.7633  -21.9124  -46.9300 C.3       11 UNK         0.1400 
     19 N           1.3544  -21.6657  -45.6094 N.am      11 UNK        -0.5000 
     20 C           1.8012  -22.6475  -44.8128 C.2       10 UNK         0.5000 
     21 O           1.7401  -23.8403  -45.1075 O.2       10 UNK        -0.5000 
     22 CA          2.3725  -22.2451  -43.4433 C.3       10 UNK         0.1400 
     23 CB          3.7777  -21.6425  -43.5886 C.3       10 UNK        -0.1800 
     24 N           1.5003  -21.3244  -42.7160 N.am      10 UNK        -0.5000 
     25 C           0.2542  -21.6215  -42.3190 C.2       9 UNK         0.5000 
     26 O          -0.2822  -22.7129  -42.5077 O.2       9 UNK        -0.5000 
     27 CA         -0.5441  -20.5034  -41.6284 C.3       9 UNK         0.1400 
     28 CB         -0.1599  -20.4008  -40.1450 C.3       9 UNK        -0.1800 
     29 N          -0.3729  -19.2017  -42.2715 N.am      9 UNK        -0.5000 
     30 C          -0.7212  -18.9197  -43.5353 C.2       8 UNK         0.5000 
     31 O          -1.2441  -19.7230  -44.3062 O.2       8 UNK        -0.5000 
     32 CA         -0.3663  -17.5139  -44.0422 C.3       8 UNK         0.1400 
     33 CB         -1.2899  -16.4565  -43.4209 C.3       8 UNK        -0.1800 
     34 N           1.0290  -17.1760  -43.7797 N.am      8 UNK        -0.5000 
     35 C           2.0829  -17.8506  -44.2622 C.2       7 UNK         0.5000 
     36 O           1.9956  -18.8178  -45.0202 O.2       7 UNK        -0.5000 
     37 CA          3.4661  -17.3910  -43.7744 C.3       7 UNK         0.1400 
     38 CB          3.9661  -16.1957  -44.5986 C.3       7 UNK        -0.1800 
     39 N           3.4537  -17.0405  -42.3537 N.am      7 UNK        -0.5000 
     40 C           3.2900  -17.9254  -41.3598 C.2       6 UNK         0.5000 
     41 O           3.1620  -19.1370  -41.5340 O.2       6 UNK        -0.5000 
     42 CA          3.2113  -17.3498  -39.9351 C.3       6 UNK         0.1400 
     43 CB          4.6130  -17.0180  -39.4013 C.3       6 UNK        -0.1800 
     44 N           2.3654  -16.1578  -39.8618 N.am      6 UNK        -0.5000 
     45 C           1.0414  -16.1594  -40.0704 C.2       5 UNK         0.5000 
     46 O           0.3906  -17.1718  -40.3265 O.2       5 UNK        -0.5000 
     47 CA          0.3293  -14.7956  -40.0212 C.3       5 UNK         0.1400 
     48 CB         -0.0757  -14.4519  -38.5801 C.3       5 UNK        -0.1800 
     49 N           1.1162  -13.6928  -40.5809 N.am      5 UNK        -0.5000 
     50 C           1.5391  -13.6234  -41.8495 C.2       4 UNK         0.5000 
     51 O           1.3924  -14.5273  -42.6752 O.2       4 UNK        -0.5000 
     52 CA          2.2644  -12.3367  -42.2667 C.3       4 UNK         0.1400 
     53 CB          3.7472  -12.6152  -42.5578 C.3       4 UNK        -0.1800 
     54 N           1.6287  -11.7961  -43.4643 N.am      4 UNK        -0.5000 
     55 C           0.5544  -10.9954  -43.4570 C.2       3 UNK         0.5000 
     56 O           0.0506  -10.5345  -42.4318 O.2       3 UNK        -0.5000 
     57 CA         -0.0691  -10.6610  -44.8261 C.3       3 UNK         0.1400 
     58 CB          0.5862   -9.4077  -45.4265 C.3       3 UNK        -0.1800 
     59 N           0.0379  -11.7668  -45.7816 N.am      3 UNK        -0.5000 
     60 C          -0.6751  -12.8976  -45.7047 C.2       2 UNK         0.5000 
     61 O          -1.5410  -13.1078  -44.8509 O.2       2 UNK        -0.5000 
     62 CA         -0.3522  -13.9739  -46.7510 C.3       2 UNK         0.1400 
     63 CB          1.0158  -14.6217  -46.4731 C.3       2 UNK        -0.1800 
     64 N          -1.3902  -14.9986  -46.7185 N.am      2 UNK        -0.5000 
     65 C          -1.7909  -15.7346  -47.7612 C.2       1 UNK         0.5000 
     66 O          -1.2960  -15.6360  -48.8845 O.2       1 UNK        -0.5000 
     67 C          -0.6314  -22.5715  -46.8322 C.2       11 UNK         0.5000 
     68 O          -0.9718  -23.4015  -47.6793 O.2       11 UNK        -0.5000 
     69 N          -1.4029  -22.2371  -45.7873 N.am      12 UNK        -0.5000 
     70 CA         -2.6760  -22.8865  -45.4704 C.3       12 UNK         0.1400 
     71 CB         -3.4038  -22.1138  -44.3618 C.3       12 UNK        -0.1800 
     72 C          -2.5040  -24.3692  -45.0890 C.2       12 UNK         0.5000 
     73 O          -3.2992  -25.2031  -45.5197 O.2       12 UNK        -0.5000 
     74 N          -1.4525  -24.6823  -44.3204 N.am      13 UNK        -0.5000 
     75 CA         -1.0683  -26.0525  -43.9835 C.3       13 UNK         0.1400 
     76 CB         -0.0371  -26.0337  -42.8448 C.3       13 UNK        -0.1800 
     77 C          -0.5285  -26.8276  -45.2004 C.2       13 UNK         0.5000 
     78 O          -0.8396  -28.0099  -45.3507 O.2       13 UNK        -0.5000 
     79 N           0.2681  -26.1529  -46.0413 N.am      14 UNK        -0.5000 
     80 CA          0.8978  -26.7298  -47.2276 C.3       14 UNK         0.1400 
     81 CB          1.9981  -25.7899  -47.7427 C.3       14 UNK        -0.1800 
     82 C          -0.0910  -27.0553  -48.3597 C.2       14 UNK         0.5000 
     83 O           0.0627  -28.1000  -48.9952 O.2       14 UNK        -0.5000 
     84 N          -1.0624  -26.1663  -48.6140 N.am      15 UNK        -0.5000 
     85 CA         -1.9826  -26.2982  -49.7447 C.3       15 UNK         0.1400 
     86 CB         -1.3411  -25.7104  -51.0162 C.3       15 UNK        -0.1800 
     87 C          -3.3605  -25.6686  -49.5026 C.2       15 UNK         0.5000 
     88 O          -4.3614  -26.3017  -49.8409 O.2       15 UNK        -0.5000 
     89 N          -3.3953  -24.4305  -48.9816 N.am      16 UNK        -0.5000 
     90 CA         -4.5822  -23.5584  -48.9194 C.3       16 UNK         0.1400 
     91 CB         -5.6240  -24.0817  -47.9070 C.3       16 UNK        -0.1800 
     92 C          -5.1924  -23.3049  -50.3187 C.2       16 UNK         0.5000 
     93 O          -6.3969  -23.4733  -50.5213 O.2       16 UNK        -0.5000 
     94 N          -4.3215  -22.9479  -51.2705 N.am      17 UNK        -0.5000 
     95 CA         -4.6443  -22.7032  -52.6755 C.3       17 UNK         0.1400 
     96 CB         -3.3222  -22.6523  -53.4556 C.3       17 UNK        -0.1800 
     97 C          -5.4706  -21.4199  -52.9085 C.2       17 UNK         0.5000 
     98 O          -5.6642  -20.6183  -51.9928 O.2       17 UNK        -0.5000 
     99 N          -5.9364  -21.2374  -54.1511 N.am      18 UNK        -0.5000 
    100 CA        -6.6347  -20.0337  -54.6008 C.3       18 UNK         0.1400 
    101 CB        -7.2373  -20.2871  -55.9916 C.3       18 UNK        -0.1800 
    102 C         -5.6779  -18.8296  -54.6378 C.2       18 UNK         0.5000 
    103 O         -4.6811  -18.8735  -55.3621 O.2       18 UNK        -0.5000 
    104 N         -6.0036  -17.7735  -53.8813 N.am      19 UNK        -0.5000 
    105 CA        -5.1877  -16.5663  -53.6939 C.3       19 UNK         0.1400 
    106 CB        -5.8831  -15.6509  -52.6752 C.3       19 UNK        -0.1800 
    107 C         -4.8539  -15.7892  -54.9828 C.2       19 UNK         0.5000 
    108 O         -3.8736  -15.0449  -55.0047 O.2       19 UNK        -0.5000 
    109 N         -5.6627  -15.9837  -56.0307 N.am      20 UNK        -0.5000 
    110 CA        -5.4886  -15.3799  -57.3484 C.3       20 UNK         0.1400 
    111 CB        -6.8108  -15.5113  -58.1215 C.3       20 UNK        -0.1800 
    112 C         -4.3282  -15.9770  -58.1714 C.2       20 UNK         0.5000 
    113 O         -3.9022  -15.3287  -59.1291 O.2       20 UNK        -0.5000 
    114 N         -3.8557  -17.1875  -57.8311 N.am      21 UNK        -0.5000 
    115 CA        -2.8731  -17.9163  -58.6422 C.3       21 UNK         0.1400 
    116 CB        -3.6166  -18.7797  -59.6777 C.3       21 UNK        -0.1800 
    117 C         -1.8809  -18.7769  -57.8416 C.2       21 UNK         0.5000 
    118 O         -0.7966  -19.0494  -58.3586 O.2       21 UNK        -0.5000 
    119 N         -2.2540  -19.2181  -56.6324 N.am      22 UNK        -0.5000 
    120 CA        -1.5064  -20.1804  -55.7985 C.3       22 UNK         0.1400 
    121 C         -1.4433  -21.6229  -56.3944 C.2       22 UNK         0.5000 
    122 N         -2.3347  -22.0004  -57.3035 N.am      22 UNK        -0.7600 
    123 O         -0.5992  -22.4275  -56.0098 O.2       22 UNK        -0.5000 
    124 C124       -0.1072  -19.6696  -55.3421 C.3       23 UNK        -0.0398 
    125 S125       -0.0529  -18.0780  -54.4362 S.3       23 UNK        -0.2404 
    126 C126       -1.5715  -18.0381  -53.4155 C.3       23 UNK        -0.0205 
    127 H127       -4.9370  -16.4123  -44.0779 H         1 UNK         0.0600 
    128 H128       -6.2516  -15.4655  -44.7784 H         1 UNK         0.0600 
    129 H129       -4.8398  -14.6487  -44.0975 H         1 UNK         0.0600 
    130 H130       -3.5480  -17.2902  -45.5837 H         1 UNK         0.3000 
    131 H131       -3.6288  -16.6319  -48.3495 H         1 UNK         0.0600 
    132 H132       -1.7409  -18.3089  -48.5249 H         1 UNK         0.0800 
    133 H133       -1.6768  -18.4022  -46.7990 H         1 UNK         0.0800 
    134 H134       -4.6744  -18.7205  -49.6244 H         1 UNK         0.0800 
    135 H135       -4.7943  -20.4516  -49.4918 H         1 UNK         0.0800 
    136 H136       -3.5533  -18.2229  -51.6180 H         1 UNK         0.1150 
    137 H137        0.2697  -19.9713  -52.4908 H         1 UNK         0.1150 
    138 H138       -2.0364  -21.3943  -49.1905 H         1 UNK         0.1150 
    139 H139       -0.0466  -22.6292  -49.9497 H         1 UNK         0.0800 
    140 H140        0.8129  -22.1197  -51.3731 H         1 UNK         0.0800 
    141 H141       -0.2353  -20.2600  -48.0129 H         1 UNK         0.0800 
    142 H142        1.3009  -19.8384  -47.3599 H         1 UNK         0.0800 
    143 H143        1.4044  -22.6603  -47.3989 H         1 UNK         0.0600 
    144 H144        1.4447  -20.6986  -45.3097 H         1 UNK         0.3000 
    145 H145        2.4600  -23.1546  -42.8452 H         1 UNK         0.0600 
    146 H146        4.2272  -21.4533  -42.6138 H         1 UNK         0.0600 
    147 H147        4.4406  -22.3228  -44.1245 H         1 UNK         0.0600 
    148 H148        3.7601  -20.7013  -44.1376 H         1 UNK         0.0600 
    149 H149        1.8891  -20.4164  -42.4834 H         1 UNK         0.3000 
    150 H150       -1.6022  -20.7652  -41.6880 H         1 UNK         0.0600 
    151 H151       -0.2836  -21.3600  -39.6408 H         1 UNK         0.0600 
    152 H152       -0.7877  -19.6767  -39.6254 H         1 UNK         0.0600 
    153 H153        0.8789  -20.0928  -40.0189 H         1 UNK         0.0600 
    154 H154        0.0361  -18.4678  -41.6989 H         1 UNK         0.3000 
    155 H155       -0.5013  -17.4918  -45.1231 H         1 UNK         0.0600 
    156 H156       -1.2267  -16.4511  -42.3339 H         1 UNK         0.0600 
    157 H157       -2.3311  -16.6428  -43.6822 H         1 UNK         0.0600 
    158 H158       -1.0353  -15.4570  -43.7687 H         1 UNK         0.0600 
    159 H159        1.1979  -16.3559  -43.2032 H         1 UNK         0.3000 
    160 H160        4.1646  -18.2182  -43.9160 H         1 UNK         0.0600 
    161 H161        3.3073  -15.3337  -44.4993 H         1 UNK         0.0600 
    162 H162        4.0156  -16.4479  -45.6586 H         1 UNK         0.0600 
    163 H163        4.9662  -15.8922  -44.2888 H         1 UNK         0.0600 
    164 H164        3.4944  -16.0582  -42.1271 H         1 UNK         0.3000 
    165 H165        2.7741  -18.1160  -39.2910 H         1 UNK         0.0600 
    166 H166        4.5708  -16.6869  -38.3636 H         1 UNK         0.0600 
    167 H167        5.2604  -17.8953  -39.4353 H         1 UNK         0.0600 
    168 H168        5.0936  -16.2322  -39.9853 H         1 UNK         0.0600 
    169 H169        2.8210  -15.2804  -39.6589 H         1 UNK         0.3000 
    170 H170       -0.5820  -14.8809  -40.6160 H         1 UNK         0.0600 
    171 H171       -0.6812  -15.2479  -38.1443 H         1 UNK         0.0600 
    172 H172        0.7953  -14.3130  -37.9383 H         1 UNK         0.0600 
    173 H173       -0.6693  -13.5382  -38.5441 H         1 UNK         0.0600 
    174 H174        1.2823  -12.9074  -39.9682 H         1 UNK         0.3000 
    175 H175        2.2079  -11.6061  -41.4568 H         1 UNK         0.0600 
    176 H176        3.8757  -13.3133  -43.3848 H         1 UNK         0.0600 
    177 H177        4.2748  -11.6964  -42.8140 H         1 UNK         0.0600 
    178 H178        4.2438  -13.0424  -41.6857 H         1 UNK         0.0600 
    179 H179        1.9423  -12.1713  -44.3464 H         1 UNK         0.3000 
    180 H180       -1.1277  -10.4458  -44.6648 H         1 UNK         0.0600 
    181 H181        1.6469   -9.5632  -45.6276 H         1 UNK         0.0600 
    182 H182        0.5023   -8.5596  -44.7456 H         1 UNK         0.0600 
    183 H183        0.1051   -9.1205  -46.3616 H         1 UNK         0.0600 
    184 H184        0.7193  -11.6615  -46.5196 H         1 UNK         0.3000 
    185 H185       -0.3400  -13.4959  -47.7328 H         1 UNK         0.0600 
    186 H186        1.2216  -15.4367  -47.1671 H         1 UNK         0.0600 
    187 H187        1.8251  -13.8982  -46.5747 H         1 UNK         0.0600 
    188 H188        1.0623  -15.0232  -45.4619 H         1 UNK         0.0600 
    189 H189       -1.8996  -15.0500  -45.8459 H         1 UNK         0.3000 
    190 H190       -1.1030  -21.4983  -45.1578 H         1 UNK         0.3000 
    191 H191       -3.2970  -22.8421  -46.3648 H         1 UNK         0.0600 
    192 H192       -2.8181  -22.0789  -43.4434 H         1 UNK         0.0600 
    193 H193       -4.3610  -22.5796  -44.1251 H         1 UNK         0.0600 
    194 H194       -3.6095  -21.0882  -44.6687 H         1 UNK         0.0600 
    195 H195       -0.8759  -23.9376  -43.9400 H         1 UNK         0.3000 
    196 H196       -1.9565  -26.5759  -43.6231 H         1 UNK         0.0600 
    197 H197        0.2540  -27.0466  -42.5642 H         1 UNK         0.0600 
    198 H198       -0.4434  -25.5532  -41.9546 H         1 UNK         0.0600 
    199 H199        0.8688  -25.4975  -43.1282 H         1 UNK         0.0600 
    200 H200        0.5410  -25.2056  -45.7970 H         1 UNK         0.3000 
    201 H201        1.3748  -27.6649  -46.9265 H         1 UNK         0.0600 
    202 H202        2.7392  -25.5836  -46.9705 H         1 UNK         0.0600 
    203 H203        1.5866  -24.8397  -48.0814 H         1 UNK         0.0600 
    204 H204        2.5258  -26.2348  -48.5872 H         1 UNK         0.0600 
    205 H205       -1.1216  -25.3192  -48.0574 H         1 UNK         0.3000 
    206 H206       -2.1700  -27.3593  -49.9246 H         1 UNK         0.0600 
    207 H207       -0.4309  -26.2463  -51.2854 H         1 UNK         0.0600 
    208 H208       -2.0204  -25.7803  -51.8669 H         1 UNK         0.0600 
    209 H209       -1.0839  -24.6590  -50.8873 H         1 UNK         0.0600 
    210 H210       -2.5199  -24.0050  -48.6925 H         1 UNK         0.3000 
    211 H211       -4.2339  -22.5912  -48.5575 H         1 UNK         0.0600 
    212 H212       -6.0363  -25.0458  -48.2047 H         1 UNK         0.0600 
    213 H213       -6.4587  -23.3859  -47.8152 H         1 UNK         0.0600 
    214 H214       -5.1982  -24.1955  -46.9132 H         1 UNK         0.0600 
    215 H215       -3.3580  -22.8065  -51.0103 H         1 UNK         0.3000 
    216 H216       -5.2317  -23.5488  -53.0389 H         1 UNK         0.0600 
    217 H217       -3.5012  -22.5434  -54.5249 H         1 UNK         0.0600 
    218 H218       -2.7456  -23.5676  -53.3207 H         1 UNK         0.0600 
    219 H219       -2.7009  -21.8161  -53.1336 H         1 UNK         0.0600 
    220 H220       -5.7224  -21.9209  -54.8620 H         1 UNK         0.3000 
    221 H221       -7.4509  -19.8262  -53.9054 H         1 UNK         0.0600 
    222 H222       -6.4691  -20.5258  -56.7286 H         1 UNK         0.0600 
    223 H223       -7.9479  -21.1135  -55.9687 H         1 UNK         0.0600 
    224 H224       -7.7738  -19.4080  -56.3508 H         1 UNK         0.0600 
    225 H225       -6.8425  -17.8267  -53.3217 H         1 UNK         0.3000 
    226 H226       -4.2360  -16.8760  -53.2663 H         1 UNK         0.0600 
    227 H227       -6.0165  -16.1552  -51.7178 H         1 UNK         0.0600 
    228 H228       -5.2926  -14.7532  -52.4866 H         1 UNK         0.0600 
    229 H229       -6.8643  -15.3306  -53.0277 H         1 UNK         0.0600 
    230 H230       -6.4434  -16.6129  -55.9187 H         1 UNK         0.3000 
    231 H231       -5.2784  -14.3168  -57.2128 H         1 UNK         0.0600 
    232 H232       -7.6298  -15.0271  -57.5891 H         1 UNK         0.0600 
    233 H233       -7.0820  -16.5560  -58.2792 H         1 UNK         0.0600 
    234 H234       -6.7401  -15.0392  -59.1024 H         1 UNK         0.0600 
    235 H235       -4.2345  -17.6566  -57.0171 H         1 UNK         0.3000 
    236 H236       -2.2519  -17.2008  -59.1856 H         1 UNK         0.0600 
    237 H237       -2.9181  -19.3510  -60.2907 H         1 UNK         0.0600 
    238 H238       -4.2905  -19.4894  -59.1964 H         1 UNK         0.0600 
    239 H239       -4.2084  -18.1628  -60.3543 H         1 UNK         0.0600 
    240 H240       -3.1750  -18.9841  -56.2692 H         1 UNK         0.3000 
    241 H241       -2.1098  -20.3080  -54.9016 H         1 UNK         0.0600 
    242 H242       -2.2919  -22.9349  -57.6785 H         1 UNK         0.3800 
    243 H243       -3.0424  -21.3620  -57.6272 H         1 UNK         0.3800 
    244 H244        0.5579  -19.5805  -56.2014 H         1 UNK         0.0800 
    245 H245        0.3652  -20.4124  -54.6989 H         1 UNK         0.0800 
    246 H246       -2.4394  -18.1768  -54.0573 H         1 UNK         0.0800 
    247 H247       -1.6583  -17.0259  -53.0181 H         1 UNK         0.0800 
@<TRIPOS>BOND
     1    1    2 1    
     2    1  127 1    
     3    1  128 1    
     4    1  129 1    
     5    2    3 2    
     6    2    4 am   BACKBONE|DICT|INTERRES
     7    4    5 1    
     8    4  130 1    
     9    5    6 1    
    10    5   65 1    
    11    5  131 1    
    12    6    7 1    
    13    6  132 1    
    14    6  133 1    
    15    7    8 1    
    16    8    9 1    
    17    8  134 1    
    18    8  135 1    
    19    9   10 ar   
    20    9   14 ar   
    21   10   11 ar   
    22   10  136 1    
    23   11   12 ar   
    24   11  126 1    
    25   12   13 ar   
    26   12  137 1    
    27   13   14 ar   
    28   13   15 1    
    29   14  138 1    
    30   15   16 1    
    31   15  139 1    
    32   15  140 1    
    33   16   17 1    
    34   17   18 1    
    35   17  141 1    
    36   17  142 1    
    37   18   19 1    
    38   18   67 1    
    39   18  143 1    
    40   19   20 am   BACKBONE|DICT|INTERRES
    41   19  144 1    
    42   20   21 2    
    43   20   22 1    
    44   22   23 1    
    45   22   24 1    
    46   22  145 1    
    47   23  146 1    
    48   23  147 1    
    49   23  148 1    
    50   24   25 am   BACKBONE|DICT|INTERRES
    51   24  149 1    
    52   25   26 2    
    53   25   27 1    
    54   27   28 1    
    55   27   29 1    
    56   27  150 1    
    57   28  151 1    
    58   28  152 1    
    59   28  153 1    
    60   29   30 am   BACKBONE|DICT|INTERRES
    61   29  154 1    
    62   30   31 2    
    63   30   32 1    
    64   32   33 1    
    65   32   34 1    
    66   32  155 1    
    67   33  156 1    
    68   33  157 1    
    69   33  158 1    
    70   34   35 am   BACKBONE|DICT|INTERRES
    71   34  159 1    
    72   35   36 2    
    73   35   37 1    
    74   37   38 1    
    75   37   39 1    
    76   37  160 1    
    77   38  161 1    
    78   38  162 1    
    79   38  163 1    
    80   39   40 am   BACKBONE|DICT|INTERRES
    81   39  164 1    
    82   40   41 2    
    83   40   42 1    
    84   42   43 1    
    85   42   44 1    
    86   42  165 1    
    87   43  166 1    
    88   43  167 1    
    89   43  168 1    
    90   44   45 am   BACKBONE|DICT|INTERRES
    91   44  169 1    
    92   45   46 2    
    93   45   47 1    
    94   47   48 1    
    95   47   49 1    
    96   47  170 1    
    97   48  171 1    
    98   48  172 1    
    99   48  173 1    
   100   49   50 am   BACKBONE|DICT|INTERRES
   101   49  174 1    
   102   50   51 2    
   103   50   52 1    
   104   52   53 1    
   105   52   54 1    
   106   52  175 1    
   107   53  176 1    
   108   53  177 1    
   109   53  178 1    
   110   54   55 am   BACKBONE|DICT|INTERRES
   111   54  179 1    
   112   55   56 2    
   113   55   57 1    
   114   57   58 1    
   115   57   59 1    
   116   57  180 1    
   117   58  181 1    
   118   58  182 1    
   119   58  183 1    
   120   59   60 am   BACKBONE|DICT|INTERRES
   121   59  184 1    
   122   60   61 2    
   123   60   62 1    
   124   62   63 1    
   125   62   64 1    
   126   62  185 1    
   127   63  186 1    
   128   63  187 1    
   129   63  188 1    
   130   64   65 am   BACKBONE|DICT|INTERRES
   131   64  189 1    
   132   65   66 2    
   133   67   68 2    
   134   67   69 am   BACKBONE|DICT|INTERRES
   135   69   70 1    
   136   69  190 1    
   137   70   71 1    
   138   70   72 1    
   139   70  191 1    
   140   71  192 1    
   141   71  193 1    
   142   71  194 1    
   143   72   73 2    
   144   72   74 am   BACKBONE|DICT|INTERRES
   145   74   75 1    
   146   74  195 1    
   147   75   76 1    
   148   75   77 1    
   149   75  196 1    
   150   76  197 1    
   151   76  198 1    
   152   76  199 1    
   153   77   78 2    
   154   77   79 am   BACKBONE|DICT|INTERRES
   155   79   80 1    
   156   79  200 1    
   157   80   81 1    
   158   80   82 1    
   159   80  201 1    
   160   81  202 1    
   161   81  203 1    
   162   81  204 1    
   163   82   83 2    
   164   82   84 am   BACKBONE|DICT|INTERRES
   165   84   85 1    
   166   84  205 1    
   167   85   86 1    
   168   85   87 1    
   169   85  206 1    
   170   86  207 1    
   171   86  208 1    
   172   86  209 1    
   173   87   88 2    
   174   87   89 am   BACKBONE|DICT|INTERRES
   175   89   90 1    
   176   89  210 1    
   177   90   91 1    
   178   90   92 1    
   179   90  211 1    
   180   91  212 1    
   181   91  213 1    
   182   91  214 1    
   183   92   93 2    
   184   92   94 am   BACKBONE|DICT|INTERRES
   185   94   95 1    
   186   94  215 1    
   187   95   96 1    
   188   95   97 1    
   189   95  216 1    
   190   96  217 1    
   191   96  218 1    
   192   96  219 1    
   193   97   98 2    
   194   97   99 am   BACKBONE|DICT|INTERRES
   195   99  100 1    
   196   99  220 1    
   197  100  101 1    
   198  100  102 1    
   199  100  221 1    
   200  101  222 1    
   201  101  223 1    
   202  101  224 1    
   203  102  103 2    
   204  102  104 am   BACKBONE|DICT|INTERRES
   205  104  105 1    
   206  104  225 1    
   207  105  106 1    
   208  105  107 1    
   209  105  226 1    
   210  106  227 1    
   211  106  228 1    
   212  106  229 1    
   213  107  108 2    
   214  107  109 am   BACKBONE|DICT|INTERRES
   215  109  110 1    
   216  109  230 1    
   217  110  111 1    
   218  110  112 1    
   219  110  231 1    
   220  111  232 1    
   221  111  233 1    
   222  111  234 1    
   223  112  113 2    
   224  112  114 am   BACKBONE|DICT|INTERRES
   225  114  115 1    
   226  114  235 1    
   227  115  116 1    
   228  115  117 1    
   229  115  236 1    
   230  116  237 1    
   231  116  238 1    
   232  116  239 1    
   233  117  118 2    
   234  117  119 am   BACKBONE|DICT|INTERRES
   235  119  120 1    
   236  119  240 1    
   237  120  121 1    
   238  120  124 1    
   239  120  241 1    
   240  121  122 am   BACKBONE|DICT|INTERRES
   241  121  123 2    
   242  122  242 1    
   243  122  243 1    
   244  124  125 1    
   245  124  244 1    
   246  124  245 1    
   247  125  126 1    
   248  126  246 1    
   249  126  247 1    
@<TRIPOS>SUBSTRUCTURE
     1 UNK         1 GROUP             0       ****    0 ROOT    
