@<TRIPOS>MOLECULE
3R540
247   249    1
SMALL
USER_CHARGES


@<TRIPOS>ATOM
      1 CA         -4.8389  -14.9569  -44.2695 C.3       0 UNK        -0.1800 
      2 C          -4.1486  -13.6061  -44.3983 C.2       0 UNK         0.5000 
      3 O          -4.6070  -12.6249  -43.8128 O.2       0 UNK        -0.5000 
      4 N          -3.0608  -13.5529  -45.1759 N.am      1 UNK        -0.5000 
      5 CA         -2.2469  -12.3609  -45.4307 C.3       1 UNK         0.1400 
      6 C6         -1.1785  -12.5947  -46.5313 C.3       23 UNK        -0.0398 
      7 S7         -1.8274  -13.3748  -48.0487 S.3       23 UNK        -0.2404 
      8 C8         -0.9337  -14.9577  -47.9857 C.3       23 UNK        -0.0205 
      9 C9         -1.4056  -15.9194  -49.0615 C.ar      23 UNK        -0.0193 
     10 C10        -0.7883  -15.9269  -50.3153 C.ar      23 UNK        -0.1150 
     11 C11        -1.2043  -16.8223  -51.3046 C.ar      23 UNK        -0.0193 
     12 C12        -2.2466  -17.7116  -51.0293 C.ar      23 UNK        -0.1150 
     13 C13        -2.8752  -17.7124  -49.7816 C.ar      23 UNK        -0.0193 
     14 C14        -2.4481  -16.8138  -48.7992 C.ar      23 UNK        -0.1150 
     15 C15        -4.0208  -18.6763  -49.5019 C.3       23 UNK        -0.0205 
     16 S16        -3.4688  -20.4094  -49.4237 S.3       23 UNK        -0.2404 
     17 C17        -2.2973  -20.3426  -48.0301 C.3       23 UNK        -0.0398 
     18 CA         -1.8532  -21.7422  -47.5421 C.3       11 UNK         0.1400 
     19 N          -0.5666  -21.6863  -46.8458 N.am      11 UNK        -0.5000 
     20 C           0.1524  -22.7517  -46.4678 C.2       10 UNK         0.5000 
     21 O          -0.1757  -23.9149  -46.6989 O.2       10 UNK        -0.5000 
     22 CA          1.4265  -22.4712  -45.6498 C.3       10 UNK         0.1400 
     23 CB          2.5844  -22.0456  -46.5645 C.3       10 UNK        -0.1800 
     24 N           1.2156  -21.4599  -44.6119 N.am      10 UNK        -0.5000 
     25 C           0.3789  -21.6101  -43.5746 C.2       9 UNK         0.5000 
     26 O          -0.2653  -22.6363  -43.3606 O.2       9 UNK        -0.5000 
     27 CA          0.1899  -20.3987  -42.6453 C.3       9 UNK         0.1400 
     28 CB          1.3488  -20.2923  -41.6431 C.3       9 UNK        -0.1800 
     29 N           0.0516  -19.1400  -43.3768 N.am      9 UNK        -0.5000 
     30 C          -0.9396  -18.8582  -44.2347 C.2       8 UNK         0.5000 
     31 O          -1.8724  -19.6211  -44.4829 O.2       8 UNK        -0.5000 
     32 CA         -0.8403  -17.5200  -44.9870 C.3       8 UNK         0.1400 
     33 CB         -1.2382  -16.3499  -44.0756 C.3       8 UNK        -0.1800 
     34 N           0.4969  -17.2888  -45.5341 N.am      8 UNK        -0.5000 
     35 C           1.1001  -18.0834  -46.4307 C.2       7 UNK         0.5000 
     36 O           0.5700  -19.0696  -46.9379 O.2       7 UNK        -0.5000 
     37 CA          2.5628  -17.7596  -46.7706 C.3       7 UNK         0.1400 
     38 CB          2.6506  -16.6828  -47.8617 C.3       7 UNK        -0.1800 
     39 N           3.3090  -17.3381  -45.5851 N.am      7 UNK        -0.5000 
     40 C           3.6477  -18.1597  -44.5807 C.2       6 UNK         0.5000 
     41 O           3.4122  -19.3684  -44.5776 O.2       6 UNK        -0.5000 
     42 CA          4.3215  -17.5116  -43.3568 C.3       6 UNK         0.1400 
     43 CB          5.8242  -17.3132  -43.6047 C.3       6 UNK        -0.1800 
     44 N           3.7133  -16.2289  -42.9970 N.am      6 UNK        -0.5000 
     45 C           2.4666  -16.0928  -42.5230 C.2       5 UNK         0.5000 
     46 O           1.7230  -17.0443  -42.2888 O.2       5 UNK        -0.5000 
     47 CA          1.9456  -14.6570  -42.3152 C.3       5 UNK         0.1400 
     48 CB          2.2323  -14.1790  -40.8845 C.3       5 UNK        -0.1800 
     49 N           2.4851  -13.6816  -43.2665 N.am      5 UNK        -0.5000 
     50 C           2.3354  -13.7412  -44.5961 C.2       4 UNK         0.5000 
     51 O           1.7560  -14.6590  -45.1797 O.2       4 UNK        -0.5000 
     52 CA          2.9166  -12.5597  -45.3828 C.3       4 UNK         0.1400 
     53 CB          2.7924  -12.7172  -46.9106 C.3       4 UNK        -0.1800 
     54 N           2.2522  -11.3329  -44.9518 N.am      4 UNK        -0.5000 
     55 C           2.8321  -10.1281  -44.8836 C.2       3 UNK         0.5000 
     56 O           4.0206   -9.9333  -45.1421 O.2       3 UNK        -0.5000 
     57 CA          1.9478   -8.9291  -44.4837 C.3       3 UNK         0.1400 
     58 CB          1.7982   -7.9574  -45.6659 C.3       3 UNK        -0.1800 
     59 N           0.6087   -9.3145  -44.0337 N.am      3 UNK        -0.5000 
     60 C           0.2893   -9.6794  -42.7847 C.2       2 UNK         0.5000 
     61 O           1.1014   -9.7513  -41.8623 O.2       2 UNK        -0.5000 
     62 CA         -1.1891  -10.0383  -42.5355 C.3       2 UNK         0.1400 
     63 CB         -1.9840   -8.7915  -42.1188 C.3       2 UNK        -0.1800 
     64 N          -1.8274  -10.6494  -43.7063 N.am      2 UNK        -0.5000 
     65 C          -1.5526  -11.8868  -44.1375 C.2       1 UNK         0.5000 
     66 O          -0.7536  -12.6375  -43.5758 O.2       1 UNK        -0.5000 
     67 C          -2.9374  -22.4349  -46.6909 C.2       11 UNK         0.5000 
     68 O          -3.6572  -23.2905  -47.2071 O.2       11 UNK        -0.5000 
     69 N          -2.9990  -22.0974  -45.3946 N.am      12 UNK        -0.5000 
     70 CA         -3.8897  -22.7178  -44.4142 C.3       12 UNK         0.1400 
     71 CB         -3.8284  -21.9409  -43.0908 C.3       12 UNK        -0.1800 
     72 C          -3.5840  -24.2100  -44.1920 C.2       12 UNK         0.5000 
     73 O          -4.5139  -25.0159  -44.1711 O.2       12 UNK        -0.5000 
     74 N          -2.2944  -24.5610  -44.0795 N.am      13 UNK        -0.5000 
     75 CA         -1.8123  -25.9398  -43.9504 C.3       13 UNK         0.1400 
     76 CB         -0.3073  -25.9333  -43.6434 C.3       13 UNK        -0.1800 
     77 C          -2.1117  -26.8022  -45.1918 C.2       13 UNK         0.5000 
     78 O          -2.4486  -27.9780  -45.0495 O.2       13 UNK        -0.5000 
     79 N          -2.0245  -26.1920  -46.3811 N.am      14 UNK        -0.5000 
     80 CA         -2.4049  -26.7888  -47.6629 C.3       14 UNK         0.1400 
     81 CB         -1.7525  -25.9779  -48.7951 C.3       14 UNK        -0.1800 
     82 C          -3.9311  -26.8662  -47.8784 C.2       14 UNK         0.5000 
     83 O          -4.3656  -27.5001  -48.8395 O.2       14 UNK        -0.5000 
     84 N          -4.7152  -26.1961  -47.0188 N.am      15 UNK        -0.5000 
     85 CA         -6.1668  -25.9970  -47.1052 C.3       15 UNK         0.1400 
     86 CB         -6.9170  -27.3269  -46.8860 C.3       15 UNK        -0.1800 
     87 C          -6.5803  -25.2711  -48.4041 C.2       15 UNK         0.5000 
     88 O          -7.6104  -25.5939  -48.9971 O.2       15 UNK        -0.5000 
     89 N          -5.7295  -24.3280  -48.8356 N.am      16 UNK        -0.5000 
     90 CA         -5.7809  -23.5200  -50.0581 C.3       16 UNK         0.1400 
     91 CB         -7.0494  -22.6454  -50.0857 C.3       16 UNK        -0.1800 
     92 C          -5.5888  -24.2961  -51.3795 C.2       16 UNK         0.5000 
     93 O          -5.4864  -23.6568  -52.4280 O.2       16 UNK        -0.5000 
     94 N          -5.5129  -25.6347  -51.3326 N.am      17 UNK        -0.5000 
     95 CA         -5.3211  -26.5061  -52.4913 C.3       17 UNK         0.1400 
     96 CB         -5.4924  -27.9729  -52.0690 C.3       17 UNK        -0.1800 
     97 C          -3.9426  -26.2667  -53.1265 C.2       17 UNK         0.5000 
     98 O          -2.9270  -26.3995  -52.4405 O.2       17 UNK        -0.5000 
     99 N          -3.9433  -25.8497  -54.3998 N.am      18 UNK        -0.5000 
    100 CA        -2.8110  -25.3959  -55.2214 C.3       18 UNK         0.1400 
    101 CB        -1.7502  -26.5001  -55.3904 C.3       18 UNK        -0.1800 
    102 C         -2.1704  -24.0739  -54.7473 C.2       18 UNK         0.5000 
    103 O         -1.8349  -23.2369  -55.5841 O.2       18 UNK        -0.5000 
    104 N         -2.0400  -23.8879  -53.4278 N.am      19 UNK        -0.5000 
    105 CA        -1.4590  -22.7201  -52.7638 C.3       19 UNK         0.1400 
    106 CB        -1.4487  -22.9640  -51.2477 C.3       19 UNK        -0.1800 
    107 C         -2.1570  -21.3870  -53.0947 C.2       19 UNK         0.5000 
    108 O         -1.4883  -20.3548  -53.1198 O.2       19 UNK        -0.5000 
    109 N         -3.4679  -21.4337  -53.3787 N.am      20 UNK        -0.5000 
    110 CA        -4.2745  -20.2865  -53.8029 C.3       20 UNK         0.1400 
    111 CB        -5.7550  -20.6915  -53.8216 C.3       20 UNK        -0.1800 
    112 C         -3.8664  -19.6898  -55.1662 C.2       20 UNK         0.5000 
    113 O         -4.1716  -18.5245  -55.4239 O.2       20 UNK        -0.5000 
    114 N         -3.1841  -20.4723  -56.0151 N.am      21 UNK        -0.5000 
    115 CA        -2.6152  -20.0188  -57.2829 C.3       21 UNK         0.1400 
    116 CB        -2.5545  -21.2023  -58.2653 C.3       21 UNK        -0.1800 
    117 C         -1.2373  -19.3801  -57.0261 C.2       21 UNK         0.5000 
    118 O         -0.2057  -19.9973  -57.2987 O.2       21 UNK        -0.5000 
    119 N         -1.2572  -18.1712  -56.4521 N.am      22 UNK        -0.5000 
    120 CA        -0.0804  -17.3777  -56.0658 C.3       22 UNK         0.1400 
    121 C          0.8827  -17.0741  -57.2491 C.2       22 UNK         0.5000 
    122 N          2.1889  -17.1235  -57.0247 N.am      22 UNK        -0.7600 
    123 O          0.4551  -16.7465  -58.3542 O.2       22 UNK        -0.5000 
    124 C124       -0.4830  -16.0507  -55.3703 C.3       23 UNK        -0.0398 
    125 S125       -1.6413  -16.2486  -53.9738 S.3       23 UNK        -0.2404 
    126 C126       -0.5238  -16.8381  -52.6650 C.3       23 UNK        -0.0205 
    127 H127       -4.4246  -15.6919  -44.9602 H         1 UNK         0.0600 
    128 H128       -5.9031  -14.8570  -44.4831 H         1 UNK         0.0600 
    129 H129       -4.7282  -15.3393  -43.2548 H         1 UNK         0.0600 
    130 H130       -2.7484  -14.3900  -45.6423 H         1 UNK         0.3000 
    131 H131       -2.9217  -11.5759  -45.7786 H         1 UNK         0.0600 
    132 H132       -0.7210  -11.6456  -46.8158 H         1 UNK         0.0800 
    133 H133       -0.3649  -13.2121  -46.1473 H         1 UNK         0.0800 
    134 H134       -1.0662  -15.4112  -47.0048 H         1 UNK         0.0800 
    135 H135        0.1348  -14.7691  -48.0944 H         1 UNK         0.0800 
    136 H136        0.0173  -15.2353  -50.5181 H         1 UNK         0.1150 
    137 H137       -2.5688  -18.4050  -51.7912 H         1 UNK         0.1150 
    138 H138       -2.9287  -16.8072  -47.8313 H         1 UNK         0.1150 
    139 H139       -4.5271  -18.4195  -48.5702 H         1 UNK         0.0800 
    140 H140       -4.7671  -18.5815  -50.2918 H         1 UNK         0.0800 
    141 H141       -2.7147  -19.7489  -47.2148 H         1 UNK         0.0800 
    142 H142       -1.4312  -19.7891  -48.3937 H         1 UNK         0.0800 
    143 H143       -1.6910  -22.3706  -48.4190 H         1 UNK         0.0600 
    144 H144       -0.1971  -20.7574  -46.6569 H         1 UNK         0.3000 
    145 H145        1.7129  -23.4009  -45.1540 H         1 UNK         0.0600 
    146 H146        3.5046  -21.9075  -45.9965 H         1 UNK         0.0600 
    147 H147        2.7803  -22.8041  -47.3234 H         1 UNK         0.0600 
    148 H148        2.3686  -21.1114  -47.0826 H         1 UNK         0.0600 
    149 H149        1.7436  -20.5980  -44.6973 H         1 UNK         0.3000 
    150 H150       -0.7316  -20.5555  -42.0812 H         1 UNK         0.0600 
    151 H151        1.4636  -21.2181  -41.0781 H         1 UNK         0.0600 
    152 H152        1.1742  -19.4919  -40.9240 H         1 UNK         0.0600 
    153 H153        2.2970  -20.0911  -42.1423 H         1 UNK         0.0600 
    154 H154        0.7546  -18.4297  -43.1913 H         1 UNK         0.3000 
    155 H155       -1.5367  -17.5551  -45.8268 H         1 UNK         0.0600 
    156 H156       -2.2946  -16.4062  -43.8143 H         1 UNK         0.0600 
    157 H157       -1.0622  -15.3883  -44.5557 H         1 UNK         0.0600 
    158 H158       -0.6792  -16.3545  -43.1412 H         1 UNK         0.0600 
    159 H159        0.9969  -16.4689  -45.2036 H         1 UNK         0.3000 
    160 H160        3.0243  -18.6696  -47.1596 H         1 UNK         0.0600 
    161 H161        2.2179  -15.7394  -47.5339 H         1 UNK         0.0600 
    162 H162        2.1133  -16.9934  -48.7589 H         1 UNK         0.0600 
    163 H163        3.6851  -16.4955  -48.1492 H         1 UNK         0.0600 
    164 H164        3.4744  -16.3476  -45.4827 H         1 UNK         0.3000 
    165 H165        4.2026  -18.1935  -42.5120 H         1 UNK         0.0600 
    166 H166        6.3224  -16.9264  -42.7156 H         1 UNK         0.0600 
    167 H167        6.3049  -18.2586  -43.8599 H         1 UNK         0.0600 
    168 H168        6.0111  -16.6181  -44.4242 H         1 UNK         0.0600 
    169 H169        4.2624  -15.3973  -43.1559 H         1 UNK         0.3000 
    170 H170        0.8632  -14.6785  -42.4526 H         1 UNK         0.0600 
    171 H171        1.8185  -14.8723  -40.1509 H         1 UNK         0.0600 
    172 H172        3.3031  -14.0980  -40.6936 H         1 UNK         0.0600 
    173 H173        1.7817  -13.2038  -40.6982 H         1 UNK         0.0600 
    174 H174        2.9541  -12.8801  -42.8700 H         1 UNK         0.3000 
    175 H175        3.9784  -12.5138  -45.1317 H         1 UNK         0.0600 
    176 H176        1.7536  -12.7966  -47.2299 H         1 UNK         0.0600 
    177 H177        3.2362  -11.8685  -47.4311 H         1 UNK         0.0600 
    178 H178        3.3136  -13.6113  -47.2529 H         1 UNK         0.0600 
    179 H179        1.2916  -11.4293  -44.6534 H         1 UNK         0.3000 
    180 H180        2.4596   -8.4028  -43.6751 H         1 UNK         0.0600 
    181 H181        1.3024   -8.4295  -46.5151 H         1 UNK         0.0600 
    182 H182        2.7711   -7.6036  -46.0096 H         1 UNK         0.0600 
    183 H183        1.2179   -7.0788  -45.3834 H         1 UNK         0.0600 
    184 H184       -0.1265   -9.2763  -44.7241 H         1 UNK         0.3000 
    185 H185       -1.2225  -10.7537  -41.7106 H         1 UNK         0.0600 
    186 H186       -1.5455   -8.3268  -41.2346 H         1 UNK         0.0600 
    187 H187       -2.0020   -8.0405  -42.9095 H         1 UNK         0.0600 
    188 H188       -3.0152   -9.0458  -41.8728 H         1 UNK         0.0600 
    189 H189       -2.5155  -10.0925  -44.1929 H         1 UNK         0.3000 
    190 H190       -2.4023  -21.3480  -45.0526 H         1 UNK         0.3000 
    191 H191       -4.9081  -22.6436  -44.8013 H         1 UNK         0.0600 
    192 H192       -4.1224  -20.9006  -43.2314 H         1 UNK         0.0600 
    193 H193       -4.5042  -22.3734  -42.3521 H         1 UNK         0.0600 
    194 H194       -2.8257  -21.9490  -42.6636 H         1 UNK         0.0600 
    195 H195       -1.5876  -23.8303  -44.0539 H         1 UNK         0.3000 
    196 H196       -2.3288  -26.3934  -43.1021 H         1 UNK         0.0600 
    197 H197        0.0724  -26.9488  -43.5246 H         1 UNK         0.0600 
    198 H198       -0.0965  -25.3971  -42.7180 H         1 UNK         0.0600 
    199 H199        0.2643  -25.4595  -44.4417 H         1 UNK         0.0600 
    200 H200       -1.6665  -25.2423  -46.4145 H         1 UNK         0.3000 
    201 H201       -2.0157  -27.8080  -47.7030 H         1 UNK         0.0600 
    202 H202       -0.6676  -25.9563  -48.6918 H         1 UNK         0.0600 
    203 H203       -2.1076  -24.9471  -48.8066 H         1 UNK         0.0600 
    204 H204       -1.9769  -26.4116  -49.7705 H         1 UNK         0.0600 
    205 H205       -4.2614  -25.7004  -46.2618 H         1 UNK         0.3000 
    206 H206       -6.4323  -25.3280  -46.2856 H         1 UNK         0.0600 
    207 H207       -6.6005  -27.8084  -45.9608 H         1 UNK         0.0600 
    208 H208       -7.9924  -27.1608  -46.8133 H         1 UNK         0.0600 
    209 H209       -6.7497  -28.0282  -47.7040 H         1 UNK         0.0600 
    210 H210       -4.9239  -24.1304  -48.2433 H         1 UNK         0.3000 
    211 H211       -4.9246  -22.8502  -49.9918 H         1 UNK         0.0600 
    212 H212       -7.0199  -21.9374  -50.9132 H         1 UNK         0.0600 
    213 H213       -7.1456  -22.0636  -49.1689 H         1 UNK         0.0600 
    214 H214       -7.9537  -23.2426  -50.2035 H         1 UNK         0.0600 
    215 H215       -5.5482  -26.0896  -50.4304 H         1 UNK         0.3000 
    216 H216       -6.1008  -26.2699  -53.2184 H         1 UNK         0.0600 
    217 H217       -5.4292  -28.6352  -52.9330 H         1 UNK         0.0600 
    218 H218       -6.4621  -28.1393  -51.5994 H         1 UNK         0.0600 
    219 H219       -4.7208  -28.2828  -51.3637 H         1 UNK         0.0600 
    220 H220       -4.8446  -25.7357  -54.8428 H         1 UNK         0.3000 
    221 H221       -3.2302  -25.1968  -56.2091 H         1 UNK         0.0600 
    222 H222       -1.2476  -26.7341  -54.4517 H         1 UNK         0.0600 
    223 H223       -2.1949  -27.4192  -55.7718 H         1 UNK         0.0600 
    224 H224       -0.9814  -26.1919  -56.1000 H         1 UNK         0.0600 
    225 H225       -2.3273  -24.6583  -52.8306 H         1 UNK         0.3000 
    226 H226       -0.4247  -22.6362  -53.1030 H         1 UNK         0.0600 
    227 H227       -0.8695  -23.8516  -50.9926 H         1 UNK         0.0600 
    228 H228       -0.9983  -22.1202  -50.7233 H         1 UNK         0.0600 
    229 H229       -2.4577  -23.0976  -50.8557 H         1 UNK         0.0600 
    230 H230       -3.9520  -22.3204  -53.3009 H         1 UNK         0.3000 
    231 H231       -4.1525  -19.4991  -53.0577 H         1 UNK         0.0600 
    232 H232       -5.9341  -21.5311  -54.4943 H         1 UNK         0.0600 
    233 H233       -6.3865  -19.8646  -54.1491 H         1 UNK         0.0600 
    234 H234       -6.0928  -20.9789  -52.8273 H         1 UNK         0.0600 
    235 H235       -2.9077  -21.3996  -55.7127 H         1 UNK         0.3000 
    236 H236       -3.2619  -19.2595  -57.7280 H         1 UNK         0.0600 
    237 H237       -3.5445  -21.6266  -58.4325 H         1 UNK         0.0600 
    238 H238       -2.1698  -20.8813  -59.2340 H         1 UNK         0.0600 
    239 H239       -1.9053  -22.0005  -57.9054 H         1 UNK         0.0600 
    240 H240       -2.1555  -17.7740  -56.2081 H         1 UNK         0.3000 
    241 H241        0.4666  -17.9831  -55.3408 H         1 UNK         0.0600 
    242 H242        2.8230  -16.9125  -57.7800 H         1 UNK         0.3800 
    243 H243        2.5641  -17.3829  -56.1252 H         1 UNK         0.3800 
    244 H244        0.4026  -15.5224  -55.0127 H         1 UNK         0.0800 
    245 H245       -0.9584  -15.3817  -56.0900 H         1 UNK         0.0800 
    246 H246       -0.2025  -17.8550  -52.8948 H         1 UNK         0.0800 
    247 H247        0.3761  -16.2215  -52.6479 H         1 UNK         0.0800 
@<TRIPOS>BOND
     1    1    2 1    
     2    1  127 1    
     3    1  128 1    
     4    1  129 1    
     5    2    3 2    
     6    2    4 am   BACKBONE|DICT|INTERRES
     7    4    5 1    
     8    4  130 1    
     9    5    6 1    
    10    5   65 1    
    11    5  131 1    
    12    6    7 1    
    13    6  132 1    
    14    6  133 1    
    15    7    8 1    
    16    8    9 1    
    17    8  134 1    
    18    8  135 1    
    19    9   10 ar   
    20    9   14 ar   
    21   10   11 ar   
    22   10  136 1    
    23   11   12 ar   
    24   11  126 1    
    25   12   13 ar   
    26   12  137 1    
    27   13   14 ar   
    28   13   15 1    
    29   14  138 1    
    30   15   16 1    
    31   15  139 1    
    32   15  140 1    
    33   16   17 1    
    34   17   18 1    
    35   17  141 1    
    36   17  142 1    
    37   18   19 1    
    38   18   67 1    
    39   18  143 1    
    40   19   20 am   BACKBONE|DICT|INTERRES
    41   19  144 1    
    42   20   21 2    
    43   20   22 1    
    44   22   23 1    
    45   22   24 1    
    46   22  145 1    
    47   23  146 1    
    48   23  147 1    
    49   23  148 1    
    50   24   25 am   BACKBONE|DICT|INTERRES
    51   24  149 1    
    52   25   26 2    
    53   25   27 1    
    54   27   28 1    
    55   27   29 1    
    56   27  150 1    
    57   28  151 1    
    58   28  152 1    
    59   28  153 1    
    60   29   30 am   BACKBONE|DICT|INTERRES
    61   29  154 1    
    62   30   31 2    
    63   30   32 1    
    64   32   33 1    
    65   32   34 1    
    66   32  155 1    
    67   33  156 1    
    68   33  157 1    
    69   33  158 1    
    70   34   35 am   BACKBONE|DICT|INTERRES
    71   34  159 1    
    72   35   36 2    
    73   35   37 1    
    74   37   38 1    
    75   37   39 1    
    76   37  160 1    
    77   38  161 1    
    78   38  162 1    
    79   38  163 1    
    80   39   40 am   BACKBONE|DICT|INTERRES
    81   39  164 1    
    82   40   41 2    
    83   40   42 1    
    84   42   43 1    
    85   42   44 1    
    86   42  165 1    
    87   43  166 1    
    88   43  167 1    
    89   43  168 1    
    90   44   45 am   BACKBONE|DICT|INTERRES
    91   44  169 1    
    92   45   46 2    
    93   45   47 1    
    94   47   48 1    
    95   47   49 1    
    96   47  170 1    
    97   48  171 1    
    98   48  172 1    
    99   48  173 1    
   100   49   50 am   BACKBONE|DICT|INTERRES
   101   49  174 1    
   102   50   51 2    
   103   50   52 1    
   104   52   53 1    
   105   52   54 1    
   106   52  175 1    
   107   53  176 1    
   108   53  177 1    
   109   53  178 1    
   110   54   55 am   BACKBONE|DICT|INTERRES
   111   54  179 1    
   112   55   56 2    
   113   55   57 1    
   114   57   58 1    
   115   57   59 1    
   116   57  180 1    
   117   58  181 1    
   118   58  182 1    
   119   58  183 1    
   120   59   60 am   BACKBONE|DICT|INTERRES
   121   59  184 1    
   122   60   61 2    
   123   60   62 1    
   124   62   63 1    
   125   62   64 1    
   126   62  185 1    
   127   63  186 1    
   128   63  187 1    
   129   63  188 1    
   130   64   65 am   BACKBONE|DICT|INTERRES
   131   64  189 1    
   132   65   66 2    
   133   67   68 2    
   134   67   69 am   BACKBONE|DICT|INTERRES
   135   69   70 1    
   136   69  190 1    
   137   70   71 1    
   138   70   72 1    
   139   70  191 1    
   140   71  192 1    
   141   71  193 1    
   142   71  194 1    
   143   72   73 2    
   144   72   74 am   BACKBONE|DICT|INTERRES
   145   74   75 1    
   146   74  195 1    
   147   75   76 1    
   148   75   77 1    
   149   75  196 1    
   150   76  197 1    
   151   76  198 1    
   152   76  199 1    
   153   77   78 2    
   154   77   79 am   BACKBONE|DICT|INTERRES
   155   79   80 1    
   156   79  200 1    
   157   80   81 1    
   158   80   82 1    
   159   80  201 1    
   160   81  202 1    
   161   81  203 1    
   162   81  204 1    
   163   82   83 2    
   164   82   84 am   BACKBONE|DICT|INTERRES
   165   84   85 1    
   166   84  205 1    
   167   85   86 1    
   168   85   87 1    
   169   85  206 1    
   170   86  207 1    
   171   86  208 1    
   172   86  209 1    
   173   87   88 2    
   174   87   89 am   BACKBONE|DICT|INTERRES
   175   89   90 1    
   176   89  210 1    
   177   90   91 1    
   178   90   92 1    
   179   90  211 1    
   180   91  212 1    
   181   91  213 1    
   182   91  214 1    
   183   92   93 2    
   184   92   94 am   BACKBONE|DICT|INTERRES
   185   94   95 1    
   186   94  215 1    
   187   95   96 1    
   188   95   97 1    
   189   95  216 1    
   190   96  217 1    
   191   96  218 1    
   192   96  219 1    
   193   97   98 2    
   194   97   99 am   BACKBONE|DICT|INTERRES
   195   99  100 1    
   196   99  220 1    
   197  100  101 1    
   198  100  102 1    
   199  100  221 1    
   200  101  222 1    
   201  101  223 1    
   202  101  224 1    
   203  102  103 2    
   204  102  104 am   BACKBONE|DICT|INTERRES
   205  104  105 1    
   206  104  225 1    
   207  105  106 1    
   208  105  107 1    
   209  105  226 1    
   210  106  227 1    
   211  106  228 1    
   212  106  229 1    
   213  107  108 2    
   214  107  109 am   BACKBONE|DICT|INTERRES
   215  109  110 1    
   216  109  230 1    
   217  110  111 1    
   218  110  112 1    
   219  110  231 1    
   220  111  232 1    
   221  111  233 1    
   222  111  234 1    
   223  112  113 2    
   224  112  114 am   BACKBONE|DICT|INTERRES
   225  114  115 1    
   226  114  235 1    
   227  115  116 1    
   228  115  117 1    
   229  115  236 1    
   230  116  237 1    
   231  116  238 1    
   232  116  239 1    
   233  117  118 2    
   234  117  119 am   BACKBONE|DICT|INTERRES
   235  119  120 1    
   236  119  240 1    
   237  120  121 1    
   238  120  124 1    
   239  120  241 1    
   240  121  122 am   BACKBONE|DICT|INTERRES
   241  121  123 2    
   242  122  242 1    
   243  122  243 1    
   244  124  125 1    
   245  124  244 1    
   246  124  245 1    
   247  125  126 1    
   248  126  246 1    
   249  126  247 1    
@<TRIPOS>SUBSTRUCTURE
     1 UNK         1 GROUP             0       ****    0 ROOT    
