@<TRIPOS>MOLECULE
3R540
247   249    1
SMALL
USER_CHARGES


@<TRIPOS>ATOM
      1 CA         -1.8599  -12.8982  -46.1022 C.3       0 UNK        -0.1800 
      2 C          -1.0271  -12.1176  -47.1061 C.2       0 UNK         0.5000 
      3 O          -0.9655  -10.8898  -47.0244 O.2       0 UNK        -0.5000 
      4 N          -0.3844  -12.8175  -48.0503 N.am      1 UNK        -0.5000 
      5 CA          0.5071  -12.2354  -49.0577 C.3       1 UNK         0.1400 
      6 C6          0.8886  -13.2442  -50.1692 C.3       23 UNK        -0.0398 
      7 S7          1.6688  -14.7911  -49.5827 S.3       23 UNK        -0.2404 
      8 C8          1.2516  -15.9314  -50.9385 C.3       23 UNK        -0.0205 
      9 C9          0.2865  -17.0149  -50.4855 C.ar      23 UNK        -0.0193 
     10 C10        -1.0579  -16.7153  -50.2459 C.ar      23 UNK        -0.1150 
     11 C11        -1.9509  -17.7199  -49.8604 C.ar      23 UNK        -0.0193 
     12 C12        -1.4827  -19.0259  -49.6904 C.ar      23 UNK        -0.1150 
     13 C13        -0.1403  -19.3358  -49.9204 C.ar      23 UNK        -0.0193 
     14 C14         0.7378  -18.3269  -50.3229 C.ar      23 UNK        -0.1150 
     15 C15         0.3674  -20.7545  -49.7284 C.3       23 UNK        -0.0205 
     16 S16         1.3910  -20.8626  -48.2332 S.3       23 UNK        -0.2404 
     17 C17         1.7145  -22.6476  -48.1155 C.3       23 UNK        -0.0398 
     18 CA          0.8448  -23.4009  -47.0800 C.3       11 UNK         0.1400 
     19 N           0.8617  -22.8224  -45.7309 N.am      11 UNK        -0.5000 
     20 C           0.5341  -23.5276  -44.6374 C.2       10 UNK         0.5000 
     21 O           0.2176  -24.7177  -44.6692 O.2       10 UNK        -0.5000 
     22 CA          0.5097  -22.7839  -43.2911 C.3       10 UNK         0.1400 
     23 CB          1.9307  -22.5396  -42.7613 C.3       10 UNK        -0.1800 
     24 N          -0.2331  -21.5257  -43.3523 N.am      10 UNK        -0.5000 
     25 C          -1.5493  -21.4417  -43.5948 C.2       9 UNK         0.5000 
     26 O          -2.2693  -22.4187  -43.7941 O.2       9 UNK        -0.5000 
     27 CA         -2.1694  -20.0350  -43.6460 C.3       9 UNK         0.1400 
     28 CB         -2.5143  -19.5483  -42.2309 C.3       9 UNK        -0.1800 
     29 N          -1.3122  -19.0562  -44.3127 N.am      9 UNK        -0.5000 
     30 C          -0.9506  -19.1217  -45.6024 C.2       8 UNK         0.5000 
     31 O          -1.3413  -19.9970  -46.3730 O.2       8 UNK        -0.5000 
     32 CA          0.0562  -18.0657  -46.0939 C.3       8 UNK         0.1400 
     33 CB         -0.6398  -16.7245  -46.3670 C.3       8 UNK        -0.1800 
     34 N           1.1609  -17.8620  -45.1556 N.am      8 UNK        -0.5000 
     35 C           2.0170  -18.8137  -44.7528 C.2       7 UNK         0.5000 
     36 O           1.9902  -19.9822  -45.1378 O.2       7 UNK        -0.5000 
     37 CA          3.0452  -18.3995  -43.6892 C.3       7 UNK         0.1400 
     38 CB          4.1927  -17.5913  -44.3136 C.3       7 UNK        -0.1800 
     39 N           2.4207  -17.6307  -42.6138 N.am      7 UNK        -0.5000 
     40 C           1.5876  -18.1524  -41.7021 C.2       6 UNK         0.5000 
     41 O           1.2872  -19.3452  -41.6509 O.2       6 UNK        -0.5000 
     42 CA          0.9589  -17.1667  -40.7000 C.3       6 UNK         0.1400 
     43 CB          1.9184  -16.8927  -39.5322 C.3       6 UNK        -0.1800 
     44 N           0.5737  -15.8980  -41.3209 N.am      6 UNK        -0.5000 
     45 C          -0.3951  -15.7753  -42.2384 C.2       5 UNK         0.5000 
     46 O          -1.0746  -16.7156  -42.6452 O.2       5 UNK        -0.5000 
     47 CA         -0.6171  -14.3770  -42.8373 C.3       5 UNK         0.1400 
     48 CB         -1.5695  -13.5518  -41.9601 C.3       5 UNK        -0.1800 
     49 N           0.6154  -13.6190  -43.0604 N.am      5 UNK        -0.5000 
     50 C           1.6369  -14.0007  -43.8382 C.2       4 UNK         0.5000 
     51 O           1.6839  -15.0907  -44.4110 O.2       4 UNK        -0.5000 
     52 CA          2.7760  -12.9760  -44.0043 C.3       4 UNK         0.1400 
     53 CB          3.9354  -13.5062  -44.8661 C.3       4 UNK        -0.1800 
     54 N           2.2723  -11.7310  -44.5878 N.am      4 UNK        -0.5000 
     55 C           1.6981  -10.7335  -43.8981 C.2       3 UNK         0.5000 
     56 O           1.5261  -10.7860  -42.6787 O.2       3 UNK        -0.5000 
     57 CA          1.1838   -9.5008  -44.6758 C.3       3 UNK         0.1400 
     58 CB          1.4887   -8.1756  -43.9467 C.3       3 UNK        -0.1800 
     59 N           1.6065   -9.4503  -46.0793 N.am      3 UNK        -0.5000 
     60 C           2.8443   -9.2744  -46.5704 C.2       2 UNK         0.5000 
     61 O           3.8292   -9.0282  -45.8730 O.2       2 UNK        -0.5000 
     62 CA          3.0038   -9.4323  -48.1032 C.3       2 UNK         0.1400 
     63 CB          4.4209   -9.8921  -48.5059 C.3       2 UNK        -0.1800 
     64 N           1.9887  -10.3053  -48.7149 N.am      2 UNK        -0.5000 
     65 C           1.7358  -11.5823  -48.3889 C.2       1 UNK         0.5000 
     66 O           2.3760  -12.2086  -47.5428 O.2       1 UNK        -0.5000 
     67 C          -0.5861  -23.6788  -47.5838 C.2       11 UNK         0.5000 
     68 O          -0.7870  -24.6938  -48.2493 O.2       11 UNK        -0.5000 
     69 N          -1.5644  -22.8333  -47.2226 N.am      12 UNK        -0.5000 
     70 CA         -2.9825  -23.0636  -47.5141 C.3       12 UNK         0.1400 
     71 CB         -3.8094  -21.8167  -47.1717 C.3       12 UNK        -0.1800 
     72 C          -3.5528  -24.3049  -46.8044 C.2       12 UNK         0.5000 
     73 O          -4.3765  -25.0010  -47.3932 O.2       12 UNK        -0.5000 
     74 N          -3.1006  -24.5730  -45.5718 N.am      13 UNK        -0.5000 
     75 CA         -3.4556  -25.7696  -44.8084 C.3       13 UNK         0.1400 
     76 CB         -3.0996  -25.5592  -43.3288 C.3       13 UNK        -0.1800 
     77 C          -2.7846  -27.0454  -45.3513 C.2       13 UNK         0.5000 
     78 O          -3.3953  -28.1139  -45.3006 O.2       13 UNK        -0.5000 
     79 N          -1.5442  -26.9199  -45.8449 N.am      14 UNK        -0.5000 
     80 CA         -0.7835  -28.0122  -46.4542 C.3       14 UNK         0.1400 
     81 CB          0.6972  -27.6136  -46.5525 C.3       14 UNK        -0.1800 
     82 C          -1.3358  -28.4134  -47.8349 C.2       14 UNK         0.5000 
     83 O          -1.4653  -29.6055  -48.1186 O.2       14 UNK        -0.5000 
     84 N          -1.6516  -27.4105  -48.6626 N.am      15 UNK        -0.5000 
     85 CA         -2.2879  -27.5598  -49.9694 C.3       15 UNK         0.1400 
     86 CB         -1.9784  -26.2988  -50.7969 C.3       15 UNK        -0.1800 
     87 C          -3.8104  -27.7723  -49.8459 C.2       15 UNK         0.5000 
     88 O          -4.3689  -27.7433  -48.7476 O.2       15 UNK        -0.5000 
     89 N          -4.4802  -27.9324  -50.9936 N.am      16 UNK        -0.5000 
     90 CA         -5.9399  -27.9405  -51.1120 C.3       16 UNK         0.1400 
     91 CB         -6.3302  -28.7300  -52.3746 C.3       16 UNK        -0.1800 
     92 C          -6.4771  -26.4932  -51.1219 C.2       16 UNK         0.5000 
     93 O          -6.9553  -26.0197  -52.1529 O.2       16 UNK        -0.5000 
     94 N          -6.3072  -25.7945  -49.9890 N.am      17 UNK        -0.5000 
     95 CA         -6.6187  -24.3800  -49.7234 C.3       17 UNK         0.1400 
     96 CB         -8.1005  -24.0612  -50.0102 C.3       17 UNK        -0.1800 
     97 C          -5.6776  -23.3716  -50.4197 C.2       17 UNK         0.5000 
     98 O          -5.8080  -22.1711  -50.1775 O.2       17 UNK        -0.5000 
     99 N          -4.7522  -23.8630  -51.2579 N.am      18 UNK        -0.5000 
    100 CA        -3.8293  -23.1464  -52.1463 C.3       18 UNK         0.1400 
    101 CB        -2.8361  -22.2600  -51.3693 C.3       18 UNK        -0.1800 
    102 C         -4.5601  -22.3718  -53.2586 C.2       18 UNK         0.5000 
    103 O         -4.4293  -22.7338  -54.4283 O.2       18 UNK        -0.5000 
    104 N         -5.3316  -21.3500  -52.8650 N.am      19 UNK        -0.5000 
    105 CA        -6.2292  -20.4922  -53.6467 C.3       19 UNK         0.1400 
    106 CB        -7.3957  -21.3086  -54.2344 C.3       19 UNK        -0.1800 
    107 C         -5.5397  -19.6395  -54.7286 C.2       19 UNK         0.5000 
    108 O         -5.6367  -18.4137  -54.6845 O.2       19 UNK        -0.5000 
    109 N         -4.8535  -20.2900  -55.6754 N.am      20 UNK        -0.5000 
    110 CA        -4.1548  -19.6640  -56.7997 C.3       20 UNK         0.1400 
    111 CB        -3.7185  -20.7524  -57.7916 C.3       20 UNK        -0.1800 
    112 C         -2.9488  -18.8168  -56.3572 C.2       20 UNK         0.5000 
    113 O         -2.6792  -17.7769  -56.9596 O.2       20 UNK        -0.5000 
    114 N         -2.2721  -19.2564  -55.2867 N.am      21 UNK        -0.5000 
    115 CA        -1.1647  -18.5420  -54.6474 C.3       21 UNK         0.1400 
    116 CB        -0.4891  -19.4753  -53.6316 C.3       21 UNK        -0.1800 
    117 C         -1.6083  -17.2377  -53.9568 C.2       21 UNK         0.5000 
    118 O         -0.7981  -16.3216  -53.8161 O.2       21 UNK        -0.5000 
    119 N         -2.8828  -17.1780  -53.5513 N.am      22 UNK        -0.5000 
    120 CA        -3.4972  -16.0412  -52.8536 C.3       22 UNK         0.1400 
    121 C         -3.8719  -14.8445  -53.7772 C.2       22 UNK         0.5000 
    122 N         -3.7523  -14.9508  -55.0957 N.am      22 UNK        -0.7600 
    123 O         -4.2713  -13.7925  -53.2856 O.2       22 UNK        -0.5000 
    124 C124       -4.7074  -16.4699  -51.9792 C.3       23 UNK        -0.0398 
    125 S125       -4.4636  -17.9883  -50.9865 S.3       23 UNK        -0.2404 
    126 C126       -3.4187  -17.4071  -49.6118 C.3       23 UNK        -0.0205 
    127 H127       -2.9206  -12.7123  -46.2700 H         1 UNK         0.0600 
    128 H128       -1.6138  -12.5783  -45.0902 H         1 UNK         0.0600 
    129 H129       -1.6836  -13.9705  -46.1780 H         1 UNK         0.0600 
    130 H130       -0.4243  -13.8262  -48.0438 H         1 UNK         0.3000 
    131 H131       -0.0607  -11.4393  -49.5446 H         1 UNK         0.0600 
    132 H132       -0.0159  -13.5015  -50.7220 H         1 UNK         0.0800 
    133 H133        1.5537  -12.7761  -50.8968 H         1 UNK         0.0800 
    134 H134        0.8232  -15.3940  -51.7853 H         1 UNK         0.0800 
    135 H135        2.1757  -16.3772  -51.3090 H         1 UNK         0.0800 
    136 H136       -1.4037  -15.6989  -50.3623 H         1 UNK         0.1150 
    137 H137       -2.1662  -19.8012  -49.3761 H         1 UNK         0.1150 
    138 H138        1.7766  -18.5666  -50.5008 H         1 UNK         0.1150 
    139 H139       -0.4681  -21.4501  -49.6480 H         1 UNK         0.0800 
    140 H140        0.9503  -21.0586  -50.5988 H         1 UNK         0.0800 
    141 H141        1.6295  -23.1056  -49.1027 H         1 UNK         0.0800 
    142 H142        2.7631  -22.7582  -47.8370 H         1 UNK         0.0800 
    143 H143        1.3096  -24.3853  -46.9920 H         1 UNK         0.0600 
    144 H144        1.1063  -21.8397  -45.6482 H         1 UNK         0.3000 
    145 H145       -0.0019  -23.4287  -42.5733 H         1 UNK         0.0600 
    146 H146        1.9085  -22.0862  -41.7702 H         1 UNK         0.0600 
    147 H147        2.4803  -23.4778  -42.6766 H         1 UNK         0.0600 
    148 H148        2.5038  -21.8838  -43.4156 H         1 UNK         0.0600 
    149 H149        0.2929  -20.6761  -43.1886 H         1 UNK         0.3000 
    150 H150       -3.0987  -20.1033  -44.2148 H         1 UNK         0.0600 
    151 H151       -3.1486  -20.2686  -41.7125 H         1 UNK         0.0600 
    152 H152       -3.0558  -18.6028  -42.2611 H         1 UNK         0.0600 
    153 H153       -1.6183  -19.4026  -41.6264 H         1 UNK         0.0600 
    154 H154       -0.9911  -18.2756  -43.7466 H         1 UNK         0.3000 
    155 H155        0.4810  -18.4156  -47.0350 H         1 UNK         0.0600 
    156 H156       -1.0636  -16.3010  -45.4571 H         1 UNK         0.0600 
    157 H157       -1.4526  -16.8464  -47.0833 H         1 UNK         0.0600 
    158 H158        0.0576  -15.9982  -46.7851 H         1 UNK         0.0600 
    159 H159        1.2833  -16.9179  -44.7986 H         1 UNK         0.3000 
    160 H160        3.4691  -19.3088  -43.2573 H         1 UNK         0.0600 
    161 H161        3.8328  -16.6840  -44.7985 H         1 UNK         0.0600 
    162 H162        4.7119  -18.1798  -45.0709 H         1 UNK         0.0600 
    163 H163        4.9292  -17.3035  -43.5632 H         1 UNK         0.0600 
    164 H164        2.5622  -16.6316  -42.6278 H         1 UNK         0.3000 
    165 H165        0.0574  -17.6338  -40.2976 H         1 UNK         0.0600 
    166 H166        1.4505  -16.2600  -38.7778 H         1 UNK         0.0600 
    167 H167        2.2090  -17.8221  -39.0405 H         1 UNK         0.0600 
    168 H168        2.8315  -16.3986  -39.8664 H         1 UNK         0.0600 
    169 H169        1.0879  -15.0741  -41.0463 H         1 UNK         0.3000 
    170 H170       -1.0916  -14.5221  -43.8079 H         1 UNK         0.0600 
    171 H171       -2.5079  -14.0829  -41.7952 H         1 UNK         0.0600 
    172 H172       -1.1346  -13.3402  -40.9825 H         1 UNK         0.0600 
    173 H173       -1.8147  -12.5997  -42.4313 H         1 UNK         0.0600 
    174 H174        0.6708  -12.6990  -42.6378 H         1 UNK         0.3000 
    175 H175        3.1783  -12.7697  -43.0104 H         1 UNK         0.0600 
    176 H176        3.5962  -13.8289  -45.8510 H         1 UNK         0.0600 
    177 H177        4.7018  -12.7444  -45.0096 H         1 UNK         0.0600 
    178 H178        4.4139  -14.3610  -44.3881 H         1 UNK         0.0600 
    179 H179        2.3299  -11.6663  -45.5996 H         1 UNK         0.3000 
    180 H180        0.0987   -9.6089  -44.7047 H         1 UNK         0.0600 
    181 H181        2.5578   -8.0342  -43.7873 H         1 UNK         0.0600 
    182 H182        1.0103   -8.1502  -42.9671 H         1 UNK         0.0600 
    183 H183        1.1157   -7.3200  -44.5096 H         1 UNK         0.0600 
    184 H184        0.8727   -9.6840  -46.7384 H         1 UNK         0.3000 
    185 H185        2.8474   -8.4384  -48.5246 H         1 UNK         0.0600 
    186 H186        5.1738   -9.1718  -48.1840 H         1 UNK         0.0600 
    187 H187        4.6768  -10.8534  -48.0592 H         1 UNK         0.0600 
    188 H188        4.5111   -9.9905  -49.5876 H         1 UNK         0.0600 
    189 H189        1.3921   -9.8562  -49.3965 H         1 UNK         0.3000 
    190 H190       -1.3334  -21.9797  -46.7220 H         1 UNK         0.3000 
    191 H191       -3.0769  -23.2392  -48.5861 H         1 UNK         0.0600 
    192 H192       -3.7248  -21.5560  -46.1169 H         1 UNK         0.0600 
    193 H193       -4.8663  -21.9772  -47.3882 H         1 UNK         0.0600 
    194 H194       -3.4890  -20.9570  -47.7593 H         1 UNK         0.0600 
    195 H195       -2.4899  -23.9042  -45.1131 H         1 UNK         0.3000 
    196 H196       -4.5364  -25.9103  -44.8770 H         1 UNK         0.0600 
    197 H197       -3.3587  -26.4365  -42.7349 H         1 UNK         0.0600 
    198 H198       -3.6428  -24.7117  -42.9104 H         1 UNK         0.0600 
    199 H199       -2.0337  -25.3726  -43.1933 H         1 UNK         0.0600 
    200 H200       -1.0868  -26.0180  -45.7850 H         1 UNK         0.3000 
    201 H201       -0.8540  -28.8830  -45.7989 H         1 UNK         0.0600 
    202 H202        1.1044  -27.3616  -45.5731 H         1 UNK         0.0600 
    203 H203        0.8408  -26.7537  -47.2065 H         1 UNK         0.0600 
    204 H204        1.2948  -28.4331  -46.9534 H         1 UNK         0.0600 
    205 H205       -1.4939  -26.4554  -48.3531 H         1 UNK         0.3000 
    206 H206       -1.8616  -28.4274  -50.4769 H         1 UNK         0.0600 
    207 H207       -0.9042  -26.1224  -50.8577 H         1 UNK         0.0600 
    208 H208       -2.3459  -26.3854  -51.8196 H         1 UNK         0.0600 
    209 H209       -2.4336  -25.4118  -50.3546 H         1 UNK         0.0600 
    210 H210       -3.9655  -27.9448  -51.8624 H         1 UNK         0.3000 
    211 H211       -6.3773  -28.4524  -50.2520 H         1 UNK         0.0600 
    212 H212       -5.9116  -28.2845  -53.2779 H         1 UNK         0.0600 
    213 H213       -7.4138  -28.7622  -52.4950 H         1 UNK         0.0600 
    214 H214       -5.9803  -29.7609  -52.3171 H         1 UNK         0.0600 
    215 H215       -5.8254  -26.2666  -49.2285 H         1 UNK         0.3000 
    216 H216       -6.4707  -24.2381  -48.6533 H         1 UNK         0.0600 
    217 H217       -8.3623  -23.0697  -49.6390 H         1 UNK         0.0600 
    218 H218       -8.7616  -24.7750  -49.5189 H         1 UNK         0.0600 
    219 H219       -8.3234  -24.0724  -51.0773 H         1 UNK         0.0600 
    220 H220       -4.7812  -24.8617  -51.3984 H         1 UNK         0.3000 
    221 H221       -3.2412  -23.9184  -52.6450 H         1 UNK         0.0600 
    222 H222       -3.3336  -21.4970  -50.7707 H         1 UNK         0.0600 
    223 H223       -2.2172  -22.8611  -50.7044 H         1 UNK         0.0600 
    224 H224       -2.1601  -21.7466  -52.0527 H         1 UNK         0.0600 
    225 H225       -5.3801  -21.2043  -51.8605 H         1 UNK         0.3000 
    226 H226       -6.6566  -19.7912  -52.9277 H         1 UNK         0.0600 
    227 H227       -7.9473  -21.8248  -53.4484 H         1 UNK         0.0600 
    228 H228       -8.1016  -20.6604  -54.7552 H         1 UNK         0.0600 
    229 H229       -7.0535  -22.0585  -54.9482 H         1 UNK         0.0600 
    230 H230       -4.7694  -21.2988  -55.5767 H         1 UNK         0.3000 
    231 H231       -4.8582  -18.9998  -57.3062 H         1 UNK         0.0600 
    232 H232       -3.2069  -20.3164  -58.6507 H         1 UNK         0.0600 
    233 H233       -4.5775  -21.3056  -58.1718 H         1 UNK         0.0600 
    234 H234       -3.0368  -21.4678  -57.3299 H         1 UNK         0.0600 
    235 H235       -2.5672  -20.1206  -54.8575 H         1 UNK         0.3000 
    236 H236       -0.4357  -18.2827  -55.4179 H         1 UNK         0.0600 
    237 H237       -0.1657  -20.4066  -54.0965 H         1 UNK         0.0600 
    238 H238        0.3947  -19.0031  -53.2011 H         1 UNK         0.0600 
    239 H239       -1.1594  -19.7208  -52.8074 H         1 UNK         0.0600 
    240 H240       -3.4967  -17.9569  -53.7406 H         1 UNK         0.3000 
    241 H241       -2.7458  -15.6400  -52.1756 H         1 UNK         0.0600 
    242 H242       -3.9943  -14.1675  -55.6819 H         1 UNK         0.3800 
    243 H243       -3.4228  -15.8085  -55.5133 H         1 UNK         0.3800 
    244 H244       -4.9958  -15.6587  -51.3088 H         1 UNK         0.0800 
    245 H245       -5.5761  -16.6483  -52.6150 H         1 UNK         0.0800 
    246 H246       -3.5685  -16.3401  -49.4423 H         1 UNK         0.0800 
    247 H247       -3.7370  -17.9075  -48.6959 H         1 UNK         0.0800 
@<TRIPOS>BOND
     1    1    2 1    
     2    1  127 1    
     3    1  128 1    
     4    1  129 1    
     5    2    3 2    
     6    2    4 am   BACKBONE|DICT|INTERRES
     7    4    5 1    
     8    4  130 1    
     9    5    6 1    
    10    5   65 1    
    11    5  131 1    
    12    6    7 1    
    13    6  132 1    
    14    6  133 1    
    15    7    8 1    
    16    8    9 1    
    17    8  134 1    
    18    8  135 1    
    19    9   10 ar   
    20    9   14 ar   
    21   10   11 ar   
    22   10  136 1    
    23   11   12 ar   
    24   11  126 1    
    25   12   13 ar   
    26   12  137 1    
    27   13   14 ar   
    28   13   15 1    
    29   14  138 1    
    30   15   16 1    
    31   15  139 1    
    32   15  140 1    
    33   16   17 1    
    34   17   18 1    
    35   17  141 1    
    36   17  142 1    
    37   18   19 1    
    38   18   67 1    
    39   18  143 1    
    40   19   20 am   BACKBONE|DICT|INTERRES
    41   19  144 1    
    42   20   21 2    
    43   20   22 1    
    44   22   23 1    
    45   22   24 1    
    46   22  145 1    
    47   23  146 1    
    48   23  147 1    
    49   23  148 1    
    50   24   25 am   BACKBONE|DICT|INTERRES
    51   24  149 1    
    52   25   26 2    
    53   25   27 1    
    54   27   28 1    
    55   27   29 1    
    56   27  150 1    
    57   28  151 1    
    58   28  152 1    
    59   28  153 1    
    60   29   30 am   BACKBONE|DICT|INTERRES
    61   29  154 1    
    62   30   31 2    
    63   30   32 1    
    64   32   33 1    
    65   32   34 1    
    66   32  155 1    
    67   33  156 1    
    68   33  157 1    
    69   33  158 1    
    70   34   35 am   BACKBONE|DICT|INTERRES
    71   34  159 1    
    72   35   36 2    
    73   35   37 1    
    74   37   38 1    
    75   37   39 1    
    76   37  160 1    
    77   38  161 1    
    78   38  162 1    
    79   38  163 1    
    80   39   40 am   BACKBONE|DICT|INTERRES
    81   39  164 1    
    82   40   41 2    
    83   40   42 1    
    84   42   43 1    
    85   42   44 1    
    86   42  165 1    
    87   43  166 1    
    88   43  167 1    
    89   43  168 1    
    90   44   45 am   BACKBONE|DICT|INTERRES
    91   44  169 1    
    92   45   46 2    
    93   45   47 1    
    94   47   48 1    
    95   47   49 1    
    96   47  170 1    
    97   48  171 1    
    98   48  172 1    
    99   48  173 1    
   100   49   50 am   BACKBONE|DICT|INTERRES
   101   49  174 1    
   102   50   51 2    
   103   50   52 1    
   104   52   53 1    
   105   52   54 1    
   106   52  175 1    
   107   53  176 1    
   108   53  177 1    
   109   53  178 1    
   110   54   55 am   BACKBONE|DICT|INTERRES
   111   54  179 1    
   112   55   56 2    
   113   55   57 1    
   114   57   58 1    
   115   57   59 1    
   116   57  180 1    
   117   58  181 1    
   118   58  182 1    
   119   58  183 1    
   120   59   60 am   BACKBONE|DICT|INTERRES
   121   59  184 1    
   122   60   61 2    
   123   60   62 1    
   124   62   63 1    
   125   62   64 1    
   126   62  185 1    
   127   63  186 1    
   128   63  187 1    
   129   63  188 1    
   130   64   65 am   BACKBONE|DICT|INTERRES
   131   64  189 1    
   132   65   66 2    
   133   67   68 2    
   134   67   69 am   BACKBONE|DICT|INTERRES
   135   69   70 1    
   136   69  190 1    
   137   70   71 1    
   138   70   72 1    
   139   70  191 1    
   140   71  192 1    
   141   71  193 1    
   142   71  194 1    
   143   72   73 2    
   144   72   74 am   BACKBONE|DICT|INTERRES
   145   74   75 1    
   146   74  195 1    
   147   75   76 1    
   148   75   77 1    
   149   75  196 1    
   150   76  197 1    
   151   76  198 1    
   152   76  199 1    
   153   77   78 2    
   154   77   79 am   BACKBONE|DICT|INTERRES
   155   79   80 1    
   156   79  200 1    
   157   80   81 1    
   158   80   82 1    
   159   80  201 1    
   160   81  202 1    
   161   81  203 1    
   162   81  204 1    
   163   82   83 2    
   164   82   84 am   BACKBONE|DICT|INTERRES
   165   84   85 1    
   166   84  205 1    
   167   85   86 1    
   168   85   87 1    
   169   85  206 1    
   170   86  207 1    
   171   86  208 1    
   172   86  209 1    
   173   87   88 2    
   174   87   89 am   BACKBONE|DICT|INTERRES
   175   89   90 1    
   176   89  210 1    
   177   90   91 1    
   178   90   92 1    
   179   90  211 1    
   180   91  212 1    
   181   91  213 1    
   182   91  214 1    
   183   92   93 2    
   184   92   94 am   BACKBONE|DICT|INTERRES
   185   94   95 1    
   186   94  215 1    
   187   95   96 1    
   188   95   97 1    
   189   95  216 1    
   190   96  217 1    
   191   96  218 1    
   192   96  219 1    
   193   97   98 2    
   194   97   99 am   BACKBONE|DICT|INTERRES
   195   99  100 1    
   196   99  220 1    
   197  100  101 1    
   198  100  102 1    
   199  100  221 1    
   200  101  222 1    
   201  101  223 1    
   202  101  224 1    
   203  102  103 2    
   204  102  104 am   BACKBONE|DICT|INTERRES
   205  104  105 1    
   206  104  225 1    
   207  105  106 1    
   208  105  107 1    
   209  105  226 1    
   210  106  227 1    
   211  106  228 1    
   212  106  229 1    
   213  107  108 2    
   214  107  109 am   BACKBONE|DICT|INTERRES
   215  109  110 1    
   216  109  230 1    
   217  110  111 1    
   218  110  112 1    
   219  110  231 1    
   220  111  232 1    
   221  111  233 1    
   222  111  234 1    
   223  112  113 2    
   224  112  114 am   BACKBONE|DICT|INTERRES
   225  114  115 1    
   226  114  235 1    
   227  115  116 1    
   228  115  117 1    
   229  115  236 1    
   230  116  237 1    
   231  116  238 1    
   232  116  239 1    
   233  117  118 2    
   234  117  119 am   BACKBONE|DICT|INTERRES
   235  119  120 1    
   236  119  240 1    
   237  120  121 1    
   238  120  124 1    
   239  120  241 1    
   240  121  122 am   BACKBONE|DICT|INTERRES
   241  121  123 2    
   242  122  242 1    
   243  122  243 1    
   244  124  125 1    
   245  124  244 1    
   246  124  245 1    
   247  125  126 1    
   248  126  246 1    
   249  126  247 1    
@<TRIPOS>SUBSTRUCTURE
     1 UNK         1 GROUP             0       ****    0 ROOT    
