@<TRIPOS>MOLECULE
3R540
247   249    1
SMALL
USER_CHARGES


@<TRIPOS>ATOM
      1 CA         -2.0244  -11.5694  -48.4361 C.3       0 UNK        -0.1800 
      2 C          -0.7734  -12.0123  -49.1815 C.2       0 UNK         0.5000 
      3 O           0.1227  -11.2010  -49.4139 O.2       0 UNK        -0.5000 
      4 N          -0.7115  -13.2961  -49.5557 N.am      1 UNK        -0.5000 
      5 CA          0.4206  -13.9250  -50.2493 C.3       1 UNK         0.1400 
      6 C6          0.0139  -15.2361  -50.9728 C.3       23 UNK        -0.0398 
      7 S7         -1.0120  -16.3732  -49.9721 S.3       23 UNK        -0.2404 
      8 C8         -2.6238  -16.1817  -50.7992 C.3       23 UNK        -0.0205 
      9 C9         -3.7015  -17.0131  -50.1228 C.ar      23 UNK        -0.0193 
     10 C10        -4.0969  -18.2382  -50.6666 C.ar      23 UNK        -0.1150 
     11 C11        -5.0824  -19.0089  -50.0421 C.ar      23 UNK        -0.0193 
     12 C12        -5.6776  -18.5429  -48.8672 C.ar      23 UNK        -0.1150 
     13 C13        -5.2953  -17.3160  -48.3181 C.ar      23 UNK        -0.0193 
     14 C14        -4.3112  -16.5530  -48.9529 C.ar      23 UNK        -0.1150 
     15 C15        -5.9326  -16.8203  -47.0301 C.3       23 UNK        -0.0205 
     16 S16        -4.7962  -16.9697  -45.6160 S.3       23 UNK        -0.2404 
     17 C17        -4.5819  -18.7780  -45.4883 C.3       23 UNK        -0.0398 
     18 CA         -3.2798  -19.2768  -46.1620 C.3       11 UNK         0.1400 
     19 N          -2.0689  -18.7636  -45.5153 N.am      11 UNK        -0.5000 
     20 C          -0.8254  -18.9418  -45.9844 C.2       10 UNK         0.5000 
     21 O          -0.5604  -19.5452  -47.0233 O.2       10 UNK        -0.5000 
     22 CA          0.3220  -18.4115  -45.1112 C.3       10 UNK         0.1400 
     23 CB          0.4201  -16.8815  -45.2092 C.3       10 UNK        -0.1800 
     24 N           0.1883  -18.8216  -43.7122 N.am      10 UNK        -0.5000 
     25 C           0.1858  -20.0931  -43.2849 C.2       9 UNK         0.5000 
     26 O           0.3456  -21.0644  -44.0214 O.2       9 UNK        -0.5000 
     27 CA         -0.0933  -20.3281  -41.7908 C.3       9 UNK         0.1400 
     28 CB          1.1857  -20.1757  -40.9529 C.3       9 UNK        -0.1800 
     29 N          -1.1323  -19.4368  -41.2788 N.am      9 UNK        -0.5000 
     30 C          -2.4221  -19.4877  -41.6426 C.2       8 UNK         0.5000 
     31 O          -2.8861  -20.3208  -42.4217 O.2       8 UNK        -0.5000 
     32 CA         -3.3324  -18.3829  -41.0760 C.3       8 UNK         0.1400 
     33 CB         -3.7976  -18.7353  -39.6553 C.3       8 UNK        -0.1800 
     34 N          -2.6775  -17.0727  -41.0645 N.am      8 UNK        -0.5000 
     35 C          -2.2924  -16.4187  -42.1697 C.2       7 UNK         0.5000 
     36 O          -2.4749  -16.8440  -43.3081 O.2       7 UNK        -0.5000 
     37 CA         -1.5209  -15.1025  -41.9657 C.3       7 UNK         0.1400 
     38 CB         -2.4911  -13.9343  -41.7362 C.3       7 UNK        -0.1800 
     39 N          -0.5618  -15.1694  -40.8596 N.am      7 UNK        -0.5000 
     40 C           0.4983  -15.9869  -40.8257 C.2       6 UNK         0.5000 
     41 O           0.7813  -16.7826  -41.7250 O.2       6 UNK        -0.5000 
     42 CA          1.3550  -15.9411  -39.5558 C.3       6 UNK         0.1400 
     43 CB          0.7014  -16.7603  -38.4285 C.3       6 UNK        -0.1800 
     44 N           2.6751  -16.4864  -39.8521 N.am      6 UNK        -0.5000 
     45 C           3.8100  -16.1509  -39.2293 C.2       5 UNK         0.5000 
     46 O           3.8616  -15.3339  -38.3085 O.2       5 UNK        -0.5000 
     47 CA          5.1103  -16.8446  -39.6875 C.3       5 UNK         0.1400 
     48 CB          5.5565  -17.8806  -38.6432 C.3       5 UNK        -0.1800 
     49 N           5.0225  -17.5081  -40.9920 N.am      5 UNK        -0.5000 
     50 C           4.9691  -16.8787  -42.1718 C.2       4 UNK         0.5000 
     51 O           4.9357  -15.6510  -42.2961 O.2       4 UNK        -0.5000 
     52 CA          4.9451  -17.7794  -43.4162 C.3       4 UNK         0.1400 
     53 CB          3.6244  -18.5610  -43.5115 C.3       4 UNK        -0.1800 
     54 N           5.1220  -16.9498  -44.6031 N.am      4 UNK        -0.5000 
     55 C           5.6106  -17.3570  -45.7799 C.2       3 UNK         0.5000 
     56 O           5.9371  -18.5223  -46.0138 O.2       3 UNK        -0.5000 
     57 CA          5.7776  -16.2674  -46.8625 C.3       3 UNK         0.1400 
     58 CB          5.9794  -16.8435  -48.2806 C.3       3 UNK        -0.1800 
     59 N           4.7015  -15.2673  -46.8465 N.am      3 UNK        -0.5000 
     60 C           3.3988  -15.4724  -47.0961 C.2       2 UNK         0.5000 
     61 O           2.9229  -16.5689  -47.3941 O.2       2 UNK        -0.5000 
     62 CA          2.4565  -14.2527  -46.9592 C.3       2 UNK         0.1400 
     63 CB          3.1880  -12.8961  -46.8380 C.3       2 UNK        -0.1800 
     64 N           1.4454  -14.1840  -48.0197 N.am      2 UNK        -0.5000 
     65 C           1.6601  -14.1122  -49.3434 C.2       1 UNK         0.5000 
     66 O           2.7773  -14.1426  -49.8625 O.2       1 UNK        -0.5000 
     67 C          -3.2740  -20.8155  -46.2572 C.2       11 UNK         0.5000 
     68 O          -3.5899  -21.3521  -47.3185 O.2       11 UNK        -0.5000 
     69 N          -2.8845  -21.4969  -45.1688 N.am      12 UNK        -0.5000 
     70 CA         -2.7554  -22.9540  -45.1134 C.3       12 UNK         0.1400 
     71 CB         -2.4803  -23.3976  -43.6690 C.3       12 UNK        -0.1800 
     72 C          -1.6771  -23.4954  -46.0694 C.2       12 UNK         0.5000 
     73 O          -1.9387  -24.4560  -46.7939 O.2       12 UNK        -0.5000 
     74 N          -0.5011  -22.8524  -46.0827 N.am      13 UNK        -0.5000 
     75 CA          0.6120  -23.1774  -46.9740 C.3       13 UNK         0.1400 
     76 CB          1.8498  -22.3544  -46.5859 C.3       13 UNK        -0.1800 
     77 C           0.2596  -22.9679  -48.4553 C.2       13 UNK         0.5000 
     78 O           0.5466  -23.8399  -49.2736 O.2       13 UNK        -0.5000 
     79 N          -0.3907  -21.8406  -48.7696 N.am      14 UNK        -0.5000 
     80 CA         -0.8595  -21.5085  -50.1130 C.3       14 UNK         0.1400 
     81 CB         -1.3127  -20.0470  -50.1404 C.3       14 UNK        -0.1800 
     82 C          -1.9758  -22.4439  -50.6103 C.2       14 UNK         0.5000 
     83 O          -1.9946  -22.7824  -51.7940 O.2       14 UNK        -0.5000 
     84 N          -2.8659  -22.8752  -49.7056 N.am      15 UNK        -0.5000 
     85 CA         -3.8978  -23.8739  -49.9834 C.3       15 UNK         0.1400 
     86 CB         -4.9056  -23.9263  -48.8260 C.3       15 UNK        -0.1800 
     87 C          -3.2973  -25.2637  -50.2587 C.2       15 UNK         0.5000 
     88 O          -3.7121  -25.9194  -51.2142 O.2       15 UNK        -0.5000 
     89 N          -2.3035  -25.6672  -49.4532 N.am      16 UNK        -0.5000 
     90 CA         -1.5510  -26.9139  -49.6179 C.3       16 UNK         0.1400 
     91 CB         -0.6625  -27.1447  -48.3862 C.3       16 UNK        -0.1800 
     92 C          -0.7139  -26.9432  -50.9116 C.2       16 UNK         0.5000 
     93 O          -0.6552  -27.9789  -51.5752 O.2       16 UNK        -0.5000 
     94 N          -0.1129  -25.7987  -51.2642 N.am      17 UNK        -0.5000 
     95 CA          0.6274  -25.5827  -52.5099 C.3       17 UNK         0.1400 
     96 CB          1.4891  -24.3190  -52.3616 C.3       17 UNK        -0.1800 
     97 C          -0.2760  -25.4650  -53.7550 C.2       17 UNK         0.5000 
     98 O           0.2361  -25.5502  -54.8718 O.2       17 UNK        -0.5000 
     99 N          -1.5850  -25.2635  -53.5418 N.am      18 UNK        -0.5000 
    100 CA        -2.6363  -25.0461  -54.5368 C.3       18 UNK         0.1400 
    101 CB        -2.8468  -26.3039  -55.4055 C.3       18 UNK        -0.1800 
    102 C         -2.3949  -23.7637  -55.3576 C.2       18 UNK         0.5000 
    103 O         -2.3553  -23.8079  -56.5887 O.2       18 UNK        -0.5000 
    104 N         -2.2280  -22.6395  -54.6444 N.am      19 UNK        -0.5000 
    105 CA        -1.9869  -21.3028  -55.1995 C.3       19 UNK         0.1400 
    106 CB        -1.7563  -20.3164  -54.0438 C.3       19 UNK        -0.1800 
    107 C         -3.1111  -20.7877  -56.1216 C.2       19 UNK         0.5000 
    108 O         -2.8277  -20.0354  -57.0543 O.2       19 UNK        -0.5000 
    109 N         -4.3545  -21.2114  -55.8451 N.am      20 UNK        -0.5000 
    110 CA        -5.5754  -20.9727  -56.6280 C.3       20 UNK         0.1400 
    111 CB        -5.4692  -21.6361  -58.0175 C.3       20 UNK        -0.1800 
    112 C         -6.0185  -19.4942  -56.7079 C.2       20 UNK         0.5000 
    113 O         -6.8034  -19.1390  -57.5893 O.2       20 UNK        -0.5000 
    114 N         -5.5371  -18.6687  -55.7710 N.am      21 UNK        -0.5000 
    115 CA        -5.9993  -17.3053  -55.5298 C.3       21 UNK         0.1400 
    116 CB        -4.7947  -16.4375  -55.1106 C.3       21 UNK        -0.1800 
    117 C         -7.1084  -17.3901  -54.4676 C.2       21 UNK         0.5000 
    118 O         -8.2529  -17.6942  -54.8068 O.2       21 UNK        -0.5000 
    119 N         -6.7266  -17.2022  -53.1991 N.am      22 UNK        -0.5000 
    120 CA        -7.4992  -17.5654  -51.9981 C.3       22 UNK         0.1400 
    121 C         -8.7833  -16.7207  -51.7384 C.2       22 UNK         0.5000 
    122 N         -8.9530  -15.5675  -52.3730 N.am      22 UNK        -0.7600 
    123 O         -9.6262  -17.0962  -50.9279 O.2       22 UNK        -0.5000 
    124 C124       -7.7558  -19.1010  -51.8815 C.3       23 UNK        -0.0398 
    125 S125       -6.2986  -20.1452  -52.2690 S.3       23 UNK        -0.2404 
    126 C126       -5.5114  -20.3399  -50.6396 C.3       23 UNK        -0.0205 
    127 H127       -2.7312  -12.3894  -48.3062 H         1 UNK         0.0600 
    128 H128       -2.5258  -10.7724  -48.9852 H         1 UNK         0.0600 
    129 H129       -1.7585  -11.1902  -47.4494 H         1 UNK         0.0600 
    130 H130       -1.4740  -13.9196  -49.3323 H         1 UNK         0.3000 
    131 H131        0.7380  -13.2295  -51.0297 H         1 UNK         0.0600 
    132 H132       -0.5328  -14.9796  -51.8810 H         1 UNK         0.0800 
    133 H133        0.8943  -15.7799  -51.3203 H         1 UNK         0.0800 
    134 H134       -2.5270  -16.4714  -51.8468 H         1 UNK         0.0800 
    135 H135       -2.9176  -15.1311  -50.7951 H         1 UNK         0.0800 
    136 H136       -3.6401  -18.5958  -51.5781 H         1 UNK         0.1150 
    137 H137       -6.4374  -19.1363  -48.3787 H         1 UNK         0.1150 
    138 H138       -4.0072  -15.6084  -48.5242 H         1 UNK         0.1150 
    139 H139       -6.2139  -15.7730  -47.1480 H         1 UNK         0.0800 
    140 H140       -6.8552  -17.3619  -46.8160 H         1 UNK         0.0800 
    141 H141       -5.4568  -19.2637  -45.9241 H         1 UNK         0.0800 
    142 H142       -4.5854  -19.0449  -44.4301 H         1 UNK         0.0800 
    143 H143       -3.2647  -18.9051  -47.1883 H         1 UNK         0.0600 
    144 H144       -2.2030  -18.2131  -44.6711 H         1 UNK         0.3000 
    145 H145        1.2523  -18.8342  -45.4960 H         1 UNK         0.0600 
    146 H146        1.2967  -16.5037  -44.6841 H         1 UNK         0.0600 
    147 H147        0.4996  -16.5705  -46.2510 H         1 UNK         0.0600 
    148 H148       -0.4558  -16.3858  -44.7967 H         1 UNK         0.0600 
    149 H149        0.1047  -18.0782  -43.0262 H         1 UNK         0.3000 
    150 H150       -0.4474  -21.3548  -41.6776 H         1 UNK         0.0600 
    151 H151        1.9584  -20.8642  -41.2971 H         1 UNK         0.0600 
    152 H152        0.9978  -20.3986  -39.9026 H         1 UNK         0.0600 
    153 H153        1.5960  -19.1686  -41.0124 H         1 UNK         0.0600 
    154 H154       -0.8318  -18.6892  -40.6729 H         1 UNK         0.3000 
    155 H155       -4.2129  -18.3155  -41.7187 H         1 UNK         0.0600 
    156 H156       -2.9614  -18.7880  -38.9570 H         1 UNK         0.0600 
    157 H157       -4.3007  -19.7031  -39.6391 H         1 UNK         0.0600 
    158 H158       -4.5046  -17.9965  -39.2777 H         1 UNK         0.0600 
    159 H159       -2.4886  -16.6590  -40.1637 H         1 UNK         0.3000 
    160 H160       -0.9605  -14.9026  -42.8812 H         1 UNK         0.0600 
    161 H161       -1.9585  -12.9849  -41.6789 H         1 UNK         0.0600 
    162 H162       -3.0611  -14.0566  -40.8144 H         1 UNK         0.0600 
    163 H163       -3.2061  -13.8553  -42.5564 H         1 UNK         0.0600 
    164 H164       -0.7306  -14.5506  -40.0795 H         1 UNK         0.3000 
    165 H165        1.4488  -14.8977  -39.2472 H         1 UNK         0.0600 
    166 H166        1.2918  -16.7120  -37.5134 H         1 UNK         0.0600 
    167 H167       -0.2935  -16.3825  -38.1899 H         1 UNK         0.0600 
    168 H168        0.5989  -17.8110  -38.7030 H         1 UNK         0.0600 
    169 H169        2.7058  -17.1092  -40.6480 H         1 UNK         0.3000 
    170 H170        5.8808  -16.0732  -39.7504 H         1 UNK         0.0600 
    171 H171        5.6741  -17.4218  -37.6604 H         1 UNK         0.0600 
    172 H172        4.8304  -18.6884  -38.5430 H         1 UNK         0.0600 
    173 H173        6.5172  -18.3219  -38.9093 H         1 UNK         0.0600 
    174 H174        5.0412  -18.5177  -40.9775 H         1 UNK         0.3000 
    175 H175        5.7801  -18.4794  -43.3423 H         1 UNK         0.0600 
    176 H176        3.5267  -19.2728  -42.6921 H         1 UNK         0.0600 
    177 H177        3.5575  -19.1293  -44.4393 H         1 UNK         0.0600 
    178 H178        2.7697  -17.8879  -43.4659 H         1 UNK         0.0600 
    179 H179        4.9265  -15.9681  -44.4528 H         1 UNK         0.3000 
    180 H180        6.6902  -15.7298  -46.6016 H         1 UNK         0.0600 
    181 H181        5.1382  -17.4634  -48.5915 H         1 UNK         0.0600 
    182 H182        6.8751  -17.4639  -48.3263 H         1 UNK         0.0600 
    183 H183        6.0990  -16.0479  -49.0159 H         1 UNK         0.0600 
    184 H184        4.9889  -14.3277  -46.6112 H         1 UNK         0.3000 
    185 H185        1.9066  -14.4048  -46.0299 H         1 UNK         0.0600 
    186 H186        3.8154  -12.8580  -45.9468 H         1 UNK         0.0600 
    187 H187        3.8194  -12.6941  -47.7042 H         1 UNK         0.0600 
    188 H188        2.4742  -12.0761  -46.7551 H         1 UNK         0.0600 
    189 H189        0.4852  -14.1779  -47.7088 H         1 UNK         0.3000 
    190 H190       -2.6668  -20.9890  -44.3172 H         1 UNK         0.3000 
    191 H191       -3.7119  -23.3822  -45.4202 H         1 UNK         0.0600 
    192 H192       -1.5513  -22.9742  -43.2869 H         1 UNK         0.0600 
    193 H193       -2.3988  -24.4832  -43.6027 H         1 UNK         0.0600 
    194 H194       -3.2863  -23.0904  -43.0025 H         1 UNK         0.0600 
    195 H195       -0.3464  -22.0890  -45.4281 H         1 UNK         0.3000 
    196 H196        0.8507  -24.2339  -46.8364 H         1 UNK         0.0600 
    197 H197        2.6921  -22.5811  -47.2407 H         1 UNK         0.0600 
    198 H198        2.1634  -22.5732  -45.5651 H         1 UNK         0.0600 
    199 H199        1.6588  -21.2826  -46.6532 H         1 UNK         0.0600 
    200 H200       -0.5617  -21.1470  -48.0447 H         1 UNK         0.3000 
    201 H201       -0.0152  -21.6104  -50.7973 H         1 UNK         0.0600 
    202 H202       -0.4973  -19.3800  -49.8611 H         1 UNK         0.0600 
    203 H203       -2.1370  -19.8711  -49.4483 H         1 UNK         0.0600 
    204 H204       -1.6400  -19.7559  -51.1373 H         1 UNK         0.0600 
    205 H205       -2.8372  -22.4975  -48.7633 H         1 UNK         0.3000 
    206 H206       -4.4352  -23.5615  -50.8813 H         1 UNK         0.0600 
    207 H207       -5.3952  -22.9626  -48.6868 H         1 UNK         0.0600 
    208 H208       -5.6865  -24.6622  -49.0209 H         1 UNK         0.0600 
    209 H209       -4.4270  -24.1957  -47.8844 H         1 UNK         0.0600 
    210 H210       -2.0505  -25.0857  -48.6592 H         1 UNK         0.3000 
    211 H211       -2.2718  -27.7323  -49.6726 H         1 UNK         0.0600 
    212 H212        0.0648  -26.3428  -48.2573 H         1 UNK         0.0600 
    213 H213       -0.1089  -28.0803  -48.4731 H         1 UNK         0.0600 
    214 H214       -1.2593  -27.2026  -47.4758 H         1 UNK         0.0600 
    215 H215       -0.1368  -25.0175  -50.6136 H         1 UNK         0.3000 
    216 H216        1.2928  -26.4341  -52.6663 H         1 UNK         0.0600 
    217 H217        2.0922  -24.1472  -53.2539 H         1 UNK         0.0600 
    218 H218        2.1748  -24.4045  -51.5184 H         1 UNK         0.0600 
    219 H219        0.8736  -23.4325  -52.2058 H         1 UNK         0.0600 
    220 H220       -1.8853  -25.1837  -52.5794 H         1 UNK         0.3000 
    221 H221       -3.5567  -24.8814  -53.9746 H         1 UNK         0.0600 
    222 H222       -3.7030  -26.1784  -56.0691 H         1 UNK         0.0600 
    223 H223       -3.0413  -27.1798  -54.7865 H         1 UNK         0.0600 
    224 H224       -1.9799  -26.5205  -56.0301 H         1 UNK         0.0600 
    225 H225       -2.2199  -22.7107  -53.6282 H         1 UNK         0.3000 
    226 H226       -1.0732  -21.3546  -55.7949 H         1 UNK         0.0600 
    227 H227       -0.8967  -20.6114  -53.4417 H         1 UNK         0.0600 
    228 H228       -1.5611  -19.3102  -54.4170 H         1 UNK         0.0600 
    229 H229       -2.6246  -20.2617  -53.3858 H         1 UNK         0.0600 
    230 H230       -4.4675  -21.8070  -55.0371 H         1 UNK         0.3000 
    231 H231       -6.3733  -21.4840  -56.0877 H         1 UNK         0.0600 
    232 H232       -5.1704  -22.6811  -57.9333 H         1 UNK         0.0600 
    233 H233       -4.7420  -21.1300  -58.6529 H         1 UNK         0.0600 
    234 H234       -6.4274  -21.6154  -58.5378 H         1 UNK         0.0600 
    235 H235       -4.9259  -19.0652  -55.0729 H         1 UNK         0.3000 
    236 H236       -6.4319  -16.8757  -56.4357 H         1 UNK         0.0600 
    237 H237       -4.0863  -16.3418  -55.9338 H         1 UNK         0.0600 
    238 H238       -5.1112  -15.4291  -54.8412 H         1 UNK         0.0600 
    239 H239       -4.2512  -16.8580  -54.2634 H         1 UNK         0.0600 
    240 H240       -5.7694  -16.9346  -53.0265 H         1 UNK         0.3000 
    241 H241       -6.8520  -17.2863  -51.1690 H         1 UNK         0.0600 
    242 H242       -9.7797  -15.0185  -52.1969 H         1 UNK         0.3800 
    243 H243       -8.2702  -15.2484  -53.0416 H         1 UNK         0.3800 
    244 H244       -8.5551  -19.3943  -52.5636 H         1 UNK         0.0800 
    245 H245       -8.1104  -19.3517  -50.8806 H         1 UNK         0.0800 
    246 H246       -4.6319  -20.9723  -50.7518 H         1 UNK         0.0800 
    247 H247       -6.1903  -20.8714  -49.9712 H         1 UNK         0.0800 
@<TRIPOS>BOND
     1    1    2 1    
     2    1  127 1    
     3    1  128 1    
     4    1  129 1    
     5    2    3 2    
     6    2    4 am   BACKBONE|DICT|INTERRES
     7    4    5 1    
     8    4  130 1    
     9    5    6 1    
    10    5   65 1    
    11    5  131 1    
    12    6    7 1    
    13    6  132 1    
    14    6  133 1    
    15    7    8 1    
    16    8    9 1    
    17    8  134 1    
    18    8  135 1    
    19    9   10 ar   
    20    9   14 ar   
    21   10   11 ar   
    22   10  136 1    
    23   11   12 ar   
    24   11  126 1    
    25   12   13 ar   
    26   12  137 1    
    27   13   14 ar   
    28   13   15 1    
    29   14  138 1    
    30   15   16 1    
    31   15  139 1    
    32   15  140 1    
    33   16   17 1    
    34   17   18 1    
    35   17  141 1    
    36   17  142 1    
    37   18   19 1    
    38   18   67 1    
    39   18  143 1    
    40   19   20 am   BACKBONE|DICT|INTERRES
    41   19  144 1    
    42   20   21 2    
    43   20   22 1    
    44   22   23 1    
    45   22   24 1    
    46   22  145 1    
    47   23  146 1    
    48   23  147 1    
    49   23  148 1    
    50   24   25 am   BACKBONE|DICT|INTERRES
    51   24  149 1    
    52   25   26 2    
    53   25   27 1    
    54   27   28 1    
    55   27   29 1    
    56   27  150 1    
    57   28  151 1    
    58   28  152 1    
    59   28  153 1    
    60   29   30 am   BACKBONE|DICT|INTERRES
    61   29  154 1    
    62   30   31 2    
    63   30   32 1    
    64   32   33 1    
    65   32   34 1    
    66   32  155 1    
    67   33  156 1    
    68   33  157 1    
    69   33  158 1    
    70   34   35 am   BACKBONE|DICT|INTERRES
    71   34  159 1    
    72   35   36 2    
    73   35   37 1    
    74   37   38 1    
    75   37   39 1    
    76   37  160 1    
    77   38  161 1    
    78   38  162 1    
    79   38  163 1    
    80   39   40 am   BACKBONE|DICT|INTERRES
    81   39  164 1    
    82   40   41 2    
    83   40   42 1    
    84   42   43 1    
    85   42   44 1    
    86   42  165 1    
    87   43  166 1    
    88   43  167 1    
    89   43  168 1    
    90   44   45 am   BACKBONE|DICT|INTERRES
    91   44  169 1    
    92   45   46 2    
    93   45   47 1    
    94   47   48 1    
    95   47   49 1    
    96   47  170 1    
    97   48  171 1    
    98   48  172 1    
    99   48  173 1    
   100   49   50 am   BACKBONE|DICT|INTERRES
   101   49  174 1    
   102   50   51 2    
   103   50   52 1    
   104   52   53 1    
   105   52   54 1    
   106   52  175 1    
   107   53  176 1    
   108   53  177 1    
   109   53  178 1    
   110   54   55 am   BACKBONE|DICT|INTERRES
   111   54  179 1    
   112   55   56 2    
   113   55   57 1    
   114   57   58 1    
   115   57   59 1    
   116   57  180 1    
   117   58  181 1    
   118   58  182 1    
   119   58  183 1    
   120   59   60 am   BACKBONE|DICT|INTERRES
   121   59  184 1    
   122   60   61 2    
   123   60   62 1    
   124   62   63 1    
   125   62   64 1    
   126   62  185 1    
   127   63  186 1    
   128   63  187 1    
   129   63  188 1    
   130   64   65 am   BACKBONE|DICT|INTERRES
   131   64  189 1    
   132   65   66 2    
   133   67   68 2    
   134   67   69 am   BACKBONE|DICT|INTERRES
   135   69   70 1    
   136   69  190 1    
   137   70   71 1    
   138   70   72 1    
   139   70  191 1    
   140   71  192 1    
   141   71  193 1    
   142   71  194 1    
   143   72   73 2    
   144   72   74 am   BACKBONE|DICT|INTERRES
   145   74   75 1    
   146   74  195 1    
   147   75   76 1    
   148   75   77 1    
   149   75  196 1    
   150   76  197 1    
   151   76  198 1    
   152   76  199 1    
   153   77   78 2    
   154   77   79 am   BACKBONE|DICT|INTERRES
   155   79   80 1    
   156   79  200 1    
   157   80   81 1    
   158   80   82 1    
   159   80  201 1    
   160   81  202 1    
   161   81  203 1    
   162   81  204 1    
   163   82   83 2    
   164   82   84 am   BACKBONE|DICT|INTERRES
   165   84   85 1    
   166   84  205 1    
   167   85   86 1    
   168   85   87 1    
   169   85  206 1    
   170   86  207 1    
   171   86  208 1    
   172   86  209 1    
   173   87   88 2    
   174   87   89 am   BACKBONE|DICT|INTERRES
   175   89   90 1    
   176   89  210 1    
   177   90   91 1    
   178   90   92 1    
   179   90  211 1    
   180   91  212 1    
   181   91  213 1    
   182   91  214 1    
   183   92   93 2    
   184   92   94 am   BACKBONE|DICT|INTERRES
   185   94   95 1    
   186   94  215 1    
   187   95   96 1    
   188   95   97 1    
   189   95  216 1    
   190   96  217 1    
   191   96  218 1    
   192   96  219 1    
   193   97   98 2    
   194   97   99 am   BACKBONE|DICT|INTERRES
   195   99  100 1    
   196   99  220 1    
   197  100  101 1    
   198  100  102 1    
   199  100  221 1    
   200  101  222 1    
   201  101  223 1    
   202  101  224 1    
   203  102  103 2    
   204  102  104 am   BACKBONE|DICT|INTERRES
   205  104  105 1    
   206  104  225 1    
   207  105  106 1    
   208  105  107 1    
   209  105  226 1    
   210  106  227 1    
   211  106  228 1    
   212  106  229 1    
   213  107  108 2    
   214  107  109 am   BACKBONE|DICT|INTERRES
   215  109  110 1    
   216  109  230 1    
   217  110  111 1    
   218  110  112 1    
   219  110  231 1    
   220  111  232 1    
   221  111  233 1    
   222  111  234 1    
   223  112  113 2    
   224  112  114 am   BACKBONE|DICT|INTERRES
   225  114  115 1    
   226  114  235 1    
   227  115  116 1    
   228  115  117 1    
   229  115  236 1    
   230  116  237 1    
   231  116  238 1    
   232  116  239 1    
   233  117  118 2    
   234  117  119 am   BACKBONE|DICT|INTERRES
   235  119  120 1    
   236  119  240 1    
   237  120  121 1    
   238  120  124 1    
   239  120  241 1    
   240  121  122 am   BACKBONE|DICT|INTERRES
   241  121  123 2    
   242  122  242 1    
   243  122  243 1    
   244  124  125 1    
   245  124  244 1    
   246  124  245 1    
   247  125  126 1    
   248  126  246 1    
   249  126  247 1    
@<TRIPOS>SUBSTRUCTURE
     1 UNK         1 GROUP             0       ****    0 ROOT    
