@<TRIPOS>MOLECULE
3R540
247   249    1
SMALL
USER_CHARGES


@<TRIPOS>ATOM
      1 CA          1.6740  -10.9178  -47.1558 C.3       0 UNK        -0.1800 
      2 C           1.6462  -12.4233  -47.3755 C.2       0 UNK         0.5000 
      3 O           2.5977  -13.1125  -47.0101 O.2       0 UNK        -0.5000 
      4 N           0.5501  -12.9391  -47.9475 N.am      1 UNK        -0.5000 
      5 CA          0.3403  -14.3525  -48.3043 C.3       1 UNK         0.1400 
      6 C6         -0.9403  -14.5322  -49.1573 C.3       23 UNK        -0.0398 
      7 S7         -0.7936  -13.6937  -50.7746 S.3       23 UNK        -0.2404 
      8 C8         -1.7054  -14.8290  -51.8770 C.3       23 UNK        -0.0205 
      9 C9         -0.9024  -16.0058  -52.4374 C.ar      23 UNK        -0.0193 
     10 C10        -1.2800  -16.5462  -53.6711 C.ar      23 UNK        -0.1150 
     11 C11        -0.6255  -17.6584  -54.2106 C.ar      23 UNK        -0.0193 
     12 C12         0.4237  -18.2415  -53.4870 C.ar      23 UNK        -0.1150 
     13 C13         0.8185  -17.7156  -52.2540 C.ar      23 UNK        -0.0193 
     14 C14         0.1610  -16.5942  -51.7428 C.ar      23 UNK        -0.1150 
     15 C15         1.9417  -18.3670  -51.4562 C.3       23 UNK        -0.0205 
     16 S16         1.4076  -19.8866  -50.5986 S.3       23 UNK        -0.2404 
     17 C17         0.0163  -19.2748  -49.5903 C.3       23 UNK        -0.0398 
     18 CA         -0.6850  -20.3959  -48.7912 C.3       11 UNK         0.1400 
     19 N           0.1909  -21.0228  -47.7973 N.am      11 UNK        -0.5000 
     20 C          -0.1487  -22.0514  -47.0055 C.2       10 UNK         0.5000 
     21 O          -1.2520  -22.5960  -47.0350 O.2       10 UNK        -0.5000 
     22 CA          0.9012  -22.5463  -45.9934 C.3       10 UNK         0.1400 
     23 CB          1.5506  -23.8475  -46.4925 C.3       10 UNK        -0.1800 
     24 N           1.9538  -21.5697  -45.6963 N.am      10 UNK        -0.5000 
     25 C           1.7662  -20.4057  -45.0592 C.2       9 UNK         0.5000 
     26 O           0.6632  -19.9871  -44.6935 O.2       9 UNK        -0.5000 
     27 CA          3.0230  -19.5490  -44.8412 C.3       9 UNK         0.1400 
     28 CB          3.0725  -18.4017  -45.8586 C.3       9 UNK        -0.1800 
     29 N           3.0299  -19.0126  -43.4828 N.am      9 UNK        -0.5000 
     30 C           3.5065  -19.6794  -42.4227 C.2       8 UNK         0.5000 
     31 O           4.1121  -20.7493  -42.5032 O.2       8 UNK        -0.5000 
     32 CA          3.2429  -19.0671  -41.0346 C.3       8 UNK         0.1400 
     33 CB          4.3388  -18.0579  -40.6590 C.3       8 UNK        -0.1800 
     34 N           1.9378  -18.4164  -40.9399 N.am      8 UNK        -0.5000 
     35 C           0.7569  -19.0464  -40.9862 C.2       7 UNK         0.5000 
     36 O           0.6283  -20.2704  -41.0528 O.2       7 UNK        -0.5000 
     37 CA         -0.4711  -18.1237  -40.8922 C.3       7 UNK         0.1400 
     38 CB         -1.8147  -18.8459  -41.1280 C.3       7 UNK        -0.1800 
     39 N          -0.4606  -17.3734  -39.6306 N.am      7 UNK        -0.5000 
     40 C          -0.5689  -17.8691  -38.3853 C.2       6 UNK         0.5000 
     41 O          -0.8080  -19.0519  -38.1388 O.2       6 UNK        -0.5000 
     42 CA         -0.3486  -16.9036  -37.1983 C.3       6 UNK         0.1400 
     43 CB          0.8866  -17.3268  -36.3852 C.3       6 UNK        -0.1800 
     44 N          -0.1745  -15.5061  -37.5931 N.am      6 UNK        -0.5000 
     45 C          -1.1505  -14.6740  -37.9788 C.2       5 UNK         0.5000 
     46 O          -2.3454  -14.9705  -37.9659 O.2       5 UNK        -0.5000 
     47 CA         -0.7134  -13.2844  -38.4931 C.3       5 UNK         0.1400 
     48 CB         -0.9428  -12.2167  -37.4117 C.3       5 UNK        -0.1800 
     49 N           0.6835  -13.2090  -38.9473 N.am      5 UNK        -0.5000 
     50 C           1.2099  -13.9279  -39.9477 C.2       4 UNK         0.5000 
     51 O           0.5837  -14.7909  -40.5692 O.2       4 UNK        -0.5000 
     52 CA          2.6900  -13.6835  -40.2713 C.3       4 UNK         0.1400 
     53 CB          3.5990  -14.4187  -39.2716 C.3       4 UNK        -0.1800 
     54 N           2.9375  -14.1812  -41.6168 N.am      4 UNK        -0.5000 
     55 C           3.8412  -13.7346  -42.4904 C.2       3 UNK         0.5000 
     56 O           4.6737  -12.8680  -42.2201 O.2       3 UNK        -0.5000 
     57 CA          3.7952  -14.3188  -43.9202 C.3       3 UNK         0.1400 
     58 CB          4.7474  -15.5197  -44.0667 C.3       3 UNK        -0.1800 
     59 N           2.4474  -14.6252  -44.4299 N.am      3 UNK        -0.5000 
     60 C           1.5577  -15.5304  -43.9921 C.2       2 UNK         0.5000 
     61 O           1.7959  -16.3408  -43.0959 O.2       2 UNK        -0.5000 
     62 CA          0.1543  -15.5200  -44.6247 C.3       2 UNK         0.1400 
     63 CB         -0.8624  -14.8931  -43.6574 C.3       2 UNK        -0.1800 
     64 N           0.0996  -14.7797  -45.8849 N.am      2 UNK        -0.5000 
     65 C           0.3211  -15.3127  -47.0931 C.2       1 UNK         0.5000 
     66 O           0.5083  -16.5139  -47.2805 O.2       1 UNK        -0.5000 
     67 C          -1.9959  -19.8652  -48.1778 C.2       11 UNK         0.5000 
     68 O          -3.0450  -20.0221  -48.7995 O.2       11 UNK        -0.5000 
     69 N          -1.9343  -19.2871  -46.9691 N.am      12 UNK        -0.5000 
     70 CA         -3.1106  -18.7961  -46.2467 C.3       12 UNK         0.1400 
     71 CB         -2.6718  -17.9360  -45.0551 C.3       12 UNK        -0.1800 
     72 C          -4.0553  -19.9260  -45.8003 C.2       12 UNK         0.5000 
     73 O          -5.2710  -19.7875  -45.9388 O.2       12 UNK        -0.5000 
     74 N          -3.4821  -21.0413  -45.3256 N.am      13 UNK        -0.5000 
     75 CA         -4.2169  -22.2529  -44.9485 C.3       13 UNK         0.1400 
     76 CB         -3.2782  -23.2048  -44.1905 C.3       13 UNK        -0.1800 
     77 C          -4.8523  -22.9558  -46.1648 C.2       13 UNK         0.5000 
     78 O          -5.9527  -23.4962  -46.0553 O.2       13 UNK        -0.5000 
     79 N          -4.1649  -22.8870  -47.3116 N.am      14 UNK        -0.5000 
     80 CA         -4.6070  -23.3792  -48.6165 C.3       14 UNK         0.1400 
     81 CB         -3.3583  -23.7685  -49.4247 C.3       14 UNK        -0.1800 
     82 C          -5.5152  -22.3875  -49.3834 C.2       14 UNK         0.5000 
     83 O          -5.7738  -22.6125  -50.5679 O.2       14 UNK        -0.5000 
     84 N          -5.9855  -21.3267  -48.7050 N.am      15 UNK        -0.5000 
     85 CA         -6.9276  -20.3001  -49.1664 C.3       15 UNK         0.1400 
     86 CB         -8.3063  -20.9254  -49.4676 C.3       15 UNK        -0.1800 
     87 C          -6.3728  -19.4750  -50.3431 C.2       15 UNK         0.5000 
     88 O          -6.9151  -19.5242  -51.4466 O.2       15 UNK        -0.5000 
     89 N          -5.2619  -18.7679  -50.0895 N.am      16 UNK        -0.5000 
     90 CA         -4.4322  -18.0442  -51.0664 C.3       16 UNK         0.1400 
     91 CB         -5.1959  -16.8542  -51.6847 C.3       16 UNK        -0.1800 
     92 C          -3.8362  -19.0023  -52.1189 C.2       16 UNK         0.5000 
     93 O          -3.7740  -18.6766  -53.3042 O.2       16 UNK        -0.5000 
     94 N          -3.4675  -20.1994  -51.6412 N.am      17 UNK        -0.5000 
     95 CA         -2.9914  -21.3699  -52.3777 C.3       17 UNK         0.1400 
     96 CB         -1.5603  -21.1493  -52.8913 C.3       17 UNK        -0.1800 
     97 C          -3.9451  -21.8819  -53.4756 C.2       17 UNK         0.5000 
     98 O          -3.5015  -22.6328  -54.3449 O.2       17 UNK        -0.5000 
     99 N          -5.2370  -21.5247  -53.4109 N.am      18 UNK        -0.5000 
    100 CA        -6.2716  -21.9587  -54.3519 C.3       18 UNK         0.1400 
    101 CB        -7.5819  -21.2123  -54.0682 C.3       18 UNK        -0.1800 
    102 C         -6.5029  -23.4785  -54.3249 C.2       18 UNK         0.5000 
    103 O         -6.7632  -24.0665  -55.3747 O.2       18 UNK        -0.5000 
    104 N         -6.3306  -24.0979  -53.1474 N.am      19 UNK        -0.5000 
    105 CA        -6.3781  -25.5505  -52.9568 C.3       19 UNK         0.1400 
    106 CB        -6.3760  -25.8566  -51.4512 C.3       19 UNK        -0.1800 
    107 C         -5.2322  -26.3060  -53.6659 C.2       19 UNK         0.5000 
    108 O         -5.3714  -27.5010  -53.9285 O.2       19 UNK        -0.5000 
    109 N         -4.1353  -25.5997  -53.9707 N.am      20 UNK        -0.5000 
    110 CA        -2.9667  -26.1024  -54.6936 C.3       20 UNK         0.1400 
    111 CB        -1.7140  -25.7545  -53.8702 C.3       20 UNK        -0.1800 
    112 C         -2.8614  -25.5058  -56.1128 C.2       20 UNK         0.5000 
    113 O         -1.8719  -25.7686  -56.7980 O.2       20 UNK        -0.5000 
    114 N         -3.8389  -24.6765  -56.5159 N.am      21 UNK        -0.5000 
    115 CA        -3.8866  -23.8805  -57.7511 C.3       21 UNK         0.1400 
    116 CB        -4.1328  -24.7980  -58.9660 C.3       21 UNK        -0.1800 
    117 C         -2.6602  -22.9536  -57.9395 C.2       21 UNK         0.5000 
    118 O         -2.2355  -22.7118  -59.0707 O.2       21 UNK        -0.5000 
    119 N         -2.0981  -22.4751  -56.8210 N.am      22 UNK        -0.5000 
    120 CA        -0.8208  -21.7487  -56.7246 C.3       22 UNK         0.1400 
    121 C          0.4420  -22.5901  -57.1044 C.2       22 UNK         0.5000 
    122 N          0.3670  -23.9141  -57.1838 N.am      22 UNK        -0.7600 
    123 O          1.5235  -22.0454  -57.3072 O.2       22 UNK        -0.5000 
    124 C124       -0.8716  -20.3493  -57.4076 C.3       23 UNK        -0.0398 
    125 S125        0.1353  -19.1018  -56.5263 S.3       23 UNK        -0.2404 
    126 C126       -1.1324  -18.2419  -55.5322 C.3       23 UNK        -0.0205 
    127 H127        0.7608  -10.4388  -47.5105 H         1 UNK         0.0600 
    128 H128        2.5177  -10.4776  -47.6875 H         1 UNK         0.0600 
    129 H129        1.7853  -10.6954  -46.0945 H         1 UNK         0.0600 
    130 H130       -0.1914  -12.3131  -48.2297 H         1 UNK         0.3000 
    131 H131        1.1961  -14.6584  -48.9104 H         1 UNK         0.0600 
    132 H132       -1.8107  -14.1315  -48.6342 H         1 UNK         0.0800 
    133 H133       -1.1546  -15.5898  -49.3230 H         1 UNK         0.0800 
    134 H134       -2.0875  -14.2315  -52.7062 H         1 UNK         0.0800 
    135 H135       -2.5804  -15.2129  -51.3522 H         1 UNK         0.0800 
    136 H136       -2.1140  -16.1142  -54.2066 H         1 UNK         0.1150 
    137 H137        0.9229  -19.1224  -53.8640 H         1 UNK         0.1150 
    138 H138        0.4758  -16.2035  -50.7884 H         1 UNK         0.1150 
    139 H139        2.7662  -18.6122  -52.1272 H         1 UNK         0.0800 
    140 H140        2.3458  -17.6682  -50.7220 H         1 UNK         0.0800 
    141 H141       -0.7013  -18.8027  -50.2636 H         1 UNK         0.0800 
    142 H142        0.3833  -18.4931  -48.9251 H         1 UNK         0.0800 
    143 H143       -0.9678  -21.1790  -49.4978 H         1 UNK         0.0600 
    144 H144        1.1235  -20.6461  -47.7205 H         1 UNK         0.3000 
    145 H145        0.3721  -22.7632  -45.0616 H         1 UNK         0.0600 
    146 H146        2.2323  -24.2598  -45.7481 H         1 UNK         0.0600 
    147 H147        0.7956  -24.6098  -46.6948 H         1 UNK         0.0600 
    148 H148        2.1131  -23.6893  -47.4149 H         1 UNK         0.0600 
    149 H149        2.8908  -21.8301  -45.9721 H         1 UNK         0.3000 
    150 H150        3.9111  -20.1677  -44.9941 H         1 UNK         0.0600 
    151 H151        3.0251  -18.7801  -46.8815 H         1 UNK         0.0600 
    152 H152        3.9995  -17.8351  -45.7666 H         1 UNK         0.0600 
    153 H153        2.2376  -17.7138  -45.7261 H         1 UNK         0.0600 
    154 H154        2.5109  -18.1536  -43.3259 H         1 UNK         0.3000 
    155 H155        3.2678  -19.8813  -40.3071 H         1 UNK         0.0600 
    156 H156        4.2942  -17.1620  -41.2789 H         1 UNK         0.0600 
    157 H157        5.3319  -18.4933  -40.7783 H         1 UNK         0.0600 
    158 H158        4.2450  -17.7498  -39.6177 H         1 UNK         0.0600 
    159 H159        1.9371  -17.4058  -40.9409 H         1 UNK         0.3000 
    160 H160       -0.3591  -17.3900  -41.6895 H         1 UNK         0.0600 
    161 H161       -2.0012  -19.6258  -40.3896 H         1 UNK         0.0600 
    162 H162       -1.8282  -19.3226  -42.1089 H         1 UNK         0.0600 
    163 H163       -2.6485  -18.1445  -41.0950 H         1 UNK         0.0600 
    164 H164       -0.2339  -16.3886  -39.7312 H         1 UNK         0.3000 
    165 H165       -1.2260  -16.9766  -36.5521 H         1 UNK         0.0600 
    166 H166        1.7966  -17.2838  -36.9856 H         1 UNK         0.0600 
    167 H167        1.0261  -16.6845  -35.5154 H         1 UNK         0.0600 
    168 H168        0.7846  -18.3487  -36.0171 H         1 UNK         0.0600 
    169 H169        0.7749  -15.1672  -37.6349 H         1 UNK         0.3000 
    170 H170       -1.3493  -13.0463  -39.3485 H         1 UNK         0.0600 
    171 H171       -0.3093  -12.3858  -36.5397 H         1 UNK         0.0600 
    172 H172       -0.7328  -11.2168  -37.7926 H         1 UNK         0.0600 
    173 H173       -1.9791  -12.2204  -37.0701 H         1 UNK         0.0600 
    174 H174        1.2680  -12.5361  -38.4719 H         1 UNK         0.3000 
    175 H175        2.8842  -12.6096  -40.2354 H         1 UNK         0.0600 
    176 H176        3.3865  -15.4878  -39.2487 H         1 UNK         0.0600 
    177 H177        4.6515  -14.2926  -39.5266 H         1 UNK         0.0600 
    178 H178        3.4625  -14.0346  -38.2601 H         1 UNK         0.0600 
    179 H179        2.2779  -14.8892  -41.9301 H         1 UNK         0.3000 
    180 H180        4.1744  -13.5310  -44.5735 H         1 UNK         0.0600 
    181 H181        4.8742  -15.7838  -45.1160 H         1 UNK         0.0600 
    182 H182        4.3894  -16.4007  -43.5360 H         1 UNK         0.0600 
    183 H183        5.7377  -15.2844  -43.6746 H         1 UNK         0.0600 
    184 H184        2.1740  -14.0500  -45.2187 H         1 UNK         0.3000 
    185 H185       -0.1180  -16.5630  -44.7918 H         1 UNK         0.0600 
    186 H186       -0.9163  -15.4487  -42.7224 H         1 UNK         0.0600 
    187 H187       -0.5994  -13.8644  -43.4076 H         1 UNK         0.0600 
    188 H188       -1.8653  -14.8880  -44.0843 H         1 UNK         0.0600 
    189 H189       -0.0657  -13.7855  -45.8241 H         1 UNK         0.3000 
    190 H190       -1.0405  -19.2132  -46.5013 H         1 UNK         0.3000 
    191 H191       -3.6787  -18.1542  -46.9239 H         1 UNK         0.0600 
    192 H192       -3.5169  -17.6854  -44.4107 H         1 UNK         0.0600 
    193 H193       -2.2518  -16.9955  -45.4091 H         1 UNK         0.0600 
    194 H194       -1.9234  -18.4402  -44.4414 H         1 UNK         0.0600 
    195 H195       -2.4742  -21.0898  -45.2871 H         1 UNK         0.3000 
    196 H196       -5.0246  -21.9625  -44.2728 H         1 UNK         0.0600 
    197 H197       -2.4461  -23.5356  -44.8130 H         1 UNK         0.0600 
    198 H198       -2.8640  -22.7265  -43.3026 H         1 UNK         0.0600 
    199 H199       -3.8130  -24.0960  -43.8596 H         1 UNK         0.0600 
    200 H200       -3.2359  -22.4783  -47.2826 H         1 UNK         0.3000 
    201 H201       -5.1995  -24.2843  -48.4689 H         1 UNK         0.0600 
    202 H202       -2.6756  -22.9261  -49.5277 H         1 UNK         0.0600 
    203 H203       -3.6128  -24.1233  -50.4237 H         1 UNK         0.0600 
    204 H204       -2.8113  -24.5715  -48.9298 H         1 UNK         0.0600 
    205 H205       -5.6712  -21.2160  -47.7500 H         1 UNK         0.3000 
    206 H206       -7.0593  -19.6063  -48.3345 H         1 UNK         0.0600 
    207 H207       -8.6930  -21.4610  -48.6006 H         1 UNK         0.0600 
    208 H208       -9.0342  -20.1551  -49.7255 H         1 UNK         0.0600 
    209 H209       -8.2649  -21.6258  -50.3027 H         1 UNK         0.0600 
    210 H210       -4.8336  -18.8910  -49.1802 H         1 UNK         0.3000 
    211 H211       -3.5838  -17.6393  -50.5126 H         1 UNK         0.0600 
    212 H212       -4.5457  -16.2674  -52.3340 H         1 UNK         0.0600 
    213 H213       -5.5745  -16.1851  -50.9121 H         1 UNK         0.0600 
    214 H214       -6.0413  -17.1818  -52.2899 H         1 UNK         0.0600 
    215 H215       -3.5590  -20.3262  -50.6373 H         1 UNK         0.3000 
    216 H216       -2.9435  -22.1759  -51.6508 H         1 UNK         0.0600 
    217 H217       -1.5346  -20.4108  -53.6874 H         1 UNK         0.0600 
    218 H218       -1.1320  -22.0733  -53.2811 H         1 UNK         0.0600 
    219 H219       -0.9061  -20.8033  -52.0941 H         1 UNK         0.0600 
    220 H220       -5.5427  -20.9331  -52.6477 H         1 UNK         0.3000 
    221 H221       -5.9372  -21.6917  -55.3566 H         1 UNK         0.0600 
    222 H222       -7.4435  -20.1330  -54.1362 H         1 UNK         0.0600 
    223 H223       -7.9653  -21.4404  -53.0726 H         1 UNK         0.0600 
    224 H224       -8.3531  -21.4877  -54.7886 H         1 UNK         0.0600 
    225 H225       -6.1225  -23.5348  -52.3267 H         1 UNK         0.3000 
    226 H226       -7.3183  -25.9126  -53.3775 H         1 UNK         0.0600 
    227 H227       -5.4488  -25.5352  -50.9775 H         1 UNK         0.0600 
    228 H228       -7.2017  -25.3567  -50.9445 H         1 UNK         0.0600 
    229 H229       -6.4826  -26.9269  -51.2699 H         1 UNK         0.0600 
    230 H230       -4.1160  -24.6124  -53.7470 H         1 UNK         0.3000 
    231 H231       -3.0173  -27.1874  -54.8023 H         1 UNK         0.0600 
    232 H232       -1.5841  -24.6760  -53.7715 H         1 UNK         0.0600 
    233 H233       -0.8118  -26.1525  -54.3364 H         1 UNK         0.0600 
    234 H234       -1.7721  -26.1777  -52.8672 H         1 UNK         0.0600 
    235 H235       -4.6149  -24.5293  -55.8840 H         1 UNK         0.3000 
    236 H236       -4.7500  -23.2211  -57.6532 H         1 UNK         0.0600 
    237 H237       -5.0122  -25.4239  -58.8143 H         1 UNK         0.0600 
    238 H238       -4.3046  -24.2144  -59.8711 H         1 UNK         0.0600 
    239 H239       -3.2826  -25.4540  -59.1551 H         1 UNK         0.0600 
    240 H240       -2.5468  -22.6912  -55.9333 H         1 UNK         0.3000 
    241 H241       -0.7085  -21.5823  -55.6543 H         1 UNK         0.0600 
    242 H242        1.1953  -24.4358  -57.4217 H         1 UNK         0.3800 
    243 H243       -0.5057  -24.4118  -57.0367 H         1 UNK         0.3800 
    244 H244       -0.5376  -20.4111  -58.4446 H         1 UNK         0.0800 
    245 H245       -1.8986  -19.9850  -57.4567 H         1 UNK         0.0800 
    246 H246       -1.5582  -17.4490  -56.1487 H         1 UNK         0.0800 
    247 H247       -1.9532  -18.9238  -55.3110 H         1 UNK         0.0800 
@<TRIPOS>BOND
     1    1    2 1    
     2    1  127 1    
     3    1  128 1    
     4    1  129 1    
     5    2    3 2    
     6    2    4 am   BACKBONE|DICT|INTERRES
     7    4    5 1    
     8    4  130 1    
     9    5    6 1    
    10    5   65 1    
    11    5  131 1    
    12    6    7 1    
    13    6  132 1    
    14    6  133 1    
    15    7    8 1    
    16    8    9 1    
    17    8  134 1    
    18    8  135 1    
    19    9   10 ar   
    20    9   14 ar   
    21   10   11 ar   
    22   10  136 1    
    23   11   12 ar   
    24   11  126 1    
    25   12   13 ar   
    26   12  137 1    
    27   13   14 ar   
    28   13   15 1    
    29   14  138 1    
    30   15   16 1    
    31   15  139 1    
    32   15  140 1    
    33   16   17 1    
    34   17   18 1    
    35   17  141 1    
    36   17  142 1    
    37   18   19 1    
    38   18   67 1    
    39   18  143 1    
    40   19   20 am   BACKBONE|DICT|INTERRES
    41   19  144 1    
    42   20   21 2    
    43   20   22 1    
    44   22   23 1    
    45   22   24 1    
    46   22  145 1    
    47   23  146 1    
    48   23  147 1    
    49   23  148 1    
    50   24   25 am   BACKBONE|DICT|INTERRES
    51   24  149 1    
    52   25   26 2    
    53   25   27 1    
    54   27   28 1    
    55   27   29 1    
    56   27  150 1    
    57   28  151 1    
    58   28  152 1    
    59   28  153 1    
    60   29   30 am   BACKBONE|DICT|INTERRES
    61   29  154 1    
    62   30   31 2    
    63   30   32 1    
    64   32   33 1    
    65   32   34 1    
    66   32  155 1    
    67   33  156 1    
    68   33  157 1    
    69   33  158 1    
    70   34   35 am   BACKBONE|DICT|INTERRES
    71   34  159 1    
    72   35   36 2    
    73   35   37 1    
    74   37   38 1    
    75   37   39 1    
    76   37  160 1    
    77   38  161 1    
    78   38  162 1    
    79   38  163 1    
    80   39   40 am   BACKBONE|DICT|INTERRES
    81   39  164 1    
    82   40   41 2    
    83   40   42 1    
    84   42   43 1    
    85   42   44 1    
    86   42  165 1    
    87   43  166 1    
    88   43  167 1    
    89   43  168 1    
    90   44   45 am   BACKBONE|DICT|INTERRES
    91   44  169 1    
    92   45   46 2    
    93   45   47 1    
    94   47   48 1    
    95   47   49 1    
    96   47  170 1    
    97   48  171 1    
    98   48  172 1    
    99   48  173 1    
   100   49   50 am   BACKBONE|DICT|INTERRES
   101   49  174 1    
   102   50   51 2    
   103   50   52 1    
   104   52   53 1    
   105   52   54 1    
   106   52  175 1    
   107   53  176 1    
   108   53  177 1    
   109   53  178 1    
   110   54   55 am   BACKBONE|DICT|INTERRES
   111   54  179 1    
   112   55   56 2    
   113   55   57 1    
   114   57   58 1    
   115   57   59 1    
   116   57  180 1    
   117   58  181 1    
   118   58  182 1    
   119   58  183 1    
   120   59   60 am   BACKBONE|DICT|INTERRES
   121   59  184 1    
   122   60   61 2    
   123   60   62 1    
   124   62   63 1    
   125   62   64 1    
   126   62  185 1    
   127   63  186 1    
   128   63  187 1    
   129   63  188 1    
   130   64   65 am   BACKBONE|DICT|INTERRES
   131   64  189 1    
   132   65   66 2    
   133   67   68 2    
   134   67   69 am   BACKBONE|DICT|INTERRES
   135   69   70 1    
   136   69  190 1    
   137   70   71 1    
   138   70   72 1    
   139   70  191 1    
   140   71  192 1    
   141   71  193 1    
   142   71  194 1    
   143   72   73 2    
   144   72   74 am   BACKBONE|DICT|INTERRES
   145   74   75 1    
   146   74  195 1    
   147   75   76 1    
   148   75   77 1    
   149   75  196 1    
   150   76  197 1    
   151   76  198 1    
   152   76  199 1    
   153   77   78 2    
   154   77   79 am   BACKBONE|DICT|INTERRES
   155   79   80 1    
   156   79  200 1    
   157   80   81 1    
   158   80   82 1    
   159   80  201 1    
   160   81  202 1    
   161   81  203 1    
   162   81  204 1    
   163   82   83 2    
   164   82   84 am   BACKBONE|DICT|INTERRES
   165   84   85 1    
   166   84  205 1    
   167   85   86 1    
   168   85   87 1    
   169   85  206 1    
   170   86  207 1    
   171   86  208 1    
   172   86  209 1    
   173   87   88 2    
   174   87   89 am   BACKBONE|DICT|INTERRES
   175   89   90 1    
   176   89  210 1    
   177   90   91 1    
   178   90   92 1    
   179   90  211 1    
   180   91  212 1    
   181   91  213 1    
   182   91  214 1    
   183   92   93 2    
   184   92   94 am   BACKBONE|DICT|INTERRES
   185   94   95 1    
   186   94  215 1    
   187   95   96 1    
   188   95   97 1    
   189   95  216 1    
   190   96  217 1    
   191   96  218 1    
   192   96  219 1    
   193   97   98 2    
   194   97   99 am   BACKBONE|DICT|INTERRES
   195   99  100 1    
   196   99  220 1    
   197  100  101 1    
   198  100  102 1    
   199  100  221 1    
   200  101  222 1    
   201  101  223 1    
   202  101  224 1    
   203  102  103 2    
   204  102  104 am   BACKBONE|DICT|INTERRES
   205  104  105 1    
   206  104  225 1    
   207  105  106 1    
   208  105  107 1    
   209  105  226 1    
   210  106  227 1    
   211  106  228 1    
   212  106  229 1    
   213  107  108 2    
   214  107  109 am   BACKBONE|DICT|INTERRES
   215  109  110 1    
   216  109  230 1    
   217  110  111 1    
   218  110  112 1    
   219  110  231 1    
   220  111  232 1    
   221  111  233 1    
   222  111  234 1    
   223  112  113 2    
   224  112  114 am   BACKBONE|DICT|INTERRES
   225  114  115 1    
   226  114  235 1    
   227  115  116 1    
   228  115  117 1    
   229  115  236 1    
   230  116  237 1    
   231  116  238 1    
   232  116  239 1    
   233  117  118 2    
   234  117  119 am   BACKBONE|DICT|INTERRES
   235  119  120 1    
   236  119  240 1    
   237  120  121 1    
   238  120  124 1    
   239  120  241 1    
   240  121  122 am   BACKBONE|DICT|INTERRES
   241  121  123 2    
   242  122  242 1    
   243  122  243 1    
   244  124  125 1    
   245  124  244 1    
   246  124  245 1    
   247  125  126 1    
   248  126  246 1    
   249  126  247 1    
@<TRIPOS>SUBSTRUCTURE
     1 UNK         1 GROUP             0       ****    0 ROOT    
