@<TRIPOS>MOLECULE
3R540
247   249    1
SMALL
USER_CHARGES


@<TRIPOS>ATOM
      1 CA          1.4397  -13.8362  -52.1562 C.3       0 UNK        -0.1800 
      2 C           0.7495  -12.9715  -51.1032 C.2       0 UNK         0.5000 
      3 O           0.0198  -12.0496  -51.4610 O.2       0 UNK        -0.5000 
      4 N           0.9422  -13.2245  -49.8009 N.am      1 UNK        -0.5000 
      5 CA          1.8024  -14.2697  -49.2260 C.3       1 UNK         0.1400 
      6 C6          1.3434  -14.6750  -47.7984 C.3       23 UNK        -0.0398 
      7 S7         -0.3955  -15.1989  -47.5767 S.3       23 UNK        -0.2404 
      8 C8         -0.8575  -16.0097  -49.1476 C.3       23 UNK        -0.0205 
      9 C9         -0.0255  -17.2314  -49.5357 C.ar      23 UNK        -0.0193 
     10 C10         0.0862  -17.5529  -50.8903 C.ar      23 UNK        -0.1150 
     11 C11         0.8094  -18.6730  -51.3060 C.ar      23 UNK        -0.0193 
     12 C12         1.4317  -19.4822  -50.3513 C.ar      23 UNK        -0.1150 
     13 C13         1.3355  -19.1739  -48.9906 C.ar      23 UNK        -0.0193 
     14 C14         0.6035  -18.0514  -48.5896 C.ar      23 UNK        -0.1150 
     15 C15         2.0237  -20.0534  -47.9569 C.3       23 UNK        -0.0205 
     16 S16         0.9768  -21.4600  -47.4775 S.3       23 UNK        -0.2404 
     17 C17         2.1054  -22.3827  -46.3805 C.3       23 UNK        -0.0398 
     18 CA          1.4239  -23.2614  -45.3001 C.3       11 UNK         0.1400 
     19 N           0.9555  -22.4748  -44.1525 N.am      11 UNK        -0.5000 
     20 C           0.8450  -22.9650  -42.9081 C.2       10 UNK         0.5000 
     21 O           1.1185  -24.1275  -42.6061 O.2       10 UNK        -0.5000 
     22 CA          0.3488  -22.0048  -41.8117 C.3       10 UNK         0.1400 
     23 CB          1.4509  -21.0148  -41.4047 C.3       10 UNK        -0.1800 
     24 N          -0.8515  -21.2716  -42.2056 N.am      10 UNK        -0.5000 
     25 C          -2.0620  -21.8244  -42.3669 C.2       9 UNK         0.5000 
     26 O          -2.3077  -23.0134  -42.1640 O.2       9 UNK        -0.5000 
     27 CA         -3.1857  -20.8941  -42.8574 C.3       9 UNK         0.1400 
     28 CB         -3.8629  -20.1740  -41.6817 C.3       9 UNK        -0.1800 
     29 N          -2.7019  -19.9083  -43.8224 N.am      9 UNK        -0.5000 
     30 C          -2.3027  -20.2094  -45.0654 C.2       8 UNK         0.5000 
     31 O          -2.3609  -21.3389  -45.5464 O.2       8 UNK        -0.5000 
     32 CA         -1.7086  -19.0605  -45.8932 C.3       8 UNK         0.1400 
     33 CB         -2.8310  -18.2485  -46.5557 C.3       8 UNK        -0.1800 
     34 N          -0.8598  -18.1798  -45.0864 N.am      8 UNK        -0.5000 
     35 C           0.3084  -18.5559  -44.5404 C.2       7 UNK         0.5000 
     36 O           0.7971  -19.6753  -44.6781 O.2       7 UNK        -0.5000 
     37 CA          1.0361  -17.5391  -43.6425 C.3       7 UNK         0.1400 
     38 CB          1.9888  -16.6723  -44.4765 C.3       7 UNK        -0.1800 
     39 N           0.1209  -16.6841  -42.8878 N.am      7 UNK        -0.5000 
     40 C          -0.7646  -17.1334  -41.9842 C.2       6 UNK         0.5000 
     41 O          -0.8432  -18.3150  -41.6466 O.2       6 UNK        -0.5000 
     42 CA         -1.7621  -16.1165  -41.3904 C.3       6 UNK         0.1400 
     43 CB         -1.2959  -15.6595  -40.0004 C.3       6 UNK        -0.1800 
     44 N          -1.9771  -14.9363  -42.2304 N.am      6 UNK        -0.5000 
     45 C          -2.4462  -14.9473  -43.4865 C.2       5 UNK         0.5000 
     46 O          -2.8435  -15.9650  -44.0539 O.2       5 UNK        -0.5000 
     47 CA         -2.4104  -13.6115  -44.2579 C.3       5 UNK         0.1400 
     48 CB         -3.8018  -12.9611  -44.2653 C.3       5 UNK        -0.1800 
     49 N          -1.4280  -12.6364  -43.7620 N.am      5 UNK        -0.5000 
     50 C          -0.1055  -12.8390  -43.6781 C.2       4 UNK         0.5000 
     51 O           0.4367  -13.9186  -43.9239 O.2       4 UNK        -0.5000 
     52 CA          0.7442  -11.6518  -43.1814 C.3       4 UNK         0.1400 
     53 CB          0.7774  -11.6305  -41.6449 C.3       4 UNK        -0.1800 
     54 N           2.1196  -11.7172  -43.6816 N.am      4 UNK        -0.5000 
     55 C           2.4558  -11.6229  -44.9736 C.2       3 UNK         0.5000 
     56 O           1.6511  -11.3346  -45.8675 O.2       3 UNK        -0.5000 
     57 CA          3.9234  -11.9197  -45.3346 C.3       3 UNK         0.1400 
     58 CB          4.3210  -13.3490  -44.9058 C.3       3 UNK        -0.1800 
     59 N           4.0302  -11.7800  -46.7802 N.am      3 UNK        -0.5000 
     60 C           5.1121  -11.8464  -47.5628 C.2       2 UNK         0.5000 
     61 O           6.2666  -11.9286  -47.1403 O.2       2 UNK        -0.5000 
     62 CA          4.8180  -11.8402  -49.0818 C.3       2 UNK         0.1400 
     63 CB          5.9888  -12.3694  -49.9367 C.3       2 UNK        -0.1800 
     64 N           3.5604  -12.5419  -49.3893 N.am      2 UNK        -0.5000 
     65 C           3.2860  -13.8396  -49.1657 C.2       1 UNK         0.5000 
     66 O           4.1354  -14.6782  -48.8658 O.2       1 UNK        -0.5000 
     67 C           0.3370  -24.2169  -45.8506 C.2       11 UNK         0.5000 
     68 O           0.6816  -25.2404  -46.4451 O.2       11 UNK        -0.5000 
     69 N          -0.9413  -23.8863  -45.6054 N.am      12 UNK        -0.5000 
     70 CA         -2.1504  -24.6782  -45.8321 C.3       12 UNK         0.1400 
     71 CB         -2.2199  -25.8417  -44.8206 C.3       12 UNK        -0.1800 
     72 C          -2.3097  -25.1255  -47.2958 C.2       12 UNK         0.5000 
     73 O          -2.7773  -24.3402  -48.1231 O.2       12 UNK        -0.5000 
     74 N          -1.9292  -26.3751  -47.5947 N.am      13 UNK        -0.5000 
     75 CA         -1.9996  -27.0047  -48.9149 C.3       13 UNK         0.1400 
     76 CB         -1.5210  -28.4593  -48.8050 C.3       13 UNK        -0.1800 
     77 C          -1.2065  -26.2563  -50.0018 C.2       13 UNK         0.5000 
     78 O          -1.6411  -26.2298  -51.1532 O.2       13 UNK        -0.5000 
     79 N          -0.0980  -25.6110  -49.6116 N.am      14 UNK        -0.5000 
     80 CA          0.7175  -24.7655  -50.4880 C.3       14 UNK         0.1400 
     81 CB          2.0481  -24.4566  -49.7916 C.3       14 UNK        -0.1800 
     82 C           0.0086  -23.4668  -50.9278 C.2       14 UNK         0.5000 
     83 O           0.3677  -22.9142  -51.9667 O.2       14 UNK        -0.5000 
     84 N          -1.0043  -23.0361  -50.1633 N.am      15 UNK        -0.5000 
     85 CA         -1.9047  -21.9306  -50.4855 C.3       15 UNK         0.1400 
     86 CB         -2.0818  -21.0351  -49.2463 C.3       15 UNK        -0.1800 
     87 C          -3.2554  -22.4394  -51.0236 C.2       15 UNK         0.5000 
     88 O          -4.2408  -21.7054  -50.9595 O.2       15 UNK        -0.5000 
     89 N          -3.3033  -23.6835  -51.5246 N.am      16 UNK        -0.5000 
     90 CA         -4.4895  -24.3633  -52.0569 C.3       16 UNK         0.1400 
     91 CB         -4.9767  -23.6763  -53.3505 C.3       16 UNK        -0.1800 
     92 C          -5.5966  -24.5135  -50.9920 C.2       16 UNK         0.5000 
     93 O          -6.7526  -24.1708  -51.2418 O.2       16 UNK        -0.5000 
     94 N          -5.1923  -24.9985  -49.8089 N.am      17 UNK        -0.5000 
     95 CA         -5.9882  -25.1481  -48.5857 C.3       17 UNK         0.1400 
     96 CB         -7.1910  -26.0927  -48.7945 C.3       17 UNK        -0.1800 
     97 C          -6.3671  -23.7793  -47.9866 C.2       17 UNK         0.5000 
     98 O          -7.5292  -23.5418  -47.6539 O.2       17 UNK        -0.5000 
     99 N          -5.3545  -22.9066  -47.8704 N.am      18 UNK        -0.5000 
    100 CA        -5.3990  -21.5521  -47.3040 C.3       18 UNK         0.1400 
    101 CB        -5.7450  -21.6033  -45.8017 C.3       18 UNK        -0.1800 
    102 C         -6.2865  -20.5536  -48.0812 C.2       18 UNK         0.5000 
    103 O         -6.6689  -19.5212  -47.5286 O.2       18 UNK        -0.5000 
    104 N         -6.5854  -20.8577  -49.3502 N.am      19 UNK        -0.5000 
    105 CA        -7.3626  -20.0078  -50.2531 C.3       19 UNK         0.1400 
    106 CB        -7.9701  -20.8908  -51.3543 C.3       19 UNK        -0.1800 
    107 C         -6.5197  -18.8832  -50.8841 C.2       19 UNK         0.5000 
    108 O         -7.0806  -17.8678  -51.2963 O.2       19 UNK        -0.5000 
    109 N         -5.2009  -19.1099  -50.9778 N.am      20 UNK        -0.5000 
    110 CA        -4.1865  -18.3112  -51.6742 C.3       20 UNK         0.1400 
    111 CB        -4.0993  -16.8794  -51.1088 C.3       20 UNK        -0.1800 
    112 C         -4.3462  -18.3504  -53.2096 C.2       20 UNK         0.5000 
    113 O         -3.8268  -17.4777  -53.9070 O.2       20 UNK        -0.5000 
    114 N         -5.0266  -19.3864  -53.7216 N.am      21 UNK        -0.5000 
    115 CA        -5.2484  -19.6546  -55.1444 C.3       21 UNK         0.1400 
    116 CB        -6.5807  -20.4099  -55.3011 C.3       21 UNK        -0.1800 
    117 C         -4.0501  -20.4139  -55.7517 C.2       21 UNK         0.5000 
    118 O         -4.2112  -21.4980  -56.3150 O.2       21 UNK        -0.5000 
    119 N         -2.8573  -19.8434  -55.5681 N.am      22 UNK        -0.5000 
    120 CA        -1.5572  -20.4164  -55.9367 C.3       22 UNK         0.1400 
    121 C         -1.3113  -20.4184  -57.4701 C.2       22 UNK         0.5000 
    122 N         -0.5919  -21.4056  -57.9865 N.am      22 UNK        -0.7600 
    123 O         -1.7296  -19.5145  -58.1911 O.2       22 UNK        -0.5000 
    124 C124       -0.4038  -19.6962  -55.1924 C.3       23 UNK        -0.0398 
    125 S125       -0.6663  -19.6865  -53.3876 S.3       23 UNK        -0.2404 
    126 C126        0.9028  -18.9999  -52.7879 C.3       23 UNK        -0.0205 
    127 H127        1.2184  -13.4670  -53.1580 H         1 UNK         0.0600 
    128 H128        2.5223  -13.8218  -52.0304 H         1 UNK         0.0600 
    129 H129        1.0913  -14.8674  -52.0989 H         1 UNK         0.0600 
    130 H130        0.4479  -12.6599  -49.1241 H         1 UNK         0.3000 
    131 H131        1.7649  -15.1583  -49.8562 H         1 UNK         0.0600 
    132 H132        1.5114  -13.8550  -47.0980 H         1 UNK         0.0800 
    133 H133        1.9628  -15.4990  -47.4400 H         1 UNK         0.0800 
    134 H134       -0.8387  -15.2697  -49.9470 H         1 UNK         0.0800 
    135 H135       -1.8968  -16.3252  -49.0702 H         1 UNK         0.0800 
    136 H136       -0.4046  -16.9370  -51.6310 H         1 UNK         0.1150 
    137 H137        1.9836  -20.3573  -50.6649 H         1 UNK         0.1150 
    138 H138        0.5228  -17.8246  -47.5374 H         1 UNK         0.1150 
    139 H139        2.9675  -20.4249  -48.3585 H         1 UNK         0.0800 
    140 H140        2.2717  -19.4687  -47.0698 H         1 UNK         0.0800 
    141 H141        2.7501  -23.0033  -47.0024 H         1 UNK         0.0800 
    142 H142        2.7775  -21.6744  -45.8938 H         1 UNK         0.0800 
    143 H143        2.2141  -23.9156  -44.9247 H         1 UNK         0.0600 
    144 H144        0.7518  -21.4926  -44.3301 H         1 UNK         0.3000 
    145 H145        0.0990  -22.6032  -40.9330 H         1 UNK         0.0600 
    146 H146        1.1105  -20.3474  -40.6127 H         1 UNK         0.0600 
    147 H147        2.3287  -21.5435  -41.0312 H         1 UNK         0.0600 
    148 H148        1.7739  -20.4006  -42.2444 H         1 UNK         0.0600 
    149 H149       -0.7550  -20.2709  -42.3361 H         1 UNK         0.3000 
    150 H150       -3.9368  -21.5146  -43.3489 H         1 UNK         0.0600 
    151 H151       -4.2705  -20.8925  -40.9695 H         1 UNK         0.0600 
    152 H152       -4.6898  -19.5517  -42.0243 H         1 UNK         0.0600 
    153 H153       -3.1653  -19.5363  -41.1387 H         1 UNK         0.0600 
    154 H154       -2.5923  -18.9594  -43.4950 H         1 UNK         0.3000 
    155 H155       -1.0931  -19.4969  -46.6806 H         1 UNK         0.0600 
    156 H156       -3.5449  -17.8695  -45.8238 H         1 UNK         0.0600 
    157 H157       -3.3866  -18.8592  -47.2677 H         1 UNK         0.0600 
    158 H158       -2.4326  -17.3958  -47.1002 H         1 UNK         0.0600 
    159 H159       -1.2251  -17.2570  -44.8854 H         1 UNK         0.3000 
    160 H160        1.6339  -18.0997  -42.9219 H         1 UNK         0.0600 
    161 H161        2.5693  -16.0013  -43.8433 H         1 UNK         0.0600 
    162 H162        1.4413  -16.0630  -45.1943 H         1 UNK         0.0600 
    163 H163        2.6941  -17.2880  -45.0362 H         1 UNK         0.0600 
    164 H164        0.1260  -15.6978  -43.1326 H         1 UNK         0.3000 
    165 H165       -2.7211  -16.6272  -41.2829 H         1 UNK         0.0600 
    166 H166       -2.0334  -15.0086  -39.5304 H         1 UNK         0.0600 
    167 H167       -1.1486  -16.5131  -39.3373 H         1 UNK         0.0600 
    168 H168       -0.3512  -15.1165  -40.0520 H         1 UNK         0.0600 
    169 H169       -1.6672  -14.0533  -41.8533 H         1 UNK         0.3000 
    170 H170       -2.1397  -13.8485  -45.2888 H         1 UNK         0.0600 
    171 H171       -4.5533  -13.6493  -44.6549 H         1 UNK         0.0600 
    172 H172       -4.1135  -12.6676  -43.2622 H         1 UNK         0.0600 
    173 H173       -3.8196  -12.0730  -44.8975 H         1 UNK         0.0600 
    174 H174       -1.7940  -11.7274  -43.5175 H         1 UNK         0.3000 
    175 H175        0.2931  -10.7238  -43.5392 H         1 UNK         0.0600 
    176 H176        1.2205  -12.5414  -41.2394 H         1 UNK         0.0600 
    177 H177        1.3539  -10.7827  -41.2740 H         1 UNK         0.0600 
    178 H178       -0.2279  -11.5424  -41.2308 H         1 UNK         0.0600 
    179 H179        2.8258  -11.9829  -43.0114 H         1 UNK         0.3000 
    180 H180        4.5662  -11.1824  -44.8506 H         1 UNK         0.0600 
    181 H181        3.6804  -14.0980  -45.3737 H         1 UNK         0.0600 
    182 H182        4.2429  -13.4792  -43.8262 H         1 UNK         0.0600 
    183 H183        5.3515  -13.5784  -45.1762 H         1 UNK         0.0600 
    184 H184        3.1231  -11.6439  -47.2111 H         1 UNK         0.3000 
    185 H185        4.6603  -10.7960  -49.3554 H         1 UNK         0.0600 
    186 H186        6.8703  -11.7382  -49.8195 H         1 UNK         0.0600 
    187 H187        6.2771  -13.3823  -49.6550 H         1 UNK         0.0600 
    188 H188        5.7323  -12.3749  -50.9961 H         1 UNK         0.0600 
    189 H189        2.7853  -11.9471  -49.6491 H         1 UNK         0.3000 
    190 H190       -1.1196  -22.9627  -45.2267 H         1 UNK         0.3000 
    191 H191       -2.9929  -24.0166  -45.6256 H         1 UNK         0.0600 
    192 H192       -1.3579  -26.5058  -44.8902 H         1 UNK         0.0600 
    193 H193       -3.1184  -26.4418  -44.9706 H         1 UNK         0.0600 
    194 H194       -2.2554  -25.4610  -43.7995 H         1 UNK         0.0600 
    195 H195       -1.5191  -26.9295  -46.8570 H         1 UNK         0.3000 
    196 H196       -3.0475  -27.0147  -49.2202 H         1 UNK         0.0600 
    197 H197       -1.5816  -28.9650  -49.7697 H         1 UNK         0.0600 
    198 H198       -2.1351  -29.0252  -48.1042 H         1 UNK         0.0600 
    199 H199       -0.4853  -28.5174  -48.4678 H         1 UNK         0.0600 
    200 H200        0.1742  -25.6580  -48.6366 H         1 UNK         0.3000 
    201 H201        0.9373  -25.3337  -51.3944 H         1 UNK         0.0600 
    202 H202        2.6108  -25.3682  -49.5906 H         1 UNK         0.0600 
    203 H203        1.8817  -23.9503  -48.8444 H         1 UNK         0.0600 
    204 H204        2.6768  -23.8114  -50.4066 H         1 UNK         0.0600 
    205 H205       -1.2572  -23.5708  -49.3408 H         1 UNK         0.3000 
    206 H206       -1.4757  -21.3144  -51.2728 H         1 UNK         0.0600 
    207 H207       -2.8665  -20.2905  -49.3781 H         1 UNK         0.0600 
    208 H208       -1.1702  -20.4773  -49.0484 H         1 UNK         0.0600 
    209 H209       -2.3157  -21.6187  -48.3565 H         1 UNK         0.0600 
    210 H210       -2.4566  -24.2388  -51.5107 H         1 UNK         0.3000 
    211 H211       -4.1756  -25.3745  -52.3195 H         1 UNK         0.0600 
    212 H212       -5.3475  -22.6696  -53.1611 H         1 UNK         0.0600 
    213 H213       -5.7880  -24.2407  -53.8112 H         1 UNK         0.0600 
    214 H214       -4.1747  -23.6024  -54.0850 H         1 UNK         0.0600 
    215 H215       -4.2003  -25.1518  -49.6903 H         1 UNK         0.3000 
    216 H216       -5.3342  -25.6258  -47.8551 H         1 UNK         0.0600 
    217 H217       -7.6806  -26.3102  -47.8447 H         1 UNK         0.0600 
    218 H218       -6.8755  -27.0442  -49.2221 H         1 UNK         0.0600 
    219 H219       -7.9441  -25.6607  -49.4536 H         1 UNK         0.0600 
    220 H220       -4.4347  -23.2233  -48.1614 H         1 UNK         0.3000 
    221 H221       -4.3848  -21.1649  -47.3861 H         1 UNK         0.0600 
    222 H222       -6.7859  -21.8807  -45.6340 H         1 UNK         0.0600 
    223 H223       -5.1166  -22.3251  -45.2807 H         1 UNK         0.0600 
    224 H224       -5.5837  -20.6335  -45.3294 H         1 UNK         0.0600 
    225 H225       -6.1945  -21.7024  -49.7473 H         1 UNK         0.3000 
    226 H226       -8.1787  -19.5444  -49.6949 H         1 UNK         0.0600 
    227 H227       -8.6131  -21.6624  -50.9302 H         1 UNK         0.0600 
    228 H228       -8.5779  -20.3006  -52.0412 H         1 UNK         0.0600 
    229 H229       -7.1982  -21.3889  -51.9424 H         1 UNK         0.0600 
    230 H230       -4.8789  -20.0296  -50.6825 H         1 UNK         0.3000 
    231 H231       -3.2333  -18.7991  -51.4645 H         1 UNK         0.0600 
    232 H232       -4.0463  -16.8889  -50.0203 H         1 UNK         0.0600 
    233 H233       -4.9594  -16.2751  -51.3976 H         1 UNK         0.0600 
    234 H234       -3.2069  -16.3710  -51.4756 H         1 UNK         0.0600 
    235 H235       -5.3660  -20.0852  -53.0775 H         1 UNK         0.3000 
    236 H236       -5.3387  -18.7074  -55.6803 H         1 UNK         0.0600 
    237 H237       -6.8074  -20.5876  -56.3531 H         1 UNK         0.0600 
    238 H238       -6.5601  -21.3785  -54.8013 H         1 UNK         0.0600 
    239 H239       -7.4091  -19.8368  -54.8841 H         1 UNK         0.0600 
    240 H240       -2.8299  -18.9488  -55.0944 H         1 UNK         0.3000 
    241 H241       -1.5654  -21.4570  -55.6050 H         1 UNK         0.0600 
    242 H242       -0.4118  -21.4126  -58.9788 H         1 UNK         0.3800 
    243 H243       -0.2320  -22.1551  -57.4155 H         1 UNK         0.3800 
    244 H244        0.5492  -20.1854  -55.4014 H         1 UNK         0.0800 
    245 H245       -0.3085  -18.6641  -55.5346 H         1 UNK         0.0800 
    246 H246        1.1459  -18.0943  -53.3456 H         1 UNK         0.0800 
    247 H247        1.7058  -19.7135  -52.9783 H         1 UNK         0.0800 
@<TRIPOS>BOND
     1    1    2 1    
     2    1  127 1    
     3    1  128 1    
     4    1  129 1    
     5    2    3 2    
     6    2    4 am   BACKBONE|DICT|INTERRES
     7    4    5 1    
     8    4  130 1    
     9    5    6 1    
    10    5   65 1    
    11    5  131 1    
    12    6    7 1    
    13    6  132 1    
    14    6  133 1    
    15    7    8 1    
    16    8    9 1    
    17    8  134 1    
    18    8  135 1    
    19    9   10 ar   
    20    9   14 ar   
    21   10   11 ar   
    22   10  136 1    
    23   11   12 ar   
    24   11  126 1    
    25   12   13 ar   
    26   12  137 1    
    27   13   14 ar   
    28   13   15 1    
    29   14  138 1    
    30   15   16 1    
    31   15  139 1    
    32   15  140 1    
    33   16   17 1    
    34   17   18 1    
    35   17  141 1    
    36   17  142 1    
    37   18   19 1    
    38   18   67 1    
    39   18  143 1    
    40   19   20 am   BACKBONE|DICT|INTERRES
    41   19  144 1    
    42   20   21 2    
    43   20   22 1    
    44   22   23 1    
    45   22   24 1    
    46   22  145 1    
    47   23  146 1    
    48   23  147 1    
    49   23  148 1    
    50   24   25 am   BACKBONE|DICT|INTERRES
    51   24  149 1    
    52   25   26 2    
    53   25   27 1    
    54   27   28 1    
    55   27   29 1    
    56   27  150 1    
    57   28  151 1    
    58   28  152 1    
    59   28  153 1    
    60   29   30 am   BACKBONE|DICT|INTERRES
    61   29  154 1    
    62   30   31 2    
    63   30   32 1    
    64   32   33 1    
    65   32   34 1    
    66   32  155 1    
    67   33  156 1    
    68   33  157 1    
    69   33  158 1    
    70   34   35 am   BACKBONE|DICT|INTERRES
    71   34  159 1    
    72   35   36 2    
    73   35   37 1    
    74   37   38 1    
    75   37   39 1    
    76   37  160 1    
    77   38  161 1    
    78   38  162 1    
    79   38  163 1    
    80   39   40 am   BACKBONE|DICT|INTERRES
    81   39  164 1    
    82   40   41 2    
    83   40   42 1    
    84   42   43 1    
    85   42   44 1    
    86   42  165 1    
    87   43  166 1    
    88   43  167 1    
    89   43  168 1    
    90   44   45 am   BACKBONE|DICT|INTERRES
    91   44  169 1    
    92   45   46 2    
    93   45   47 1    
    94   47   48 1    
    95   47   49 1    
    96   47  170 1    
    97   48  171 1    
    98   48  172 1    
    99   48  173 1    
   100   49   50 am   BACKBONE|DICT|INTERRES
   101   49  174 1    
   102   50   51 2    
   103   50   52 1    
   104   52   53 1    
   105   52   54 1    
   106   52  175 1    
   107   53  176 1    
   108   53  177 1    
   109   53  178 1    
   110   54   55 am   BACKBONE|DICT|INTERRES
   111   54  179 1    
   112   55   56 2    
   113   55   57 1    
   114   57   58 1    
   115   57   59 1    
   116   57  180 1    
   117   58  181 1    
   118   58  182 1    
   119   58  183 1    
   120   59   60 am   BACKBONE|DICT|INTERRES
   121   59  184 1    
   122   60   61 2    
   123   60   62 1    
   124   62   63 1    
   125   62   64 1    
   126   62  185 1    
   127   63  186 1    
   128   63  187 1    
   129   63  188 1    
   130   64   65 am   BACKBONE|DICT|INTERRES
   131   64  189 1    
   132   65   66 2    
   133   67   68 2    
   134   67   69 am   BACKBONE|DICT|INTERRES
   135   69   70 1    
   136   69  190 1    
   137   70   71 1    
   138   70   72 1    
   139   70  191 1    
   140   71  192 1    
   141   71  193 1    
   142   71  194 1    
   143   72   73 2    
   144   72   74 am   BACKBONE|DICT|INTERRES
   145   74   75 1    
   146   74  195 1    
   147   75   76 1    
   148   75   77 1    
   149   75  196 1    
   150   76  197 1    
   151   76  198 1    
   152   76  199 1    
   153   77   78 2    
   154   77   79 am   BACKBONE|DICT|INTERRES
   155   79   80 1    
   156   79  200 1    
   157   80   81 1    
   158   80   82 1    
   159   80  201 1    
   160   81  202 1    
   161   81  203 1    
   162   81  204 1    
   163   82   83 2    
   164   82   84 am   BACKBONE|DICT|INTERRES
   165   84   85 1    
   166   84  205 1    
   167   85   86 1    
   168   85   87 1    
   169   85  206 1    
   170   86  207 1    
   171   86  208 1    
   172   86  209 1    
   173   87   88 2    
   174   87   89 am   BACKBONE|DICT|INTERRES
   175   89   90 1    
   176   89  210 1    
   177   90   91 1    
   178   90   92 1    
   179   90  211 1    
   180   91  212 1    
   181   91  213 1    
   182   91  214 1    
   183   92   93 2    
   184   92   94 am   BACKBONE|DICT|INTERRES
   185   94   95 1    
   186   94  215 1    
   187   95   96 1    
   188   95   97 1    
   189   95  216 1    
   190   96  217 1    
   191   96  218 1    
   192   96  219 1    
   193   97   98 2    
   194   97   99 am   BACKBONE|DICT|INTERRES
   195   99  100 1    
   196   99  220 1    
   197  100  101 1    
   198  100  102 1    
   199  100  221 1    
   200  101  222 1    
   201  101  223 1    
   202  101  224 1    
   203  102  103 2    
   204  102  104 am   BACKBONE|DICT|INTERRES
   205  104  105 1    
   206  104  225 1    
   207  105  106 1    
   208  105  107 1    
   209  105  226 1    
   210  106  227 1    
   211  106  228 1    
   212  106  229 1    
   213  107  108 2    
   214  107  109 am   BACKBONE|DICT|INTERRES
   215  109  110 1    
   216  109  230 1    
   217  110  111 1    
   218  110  112 1    
   219  110  231 1    
   220  111  232 1    
   221  111  233 1    
   222  111  234 1    
   223  112  113 2    
   224  112  114 am   BACKBONE|DICT|INTERRES
   225  114  115 1    
   226  114  235 1    
   227  115  116 1    
   228  115  117 1    
   229  115  236 1    
   230  116  237 1    
   231  116  238 1    
   232  116  239 1    
   233  117  118 2    
   234  117  119 am   BACKBONE|DICT|INTERRES
   235  119  120 1    
   236  119  240 1    
   237  120  121 1    
   238  120  124 1    
   239  120  241 1    
   240  121  122 am   BACKBONE|DICT|INTERRES
   241  121  123 2    
   242  122  242 1    
   243  122  243 1    
   244  124  125 1    
   245  124  244 1    
   246  124  245 1    
   247  125  126 1    
   248  126  246 1    
   249  126  247 1    
@<TRIPOS>SUBSTRUCTURE
     1 UNK         1 GROUP             0       ****    0 ROOT    
