@<TRIPOS>MOLECULE
3R540
247   249    1
SMALL
USER_CHARGES


@<TRIPOS>ATOM
      1 CA          4.3233  -19.5359  -41.0259 C.3       0 UNK        -0.1800 
      2 C           3.1342  -19.8041  -41.9367 C.2       0 UNK         0.5000 
      3 O           2.3609  -18.8905  -42.2141 O.2       0 UNK        -0.5000 
      4 N           2.9715  -21.0567  -42.3863 N.am      1 UNK        -0.5000 
      5 CA          1.8862  -21.5789  -43.2360 C.3       1 UNK         0.1400 
      6 C6          1.7383  -20.8202  -44.5832 C.3       23 UNK        -0.0398 
      7 S7          1.0448  -21.8570  -45.9154 S.3       23 UNK        -0.2404 
      8 C8          2.5460  -22.4150  -46.7877 C.3       23 UNK        -0.0205 
      9 C9          2.6105  -21.8777  -48.2107 C.ar      23 UNK        -0.0193 
     10 C10         2.4109  -22.7335  -49.2982 C.ar      23 UNK        -0.1150 
     11 C11         2.4660  -22.2455  -50.6068 C.ar      23 UNK        -0.0193 
     12 C12         2.7539  -20.8966  -50.8250 C.ar      23 UNK        -0.1150 
     13 C13         2.9374  -20.0224  -49.7475 C.ar      23 UNK        -0.0193 
     14 C14         2.8724  -20.5250  -48.4439 C.ar      23 UNK        -0.1150 
     15 C15         3.1996  -18.5333  -49.9615 C.3       23 UNK        -0.0205 
     16 S16         2.2657  -17.7844  -51.3423 S.3       23 UNK        -0.2404 
     17 C17         0.5308  -18.2503  -50.9940 C.3       23 UNK        -0.0398 
     18 CA          0.0537  -18.0343  -49.5306 C.3       11 UNK         0.1400 
     19 N           0.2931  -16.6773  -49.0125 N.am      11 UNK        -0.5000 
     20 C          -0.1104  -15.5088  -49.5315 C.2       10 UNK         0.5000 
     21 O          -0.8110  -15.4135  -50.5384 O.2       10 UNK        -0.5000 
     22 CA          0.2959  -14.2289  -48.7779 C.3       10 UNK         0.1400 
     23 CB         -0.8035  -13.8218  -47.7846 C.3       10 UNK        -0.1800 
     24 N           1.5693  -14.3428  -48.0641 N.am      10 UNK        -0.5000 
     25 C           2.7705  -14.3255  -48.6606 C.2       9 UNK         0.5000 
     26 O           2.9281  -14.2631  -49.8799 O.2       9 UNK        -0.5000 
     27 CA          4.0030  -14.3698  -47.7432 C.3       9 UNK         0.1400 
     28 CB          4.2714  -12.9868  -47.1283 C.3       9 UNK        -0.1800 
     29 N           3.8250  -15.3467  -46.6719 N.am      9 UNK        -0.5000 
     30 C           4.3167  -16.5928  -46.6907 C.2       8 UNK         0.5000 
     31 O           5.0372  -17.0305  -47.5876 O.2       8 UNK        -0.5000 
     32 CA          3.9464  -17.5156  -45.5127 C.3       8 UNK         0.1400 
     33 CB          5.0879  -17.5432  -44.4872 C.3       8 UNK        -0.1800 
     34 N           2.6947  -17.1407  -44.8494 N.am      8 UNK        -0.5000 
     35 C           1.4844  -17.2242  -45.4228 C.2       7 UNK         0.5000 
     36 O           1.3025  -17.7074  -46.5379 O.2       7 UNK        -0.5000 
     37 CA          0.2795  -16.6148  -44.6769 C.3       7 UNK         0.1400 
     38 CB         -0.5537  -17.6978  -43.9797 C.3       7 UNK        -0.1800 
     39 N           0.6452  -15.5770  -43.7130 N.am      7 UNK        -0.5000 
     40 C           1.2570  -14.4246  -44.0290 C.2       6 UNK         0.5000 
     41 O           1.5166  -14.0966  -45.1881 O.2       6 UNK        -0.5000 
     42 CA          1.7065  -13.5110  -42.8702 C.3       6 UNK         0.1400 
     43 CB          0.7044  -12.3637  -42.6773 C.3       6 UNK        -0.1800 
     44 N           1.8766  -14.2145  -41.5969 N.am      6 UNK        -0.5000 
     45 C           2.7259  -15.2279  -41.3722 C.2       5 UNK         0.5000 
     46 O           3.5532  -15.6126  -42.1982 O.2       5 UNK        -0.5000 
     47 CA          2.6033  -15.9629  -40.0209 C.3       5 UNK         0.1400 
     48 CB          3.7639  -15.5785  -39.0913 C.3       5 UNK        -0.1800 
     49 N           1.3339  -15.7536  -39.3116 N.am      5 UNK        -0.5000 
     50 C           0.1213  -16.0841  -39.7760 C.2       4 UNK         0.5000 
     51 O          -0.0834  -16.5346  -40.9046 O.2       4 UNK        -0.5000 
     52 CA         -1.0598  -15.8984  -38.8103 C.3       4 UNK         0.1400 
     53 CB         -2.2690  -15.2576  -39.5123 C.3       4 UNK        -0.1800 
     54 N          -1.4395  -17.2113  -38.3051 N.am      4 UNK        -0.5000 
     55 C          -0.8422  -17.8375  -37.2824 C.2       3 UNK         0.5000 
     56 O          -0.0485  -17.2937  -36.5134 O.2       3 UNK        -0.5000 
     57 CA         -1.1523  -19.3407  -37.1280 C.3       3 UNK         0.1400 
     58 CB         -2.3784  -19.5528  -36.2271 C.3       3 UNK        -0.1800 
     59 N          -1.3750  -20.0064  -38.4172 N.am      3 UNK        -0.5000 
     60 C          -0.4441  -20.1314  -39.3743 C.2       2 UNK         0.5000 
     61 O           0.7318  -19.7857  -39.2277 O.2       2 UNK        -0.5000 
     62 CA         -0.9164  -20.7178  -40.7157 C.3       2 UNK         0.1400 
     63 CB         -2.0505  -19.8780  -41.3298 C.3       2 UNK        -0.1800 
     64 N           0.2093  -20.7390  -41.6410 N.am      2 UNK        -0.5000 
     65 C           0.5383  -21.7195  -42.4853 C.2       1 UNK         0.5000 
     66 O          -0.1484  -22.7285  -42.6514 O.2       1 UNK        -0.5000 
     67 C          -1.3969  -18.5354  -49.3593 C.2       11 UNK         0.5000 
     68 O          -1.6414  -19.7237  -49.5697 O.2       11 UNK        -0.5000 
     69 N          -2.3292  -17.6498  -48.9780 N.am      12 UNK        -0.5000 
     70 CA         -3.7820  -17.8466  -48.9701 C.3       12 UNK         0.1400 
     71 CB         -4.4523  -16.5754  -48.4291 C.3       12 UNK        -0.1800 
     72 C          -4.2862  -19.0824  -48.2043 C.2       12 UNK         0.5000 
     73 O          -5.2998  -19.6564  -48.6037 O.2       12 UNK        -0.5000 
     74 N          -3.5691  -19.4734  -47.1431 N.am      13 UNK        -0.5000 
     75 CA         -3.8705  -20.6422  -46.3167 C.3       13 UNK         0.1400 
     76 CB         -2.9871  -20.6081  -45.0612 C.3       13 UNK        -0.1800 
     77 C          -3.6951  -21.9778  -47.0634 C.2       13 UNK         0.5000 
     78 O          -4.5043  -22.8864  -46.8745 O.2       13 UNK        -0.5000 
     79 N          -2.6548  -22.0677  -47.9013 N.am      14 UNK        -0.5000 
     80 CA         -2.3543  -23.2435  -48.7187 C.3       14 UNK         0.1400 
     81 CB         -0.8348  -23.3838  -48.8566 C.3       14 UNK        -0.1800 
     82 C          -3.0083  -23.1463  -50.1046 C.2       14 UNK         0.5000 
     83 O          -3.4684  -24.1578  -50.6333 O.2       14 UNK        -0.5000 
     84 N          -3.0580  -21.9255  -50.6533 N.am      15 UNK        -0.5000 
     85 CA         -3.6325  -21.6028  -51.9572 C.3       15 UNK         0.1400 
     86 CB         -3.0978  -20.2266  -52.3876 C.3       15 UNK        -0.1800 
     87 C          -5.1735  -21.6126  -51.9836 C.2       15 UNK         0.5000 
     88 O          -5.7481  -21.4569  -53.0615 O.2       15 UNK        -0.5000 
     89 N          -5.8149  -21.7367  -50.8115 N.am      16 UNK        -0.5000 
     90 CA         -7.2643  -21.7156  -50.5843 C.3       16 UNK         0.1400 
     91 CB         -7.9258  -22.9670  -51.1997 C.3       16 UNK        -0.1800 
     92 C          -7.8952  -20.3982  -51.0761 C.2       16 UNK         0.5000 
     93 O          -8.8509  -20.4161  -51.8511 O.2       16 UNK        -0.5000 
     94 N          -7.2846  -19.2735  -50.6744 N.am      17 UNK        -0.5000 
     95 CA         -7.5829  -17.9065  -51.1257 C.3       17 UNK         0.1400 
     96 CB         -8.9524  -17.4420  -50.5890 C.3       17 UNK        -0.1800 
     97 C          -7.4418  -17.7344  -52.6577 C.2       17 UNK         0.5000 
     98 O          -8.2134  -17.0005  -53.2764 O.2       17 UNK        -0.5000 
     99 N          -6.4537  -18.4397  -53.2281 N.am      18 UNK        -0.5000 
    100 CA        -6.0989  -18.5381  -54.6484 C.3       18 UNK         0.1400 
    101 CB        -5.7952  -17.1551  -55.2612 C.3       18 UNK        -0.1800 
    102 C         -7.0792  -19.3705  -55.5020 C.2       18 UNK         0.5000 
    103 O         -6.9566  -19.3611  -56.7280 O.2       18 UNK        -0.5000 
    104 N         -8.0000  -20.1136  -54.8692 N.am      19 UNK        -0.5000 
    105 CA        -8.9022  -21.0471  -55.5509 C.3       19 UNK         0.1400 
    106 CB       -10.0976  -21.3671  -54.6414 C.3       19 UNK        -0.1800 
    107 C         -8.2016  -22.3497  -55.9876 C.2       19 UNK         0.5000 
    108 O         -8.6759  -23.0046  -56.9169 O.2       19 UNK        -0.5000 
    109 N         -7.0957  -22.7031  -55.3220 N.am      20 UNK        -0.5000 
    110 CA        -6.2860  -23.8888  -55.5856 C.3       20 UNK         0.1400 
    111 CB        -6.7635  -25.0456  -54.6872 C.3       20 UNK        -0.1800 
    112 C         -4.8087  -23.5225  -55.3748 C.2       20 UNK         0.5000 
    113 O         -4.1300  -24.1314  -54.5466 O.2       20 UNK        -0.5000 
    114 N         -4.3648  -22.4780  -56.0893 N.am      21 UNK        -0.5000 
    115 CA        -3.0498  -21.8478  -55.9687 C.3       21 UNK         0.1400 
    116 CB        -2.9567  -20.6806  -56.9631 C.3       21 UNK        -0.1800 
    117 C         -1.8722  -22.8260  -56.1440 C.2       21 UNK         0.5000 
    118 O         -1.7759  -23.4924  -57.1768 O.2       21 UNK        -0.5000 
    119 N         -1.0075  -22.8805  -55.1257 N.am      22 UNK        -0.5000 
    120 CA         0.1770  -23.7497  -55.0488 C.3       22 UNK         0.1400 
    121 C          1.4827  -23.1170  -55.6147 C.2       22 UNK         0.5000 
    122 N          1.4759  -21.8725  -56.0772 N.am      22 UNK        -0.7600 
    123 O          2.5193  -23.7743  -55.6525 O.2       22 UNK        -0.5000 
    124 C124        0.3650  -24.3092  -53.6131 C.3       23 UNK        -0.0398 
    125 S125        0.4503  -23.0275  -52.3112 S.3       23 UNK        -0.2404 
    126 C126        2.1873  -23.1650  -51.7850 C.3       23 UNK        -0.0205 
    127 H127        4.8112  -18.6014  -41.3032 H         1 UNK         0.0600 
    128 H128        5.0623  -20.3356  -41.0802 H         1 UNK         0.0600 
    129 H129        3.9855  -19.4475  -39.9932 H         1 UNK         0.0600 
    130 H130        3.6359  -21.7570  -42.0870 H         1 UNK         0.3000 
    131 H131        2.2070  -22.5958  -43.4689 H         1 UNK         0.0600 
    132 H132        2.7029  -20.4317  -44.9091 H         1 UNK         0.0800 
    133 H133        1.1027  -19.9451  -44.4637 H         1 UNK         0.0800 
    134 H134        2.5485  -23.5059  -46.7956 H         1 UNK         0.0800 
    135 H135        3.4469  -22.1211  -46.2482 H         1 UNK         0.0800 
    136 H136        2.1899  -23.7776  -49.1267 H         1 UNK         0.1150 
    137 H137        2.7999  -20.5238  -51.8384 H         1 UNK         0.1150 
    138 H138        3.0091  -19.8596  -47.6043 H         1 UNK         0.1150 
    139 H139        2.9635  -17.9749  -49.0553 H         1 UNK         0.0800 
    140 H140        4.2656  -18.3886  -50.1394 H         1 UNK         0.0800 
    141 H141        0.4161  -19.2994  -51.2731 H         1 UNK         0.0800 
    142 H142       -0.1033  -17.6954  -51.6868 H         1 UNK         0.0800 
    143 H143        0.6366  -18.6945  -48.8905 H         1 UNK         0.0600 
    144 H144        0.8297  -16.6633  -48.1517 H         1 UNK         0.3000 
    145 H145        0.3905  -13.4308  -49.5174 H         1 UNK         0.0600 
    146 H146       -0.5541  -12.8868  -47.2823 H         1 UNK         0.0600 
    147 H147       -1.7559  -13.6720  -48.2950 H         1 UNK         0.0600 
    148 H148       -0.9586  -14.5803  -47.0184 H         1 UNK         0.0600 
    149 H149        1.5259  -14.3329  -47.0486 H         1 UNK         0.3000 
    150 H150        4.8674  -14.6338  -48.3562 H         1 UNK         0.0600 
    151 H151        4.4204  -12.2371  -47.9063 H         1 UNK         0.0600 
    152 H152        5.1710  -12.9993  -46.5127 H         1 UNK         0.0600 
    153 H153        3.4437  -12.6504  -46.5030 H         1 UNK         0.0600 
    154 H154        3.2158  -15.0734  -45.9106 H         1 UNK         0.3000 
    155 H155        3.8290  -18.5240  -45.9108 H         1 UNK         0.0600 
    156 H156        5.2561  -16.5609  -44.0450 H         1 UNK         0.0600 
    157 H157        6.0234  -17.8574  -44.9519 H         1 UNK         0.0600 
    158 H158        4.8777  -18.2442  -43.6827 H         1 UNK         0.0600 
    159 H159        2.7734  -16.7545  -43.9151 H         1 UNK         0.3000 
    160 H160       -0.3558  -16.1499  -45.4314 H         1 UNK         0.0600 
    161 H161       -1.4669  -17.2800  -43.5557 H         1 UNK         0.0600 
    162 H162        0.0008  -18.1706  -43.1698 H         1 UNK         0.0600 
    163 H163       -0.8481  -18.4783  -44.6812 H         1 UNK         0.0600 
    164 H164        0.4780  -15.7968  -42.7356 H         1 UNK         0.3000 
    165 H165        2.6725  -13.0846  -43.1479 H         1 UNK         0.0600 
    166 H166        1.0495  -11.6608  -41.9188 H         1 UNK         0.0600 
    167 H167        0.5714  -11.8014  -43.6027 H         1 UNK         0.0600 
    168 H168       -0.2760  -12.7332  -42.3736 H         1 UNK         0.0600 
    169 H169        1.2335  -13.9708  -40.8587 H         1 UNK         0.3000 
    170 H170        2.6793  -17.0306  -40.2341 H         1 UNK         0.0600 
    171 H171        4.7264  -15.7563  -39.5732 H         1 UNK         0.0600 
    172 H172        3.7244  -14.5244  -38.8142 H         1 UNK         0.0600 
    173 H173        3.7484  -16.1695  -38.1753 H         1 UNK         0.0600 
    174 H174        1.4081  -15.4115  -38.3641 H         1 UNK         0.3000 
    175 H175       -0.7606  -15.2491  -37.9847 H         1 UNK         0.0600 
    176 H176       -2.6368  -15.8727  -40.3348 H         1 UNK         0.0600 
    177 H177       -3.0929  -15.1069  -38.8147 H         1 UNK         0.0600 
    178 H178       -2.0078  -14.2818  -39.9236 H         1 UNK         0.0600 
    179 H179       -2.0466  -17.7544  -38.9005 H         1 UNK         0.3000 
    180 H180       -0.2898  -19.8096  -36.6497 H         1 UNK         0.0600 
    181 H181       -3.2802  -19.1227  -36.6647 H         1 UNK         0.0600 
    182 H182       -2.2314  -19.0853  -35.2525 H         1 UNK         0.0600 
    183 H183       -2.5615  -20.6133  -36.0529 H         1 UNK         0.0600 
    184 H184       -2.3132  -20.3331  -38.5981 H         1 UNK         0.3000 
    185 H185       -1.2703  -21.7338  -40.5300 H         1 UNK         0.0600 
    186 H186       -2.9481  -19.9024  -40.7118 H         1 UNK         0.0600 
    187 H187       -1.7582  -18.8339  -41.4483 H         1 UNK         0.0600 
    188 H188       -2.3284  -20.2606  -42.3099 H         1 UNK         0.0600 
    189 H189        0.8615  -19.9654  -41.5358 H         1 UNK         0.3000 
    190 H190       -2.0164  -16.7010  -48.8383 H         1 UNK         0.3000 
    191 H191       -4.0921  -17.9685  -50.0088 H         1 UNK         0.0600 
    192 H192       -5.5388  -16.6746  -48.4236 H         1 UNK         0.0600 
    193 H193       -4.2105  -15.7087  -49.0449 H         1 UNK         0.0600 
    194 H194       -4.1373  -16.3595  -47.4074 H         1 UNK         0.0600 
    195 H195       -2.7445  -18.9439  -46.9042 H         1 UNK         0.3000 
    196 H196       -4.9140  -20.5714  -46.0021 H         1 UNK         0.0600 
    197 H197       -3.2134  -21.4470  -44.4017 H         1 UNK         0.0600 
    198 H198       -3.1513  -19.6927  -44.4928 H         1 UNK         0.0600 
    199 H199       -1.9265  -20.6660  -45.3100 H         1 UNK         0.0600 
    200 H200       -2.0703  -21.2541  -48.0461 H         1 UNK         0.3000 
    201 H201       -2.7313  -24.1450  -48.2311 H         1 UNK         0.0600 
    202 H202       -0.3692  -23.5764  -47.8910 H         1 UNK         0.0600 
    203 H203       -0.3898  -22.4788  -49.2724 H         1 UNK         0.0600 
    204 H204       -0.5721  -24.2135  -49.5140 H         1 UNK         0.0600 
    205 H205       -2.6073  -21.1555  -50.1638 H         1 UNK         0.3000 
    206 H206       -3.2894  -22.3494  -52.6751 H         1 UNK         0.0600 
    207 H207       -2.0088  -20.2278  -52.4440 H         1 UNK         0.0600 
    208 H208       -3.4719  -19.9341  -53.3665 H         1 UNK         0.0600 
    209 H209       -3.3943  -19.4466  -51.6881 H         1 UNK         0.0600 
    210 H210       -5.2461  -21.7907  -49.9783 H         1 UNK         0.3000 
    211 H211       -7.4146  -21.7517  -49.5043 H         1 UNK         0.0600 
    212 H212       -7.4608  -23.8805  -50.8293 H         1 UNK         0.0600 
    213 H213       -7.8534  -22.9730  -52.2877 H         1 UNK         0.0600 
    214 H214       -8.9849  -23.0134  -50.9440 H         1 UNK         0.0600 
    215 H215       -6.5238  -19.3717  -50.0057 H         1 UNK         0.3000 
    216 H216       -6.8216  -17.2651  -50.6797 H         1 UNK         0.0600 
    217 H217       -9.1196  -16.3862  -50.8046 H         1 UNK         0.0600 
    218 H218       -9.0132  -17.5645  -49.5076 H         1 UNK         0.0600 
    219 H219       -9.7745  -18.0010  -51.0369 H         1 UNK         0.0600 
    220 H220       -5.9353  -19.0612  -52.6249 H         1 UNK         0.3000 
    221 H221       -5.1666  -19.1013  -54.6733 H         1 UNK         0.0600 
    222 H222       -6.6970  -16.5541  -55.3782 H         1 UNK         0.0600 
    223 H223       -5.0933  -16.5946  -54.6437 H         1 UNK         0.0600 
    224 H224       -5.3448  -17.2566  -56.2493 H         1 UNK         0.0600 
    225 H225       -8.0486  -20.0922  -53.8571 H         1 UNK         0.3000 
    226 H226       -9.2875  -20.5599  -56.4492 H         1 UNK         0.0600 
    227 H227      -10.8460  -21.9531  -55.1762 H         1 UNK         0.0600 
    228 H228       -9.7952  -21.9469  -53.7690 H         1 UNK         0.0600 
    229 H229      -10.5851  -20.4575  -54.2900 H         1 UNK         0.0600 
    230 H230       -6.7528  -22.1058  -54.5722 H         1 UNK         0.3000 
    231 H231       -6.3908  -24.1924  -56.6293 H         1 UNK         0.0600 
    232 H232       -7.8091  -25.2876  -54.8779 H         1 UNK         0.0600 
    233 H233       -6.6647  -24.7977  -53.6296 H         1 UNK         0.0600 
    234 H234       -6.1815  -25.9494  -54.8708 H         1 UNK         0.0600 
    235 H235       -5.0027  -22.0502  -56.7444 H         1 UNK         0.3000 
    236 H236       -2.9956  -21.4308  -54.9652 H         1 UNK         0.0600 
    237 H237       -1.9980  -20.1678  -56.8764 H         1 UNK         0.0600 
    238 H238       -3.0539  -21.0234  -57.9940 H         1 UNK         0.0600 
    239 H239       -3.7371  -19.9412  -56.7805 H         1 UNK         0.0600 
    240 H240       -1.1564  -22.3010  -54.3128 H         1 UNK         0.3000 
    241 H241       -0.0050  -24.6152  -55.6887 H         1 UNK         0.0600 
    242 H242        0.6330  -21.3227  -56.0599 H         1 UNK         0.3800 
    243 H243        2.3257  -21.4771  -56.4479 H         1 UNK         0.3800 
    244 H244       -0.4825  -24.9524  -53.3722 H         1 UNK         0.0800 
    245 H245        1.2403  -24.9588  -53.5603 H         1 UNK         0.0800 
    246 H246        2.4071  -24.1989  -51.5143 H         1 UNK         0.0800 
    247 H247        2.8430  -22.9138  -52.6202 H         1 UNK         0.0800 
@<TRIPOS>BOND
     1    1    2 1    
     2    1  127 1    
     3    1  128 1    
     4    1  129 1    
     5    2    3 2    
     6    2    4 am   BACKBONE|DICT|INTERRES
     7    4    5 1    
     8    4  130 1    
     9    5    6 1    
    10    5   65 1    
    11    5  131 1    
    12    6    7 1    
    13    6  132 1    
    14    6  133 1    
    15    7    8 1    
    16    8    9 1    
    17    8  134 1    
    18    8  135 1    
    19    9   10 ar   
    20    9   14 ar   
    21   10   11 ar   
    22   10  136 1    
    23   11   12 ar   
    24   11  126 1    
    25   12   13 ar   
    26   12  137 1    
    27   13   14 ar   
    28   13   15 1    
    29   14  138 1    
    30   15   16 1    
    31   15  139 1    
    32   15  140 1    
    33   16   17 1    
    34   17   18 1    
    35   17  141 1    
    36   17  142 1    
    37   18   19 1    
    38   18   67 1    
    39   18  143 1    
    40   19   20 am   BACKBONE|DICT|INTERRES
    41   19  144 1    
    42   20   21 2    
    43   20   22 1    
    44   22   23 1    
    45   22   24 1    
    46   22  145 1    
    47   23  146 1    
    48   23  147 1    
    49   23  148 1    
    50   24   25 am   BACKBONE|DICT|INTERRES
    51   24  149 1    
    52   25   26 2    
    53   25   27 1    
    54   27   28 1    
    55   27   29 1    
    56   27  150 1    
    57   28  151 1    
    58   28  152 1    
    59   28  153 1    
    60   29   30 am   BACKBONE|DICT|INTERRES
    61   29  154 1    
    62   30   31 2    
    63   30   32 1    
    64   32   33 1    
    65   32   34 1    
    66   32  155 1    
    67   33  156 1    
    68   33  157 1    
    69   33  158 1    
    70   34   35 am   BACKBONE|DICT|INTERRES
    71   34  159 1    
    72   35   36 2    
    73   35   37 1    
    74   37   38 1    
    75   37   39 1    
    76   37  160 1    
    77   38  161 1    
    78   38  162 1    
    79   38  163 1    
    80   39   40 am   BACKBONE|DICT|INTERRES
    81   39  164 1    
    82   40   41 2    
    83   40   42 1    
    84   42   43 1    
    85   42   44 1    
    86   42  165 1    
    87   43  166 1    
    88   43  167 1    
    89   43  168 1    
    90   44   45 am   BACKBONE|DICT|INTERRES
    91   44  169 1    
    92   45   46 2    
    93   45   47 1    
    94   47   48 1    
    95   47   49 1    
    96   47  170 1    
    97   48  171 1    
    98   48  172 1    
    99   48  173 1    
   100   49   50 am   BACKBONE|DICT|INTERRES
   101   49  174 1    
   102   50   51 2    
   103   50   52 1    
   104   52   53 1    
   105   52   54 1    
   106   52  175 1    
   107   53  176 1    
   108   53  177 1    
   109   53  178 1    
   110   54   55 am   BACKBONE|DICT|INTERRES
   111   54  179 1    
   112   55   56 2    
   113   55   57 1    
   114   57   58 1    
   115   57   59 1    
   116   57  180 1    
   117   58  181 1    
   118   58  182 1    
   119   58  183 1    
   120   59   60 am   BACKBONE|DICT|INTERRES
   121   59  184 1    
   122   60   61 2    
   123   60   62 1    
   124   62   63 1    
   125   62   64 1    
   126   62  185 1    
   127   63  186 1    
   128   63  187 1    
   129   63  188 1    
   130   64   65 am   BACKBONE|DICT|INTERRES
   131   64  189 1    
   132   65   66 2    
   133   67   68 2    
   134   67   69 am   BACKBONE|DICT|INTERRES
   135   69   70 1    
   136   69  190 1    
   137   70   71 1    
   138   70   72 1    
   139   70  191 1    
   140   71  192 1    
   141   71  193 1    
   142   71  194 1    
   143   72   73 2    
   144   72   74 am   BACKBONE|DICT|INTERRES
   145   74   75 1    
   146   74  195 1    
   147   75   76 1    
   148   75   77 1    
   149   75  196 1    
   150   76  197 1    
   151   76  198 1    
   152   76  199 1    
   153   77   78 2    
   154   77   79 am   BACKBONE|DICT|INTERRES
   155   79   80 1    
   156   79  200 1    
   157   80   81 1    
   158   80   82 1    
   159   80  201 1    
   160   81  202 1    
   161   81  203 1    
   162   81  204 1    
   163   82   83 2    
   164   82   84 am   BACKBONE|DICT|INTERRES
   165   84   85 1    
   166   84  205 1    
   167   85   86 1    
   168   85   87 1    
   169   85  206 1    
   170   86  207 1    
   171   86  208 1    
   172   86  209 1    
   173   87   88 2    
   174   87   89 am   BACKBONE|DICT|INTERRES
   175   89   90 1    
   176   89  210 1    
   177   90   91 1    
   178   90   92 1    
   179   90  211 1    
   180   91  212 1    
   181   91  213 1    
   182   91  214 1    
   183   92   93 2    
   184   92   94 am   BACKBONE|DICT|INTERRES
   185   94   95 1    
   186   94  215 1    
   187   95   96 1    
   188   95   97 1    
   189   95  216 1    
   190   96  217 1    
   191   96  218 1    
   192   96  219 1    
   193   97   98 2    
   194   97   99 am   BACKBONE|DICT|INTERRES
   195   99  100 1    
   196   99  220 1    
   197  100  101 1    
   198  100  102 1    
   199  100  221 1    
   200  101  222 1    
   201  101  223 1    
   202  101  224 1    
   203  102  103 2    
   204  102  104 am   BACKBONE|DICT|INTERRES
   205  104  105 1    
   206  104  225 1    
   207  105  106 1    
   208  105  107 1    
   209  105  226 1    
   210  106  227 1    
   211  106  228 1    
   212  106  229 1    
   213  107  108 2    
   214  107  109 am   BACKBONE|DICT|INTERRES
   215  109  110 1    
   216  109  230 1    
   217  110  111 1    
   218  110  112 1    
   219  110  231 1    
   220  111  232 1    
   221  111  233 1    
   222  111  234 1    
   223  112  113 2    
   224  112  114 am   BACKBONE|DICT|INTERRES
   225  114  115 1    
   226  114  235 1    
   227  115  116 1    
   228  115  117 1    
   229  115  236 1    
   230  116  237 1    
   231  116  238 1    
   232  116  239 1    
   233  117  118 2    
   234  117  119 am   BACKBONE|DICT|INTERRES
   235  119  120 1    
   236  119  240 1    
   237  120  121 1    
   238  120  124 1    
   239  120  241 1    
   240  121  122 am   BACKBONE|DICT|INTERRES
   241  121  123 2    
   242  122  242 1    
   243  122  243 1    
   244  124  125 1    
   245  124  244 1    
   246  124  245 1    
   247  125  126 1    
   248  126  246 1    
   249  126  247 1    
@<TRIPOS>SUBSTRUCTURE
     1 UNK         1 GROUP             0       ****    0 ROOT    
