@<TRIPOS>MOLECULE
3R540
247   249    1
SMALL
USER_CHARGES


@<TRIPOS>ATOM
      1 CA         -5.2900  -15.7826  -46.5875 C.3       0 UNK        -0.1800 
      2 C          -4.0321  -14.9301  -46.6695 C.2       0 UNK         0.5000 
      3 O          -3.6565  -14.3068  -45.6771 O.2       0 UNK        -0.5000 
      4 N          -3.3564  -14.9222  -47.8274 N.am      1 UNK        -0.5000 
      5 CA         -2.0880  -14.2114  -48.0447 C.3       1 UNK         0.1400 
      6 C6         -1.7190  -14.0842  -49.5477 C.3       23 UNK        -0.0398 
      7 S7         -1.4502  -15.6732  -50.4154 S.3       23 UNK        -0.2404 
      8 C8          0.3722  -15.7374  -50.4915 C.3       23 UNK        -0.0205 
      9 C9          0.8960  -17.1361  -50.7974 C.ar      23 UNK        -0.0193 
     10 C10         0.5117  -17.7921  -51.9699 C.ar      23 UNK        -0.1150 
     11 C11         0.9910  -19.0718  -52.2610 C.ar      23 UNK        -0.0193 
     12 C12         1.8919  -19.6855  -51.3860 C.ar      23 UNK        -0.1150 
     13 C13         2.2962  -19.0402  -50.2118 C.ar      23 UNK        -0.0193 
     14 C14         1.7856  -17.7690  -49.9211 C.ar      23 UNK        -0.1150 
     15 C15         3.3104  -19.6900  -49.2707 C.3       23 UNK        -0.0205 
     16 S16         2.9160  -21.4170  -48.8240 S.3       23 UNK        -0.2404 
     17 C17         1.3218  -21.1822  -47.9864 C.3       23 UNK        -0.0398 
     18 CA          0.6187  -22.5116  -47.6367 C.3       11 UNK         0.1400 
     19 N           1.2675  -23.2151  -46.5300 N.am      11 UNK        -0.5000 
     20 C           1.1316  -24.5244  -46.2829 C.2       10 UNK         0.5000 
     21 O           0.5009  -25.2951  -47.0061 O.2       10 UNK        -0.5000 
     22 CA          1.7877  -25.0580  -44.9946 C.3       10 UNK         0.1400 
     23 CB          3.2535  -25.4368  -45.2537 C.3       10 UNK        -0.1800 
     24 N           1.7249  -24.1097  -43.8796 N.am      10 UNK        -0.5000 
     25 C           0.5920  -23.7170  -43.2804 C.2       9 UNK         0.5000 
     26 O          -0.5240  -24.1286  -43.5945 O.2       9 UNK        -0.5000 
     27 CA          0.7189  -22.6485  -42.1771 C.3       9 UNK         0.1400 
     28 CB          0.9977  -23.3093  -40.8194 C.3       9 UNK        -0.1800 
     29 N           1.7328  -21.6190  -42.4290 N.am      9 UNK        -0.5000 
     30 C           1.8318  -20.8635  -43.5302 C.2       8 UNK         0.5000 
     31 O           1.1080  -20.9989  -44.5175 O.2       8 UNK        -0.5000 
     32 CA          2.9022  -19.7593  -43.4988 C.3       8 UNK         0.1400 
     33 CB          3.2903  -19.2619  -44.9030 C.3       8 UNK        -0.1800 
     34 N           2.4340  -18.6257  -42.7072 N.am      8 UNK        -0.5000 
     35 C           2.4654  -18.5427  -41.3714 C.2       7 UNK         0.5000 
     36 O           2.8947  -19.4438  -40.6470 O.2       7 UNK        -0.5000 
     37 CA          1.9392  -17.2241  -40.7595 C.3       7 UNK         0.1400 
     38 CB          2.3178  -17.0542  -39.2741 C.3       7 UNK        -0.1800 
     39 N           2.3333  -16.0362  -41.5273 N.am      7 UNK        -0.5000 
     40 C           3.5785  -15.6485  -41.8453 C.2       6 UNK         0.5000 
     41 O           4.6021  -16.2336  -41.4887 O.2       6 UNK        -0.5000 
     42 CA          3.7011  -14.3810  -42.7106 C.3       6 UNK         0.1400 
     43 CB          3.5899  -14.7275  -44.2039 C.3       6 UNK        -0.1800 
     44 N           2.7125  -13.3540  -42.3800 N.am      6 UNK        -0.5000 
     45 C           2.6695  -12.6624  -41.2352 C.2       5 UNK         0.5000 
     46 O           3.4643  -12.8337  -40.3101 O.2       5 UNK        -0.5000 
     47 CA          1.5700  -11.5904  -41.0841 C.3       5 UNK         0.1400 
     48 CB          2.0469  -10.2345  -41.6390 C.3       5 UNK        -0.1800 
     49 N           0.2492  -11.9477  -41.6225 N.am      5 UNK        -0.5000 
     50 C          -0.1259  -12.1551  -42.8920 C.2       4 UNK         0.5000 
     51 O           0.6463  -12.1421  -43.8520 O.2       4 UNK        -0.5000 
     52 CA         -1.6220  -12.4447  -43.1162 C.3       4 UNK         0.1400 
     53 CB         -2.1716  -11.6480  -44.3111 C.3       4 UNK        -0.1800 
     54 N          -1.8824  -13.8656  -43.3352 N.am      4 UNK        -0.5000 
     55 C          -1.6682  -14.8493  -42.4502 C.2       3 UNK         0.5000 
     56 O          -1.2217  -14.6739  -41.3163 O.2       3 UNK        -0.5000 
     57 CA         -2.0043  -16.2755  -42.9157 C.3       3 UNK         0.1400 
     58 CB         -3.5060  -16.5632  -42.7675 C.3       3 UNK        -0.1800 
     59 N          -1.6023  -16.5047  -44.3010 N.am      3 UNK        -0.5000 
     60 C          -0.3402  -16.7230  -44.6908 C.2       2 UNK         0.5000 
     61 O           0.6158  -16.7791  -43.9186 O.2       2 UNK        -0.5000 
     62 CA         -0.1089  -16.9354  -46.1941 C.3       2 UNK         0.1400 
     63 CB         -0.3000  -18.4104  -46.5461 C.3       2 UNK        -0.1800 
     64 N          -1.0189  -16.1561  -47.0223 N.am      2 UNK        -0.5000 
     65 C          -0.9421  -14.8343  -47.2201 C.2       1 UNK         0.5000 
     66 O          -0.0438  -14.1209  -46.7757 O.2       1 UNK        -0.5000 
     67 C          -0.8659  -22.2653  -47.3169 C.2       11 UNK         0.5000 
     68 O          -1.7108  -22.4604  -48.1896 O.2       11 UNK        -0.5000 
     69 N          -1.1736  -21.8659  -46.0743 N.am      12 UNK        -0.5000 
     70 CA         -2.5407  -21.6296  -45.6020 C.3       12 UNK         0.1400 
     71 CB         -2.5051  -21.0589  -44.1775 C.3       12 UNK        -0.1800 
     72 C          -3.4206  -22.8935  -45.6820 C.2       12 UNK         0.5000 
     73 O          -4.5644  -22.8112  -46.1303 O.2       12 UNK        -0.5000 
     74 N          -2.8415  -24.0515  -45.3329 N.am      13 UNK        -0.5000 
     75 CA         -3.4428  -25.3792  -45.4880 C.3       13 UNK         0.1400 
     76 CB         -2.5581  -26.4149  -44.7778 C.3       13 UNK        -0.1800 
     77 C          -3.6754  -25.7923  -46.9571 C.2       13 UNK         0.5000 
     78 O          -4.5541  -26.6140  -47.2187 O.2       13 UNK        -0.5000 
     79 N          -2.9110  -25.2043  -47.8873 N.am      14 UNK        -0.5000 
     80 CA         -3.0465  -25.3779  -49.3348 C.3       14 UNK         0.1400 
     81 CB         -1.6486  -25.3452  -49.9774 C.3       14 UNK        -0.1800 
     82 C          -3.9849  -24.3287  -49.9705 C.2       14 UNK         0.5000 
     83 O          -4.0532  -24.2560  -51.1964 O.2       14 UNK        -0.5000 
     84 N          -4.6939  -23.5469  -49.1406 N.am      15 UNK        -0.5000 
     85 CA         -5.6648  -22.5116  -49.5044 C.3       15 UNK         0.1400 
     86 CB         -6.8685  -23.1123  -50.2618 C.3       15 UNK        -0.1800 
     87 C          -5.0282  -21.3082  -50.2276 C.2       15 UNK         0.5000 
     88 O          -5.6001  -20.7846  -51.1868 O.2       15 UNK        -0.5000 
     89 N          -3.8605  -20.8690  -49.7385 N.am      16 UNK        -0.5000 
     90 CA         -3.1657  -19.6599  -50.1788 C.3       16 UNK         0.1400 
     91 CB         -1.7356  -19.6725  -49.6327 C.3       16 UNK        -0.1800 
     92 C          -3.9079  -18.3697  -49.7784 C.2       16 UNK         0.5000 
     93 O          -3.5193  -17.6899  -48.8263 O.2       16 UNK        -0.5000 
     94 N          -4.9580  -18.0535  -50.5381 N.am      17 UNK        -0.5000 
     95 CA         -5.6944  -16.7923  -50.5181 C.3       17 UNK         0.1400 
     96 CB         -7.1396  -17.0614  -50.0627 C.3       17 UNK        -0.1800 
     97 C          -5.6064  -16.1485  -51.9139 C.2       17 UNK         0.5000 
     98 O          -6.6207  -15.7233  -52.4682 O.2       17 UNK        -0.5000 
     99 N          -4.3847  -16.1438  -52.4729 N.am      18 UNK        -0.5000 
    100 CA        -4.0213  -15.7247  -53.8344 C.3       18 UNK         0.1400 
    101 CB        -4.2670  -14.2146  -54.0326 C.3       18 UNK        -0.1800 
    102 C         -4.6665  -16.5933  -54.9407 C.2       18 UNK         0.5000 
    103 O         -4.8328  -16.1339  -56.0722 O.2       18 UNK        -0.5000 
    104 N         -5.0114  -17.8385  -54.5913 N.am      19 UNK        -0.5000 
    105 CA        -5.5643  -18.8542  -55.4827 C.3       19 UNK         0.1400 
    106 CB        -6.4276  -19.8091  -54.6398 C.3       19 UNK        -0.1800 
    107 C         -4.4435  -19.6331  -56.1939 C.2       19 UNK         0.5000 
    108 O         -3.2767  -19.5334  -55.8125 O.2       19 UNK        -0.5000 
    109 N         -4.8231  -20.4386  -57.1930 N.am      20 UNK        -0.5000 
    110 CA        -3.9187  -21.3604  -57.8885 C.3       20 UNK         0.1400 
    111 CB        -4.5496  -21.7545  -59.2330 C.3       20 UNK        -0.1800 
    112 C         -3.5861  -22.6213  -57.0620 C.2       20 UNK         0.5000 
    113 O         -2.5861  -23.2824  -57.3451 O.2       20 UNK        -0.5000 
    114 N         -4.4285  -22.9343  -56.0649 N.am      21 UNK        -0.5000 
    115 CA        -4.3795  -24.1355  -55.2241 C.3       21 UNK         0.1400 
    116 CB        -5.5570  -24.0925  -54.2375 C.3       21 UNK        -0.1800 
    117 C         -3.0523  -24.3468  -54.4689 C.2       21 UNK         0.5000 
    118 O         -2.6396  -25.4923  -54.2807 O.2       21 UNK        -0.5000 
    119 N         -2.4006  -23.2452  -54.0811 N.am      22 UNK        -0.5000 
    120 CA        -1.0797  -23.2315  -53.4368 C.3       22 UNK         0.1400 
    121 C          0.1231  -23.4195  -54.4100 C.2       22 UNK         0.5000 
    122 N         -0.0734  -23.4952  -55.7219 N.am      22 UNK        -0.7600 
    123 O          1.2624  -23.5154  -53.9626 O.2       22 UNK        -0.5000 
    124 C124       -0.9133  -21.9963  -52.5152 C.3       23 UNK        -0.0398 
    125 S125       -1.1611  -20.4047  -53.3777 S.3       23 UNK        -0.2404 
    126 C126        0.5394  -19.7753  -53.5305 C.3       23 UNK        -0.0205 
    127 H127       -5.4476  -16.3692  -47.4906 H         1 UNK         0.0600 
    128 H128       -6.1628  -15.1478  -46.4359 H         1 UNK         0.0600 
    129 H129       -5.2196  -16.4735  -45.7475 H         1 UNK         0.0600 
    130 H130       -3.6301  -15.5649  -48.5605 H         1 UNK         0.3000 
    131 H131       -2.2243  -13.1964  -47.6648 H         1 UNK         0.0600 
    132 H132       -2.5203  -13.5585  -50.0684 H         1 UNK         0.0800 
    133 H133       -0.8374  -13.4518  -49.6668 H         1 UNK         0.0800 
    134 H134        0.7221  -15.0484  -51.2612 H         1 UNK         0.0800 
    135 H135        0.7870  -15.3823  -49.5475 H         1 UNK         0.0800 
    136 H136       -0.1766  -17.3116  -52.6510 H         1 UNK         0.1150 
    137 H137        2.2803  -20.6672  -51.6184 H         1 UNK         0.1150 
    138 H138        2.0947  -17.2628  -49.0175 H         1 UNK         0.1150 
    139 H139        4.2891  -19.6699  -49.7513 H         1 UNK         0.0800 
    140 H140        3.4089  -19.1101  -48.3515 H         1 UNK         0.0800 
    141 H141        0.6980  -20.5878  -48.6515 H         1 UNK         0.0800 
    142 H142        1.4898  -20.5818  -47.0940 H         1 UNK         0.0800 
    143 H143        0.6497  -23.1509  -48.5221 H         1 UNK         0.0600 
    144 H144        1.7407  -22.6366  -45.8492 H         1 UNK         0.3000 
    145 H145        1.2482  -25.9606  -44.6993 H         1 UNK         0.0600 
    146 H146        3.7058  -25.8904  -44.3717 H         1 UNK         0.0600 
    147 H147        3.3314  -26.1605  -46.0662 H         1 UNK         0.0600 
    148 H148        3.8518  -24.5676  -45.5299 H         1 UNK         0.0600 
    149 H149        2.5982  -23.7152  -43.5627 H         1 UNK         0.3000 
    150 H150       -0.2418  -22.1365  -42.1087 H         1 UNK         0.0600 
    151 H151        1.9715  -23.8004  -40.8034 H         1 UNK         0.0600 
    152 H152        0.2446  -24.0643  -40.5894 H         1 UNK         0.0600 
    153 H153        0.9780  -22.5765  -40.0125 H         1 UNK         0.0600 
    154 H154        2.3353  -21.3840  -41.6497 H         1 UNK         0.3000 
    155 H155        3.8002  -20.1767  -43.0384 H         1 UNK         0.0600 
    156 H156        2.4721  -18.7345  -45.3909 H         1 UNK         0.0600 
    157 H157        3.5824  -20.0912  -45.5486 H         1 UNK         0.0600 
    158 H158        4.1366  -18.5767  -44.8522 H         1 UNK         0.0600 
    159 H159        1.9761  -17.8732  -43.2162 H         1 UNK         0.3000 
    160 H160        0.8512  -17.2766  -40.8191 H         1 UNK         0.0600 
    161 H161        1.9203  -17.8724  -38.6724 H         1 UNK         0.0600 
    162 H162        1.9121  -16.1273  -38.8687 H         1 UNK         0.0600 
    163 H163        3.3987  -17.0374  -39.1316 H         1 UNK         0.0600 
    164 H164        1.5693  -15.5005  -41.9155 H         1 UNK         0.3000 
    165 H165        4.6932  -13.9597  -42.5349 H         1 UNK         0.0600 
    166 H166        3.8133  -13.8604  -44.8255 H         1 UNK         0.0600 
    167 H167        4.2927  -15.5152  -44.4786 H         1 UNK         0.0600 
    168 H168        2.5896  -15.0731  -44.4650 H         1 UNK         0.0600 
    169 H169        2.0321  -13.1107  -43.0960 H         1 UNK         0.3000 
    170 H170        1.4165  -11.4628  -40.0113 H         1 UNK         0.0600 
    171 H171        2.9748   -9.9224  -41.1581 H         1 UNK         0.0600 
    172 H172        2.2362  -10.2764  -42.7119 H         1 UNK         0.0600 
    173 H173        1.3092   -9.4527  -41.4583 H         1 UNK         0.0600 
    174 H174       -0.4623  -12.0734  -40.9152 H         1 UNK         0.3000 
    175 H175       -2.1755  -12.1345  -42.2275 H         1 UNK         0.0600 
    176 H176       -3.2499  -11.7761  -44.4072 H         1 UNK         0.0600 
    177 H177       -1.9795  -10.5810  -44.1927 H         1 UNK         0.0600 
    178 H178       -1.7140  -11.9639  -45.2499 H         1 UNK         0.0600 
    179 H179       -2.2878  -14.1059  -44.2342 H         1 UNK         0.3000 
    180 H180       -1.4628  -16.9748  -42.2746 H         1 UNK         0.0600 
    181 H181       -4.1094  -15.8966  -43.3847 H         1 UNK         0.0600 
    182 H182       -3.8269  -16.4318  -41.7334 H         1 UNK         0.0600 
    183 H183       -3.7406  -17.5890  -43.0526 H         1 UNK         0.0600 
    184 H184       -2.3230  -16.4417  -45.0038 H         1 UNK         0.3000 
    185 H185        0.9199  -16.6485  -46.4222 H         1 UNK         0.0600 
    186 H186        0.2649  -19.0498  -45.8737 H         1 UNK         0.0600 
    187 H187       -1.3452  -18.7124  -46.4709 H         1 UNK         0.0600 
    188 H188        0.0432  -18.6032  -47.5606 H         1 UNK         0.0600 
    189 H189       -1.7776  -16.6579  -47.4671 H         1 UNK         0.3000 
    190 H190       -0.4192  -21.6890  -45.4161 H         1 UNK         0.3000 
    191 H191       -2.9851  -20.8757  -46.2553 H         1 UNK         0.0600 
    192 H192       -1.8831  -20.1647  -44.1233 H         1 UNK         0.0600 
    193 H193       -3.5061  -20.7810  -43.8456 H         1 UNK         0.0600 
    194 H194       -2.1147  -21.7848  -43.4653 H         1 UNK         0.0600 
    195 H195       -1.9127  -24.0257  -44.9198 H         1 UNK         0.3000 
    196 H196       -4.4166  -25.3646  -44.9945 H         1 UNK         0.0600 
    197 H197       -2.9816  -27.4167  -44.8598 H         1 UNK         0.0600 
    198 H198       -2.4625  -26.1892  -43.7155 H         1 UNK         0.0600 
    199 H199       -1.5549  -26.4444  -45.2053 H         1 UNK         0.0600 
    200 H200       -2.2370  -24.5090  -47.5938 H         1 UNK         0.3000 
    201 H201       -3.4801  -26.3584  -49.5405 H         1 UNK         0.0600 
    202 H202       -1.6999  -25.6319  -51.0282 H         1 UNK         0.0600 
    203 H203       -0.9699  -26.0422  -49.4855 H         1 UNK         0.0600 
    204 H204       -1.2014  -24.3526  -49.9309 H         1 UNK         0.0600 
    205 H205       -4.5362  -23.6527  -48.1460 H         1 UNK         0.3000 
    206 H206       -6.0446  -22.1192  -48.5601 H         1 UNK         0.0600 
    207 H207       -7.3043  -23.9464  -49.7118 H         1 UNK         0.0600 
    208 H208       -7.6540  -22.3680  -50.3971 H         1 UNK         0.0600 
    209 H209       -6.5895  -23.4720  -51.2523 H         1 UNK         0.0600 
    210 H210       -3.4136  -21.3956  -48.9974 H         1 UNK         0.3000 
    211 H211       -3.1025  -19.6758  -51.2680 H         1 UNK         0.0600 
    212 H212       -1.1594  -20.4965  -50.0485 H         1 UNK         0.0600 
    213 H213       -1.7374  -19.7676  -48.5494 H         1 UNK         0.0600 
    214 H214       -1.2096  -18.7522  -49.8813 H         1 UNK         0.0600 
    215 H215       -5.2683  -18.7458  -51.2117 H         1 UNK         0.3000 
    216 H216       -5.2375  -16.0866  -49.8237 H         1 UNK         0.0600 
    217 H217       -7.7119  -16.1348  -50.0039 H         1 UNK         0.0600 
    218 H218       -7.1605  -17.5189  -49.0735 H         1 UNK         0.0600 
    219 H219       -7.6593  -17.7298  -50.7503 H         1 UNK         0.0600 
    220 H220       -3.6199  -16.5057  -51.9199 H         1 UNK         0.3000 
    221 H221       -2.9464  -15.8915  -53.9190 H         1 UNK         0.0600 
    222 H222       -5.3301  -13.9731  -54.0387 H         1 UNK         0.0600 
    223 H223       -3.7939  -13.6320  -53.2421 H         1 UNK         0.0600 
    224 H224       -3.8500  -13.8715  -54.9801 H         1 UNK         0.0600 
    225 H225       -4.7804  -18.1456  -53.6601 H         1 UNK         0.3000 
    226 H226       -6.1940  -18.3764  -56.2361 H         1 UNK         0.0600 
    227 H227       -7.1949  -19.2647  -54.0887 H         1 UNK         0.0600 
    228 H228       -6.9408  -20.5390  -55.2667 H         1 UNK         0.0600 
    229 H229       -5.8277  -20.3626  -53.9159 H         1 UNK         0.0600 
    230 H230       -5.7946  -20.4637  -57.4687 H         1 UNK         0.3000 
    231 H231       -2.9781  -20.8445  -58.0934 H         1 UNK         0.0600 
    232 H232       -5.4991  -22.2735  -59.0965 H         1 UNK         0.0600 
    233 H233       -3.8906  -22.4184  -59.7943 H         1 UNK         0.0600 
    234 H234       -4.7313  -20.8781  -59.8555 H         1 UNK         0.0600 
    235 H235       -5.2134  -22.3206  -55.9112 H         1 UNK         0.3000 
    236 H236       -4.5168  -24.9958  -55.8821 H         1 UNK         0.0600 
    237 H237       -6.5131  -24.0558  -54.7596 H         1 UNK         0.0600 
    238 H238       -5.5675  -24.9794  -53.6023 H         1 UNK         0.0600 
    239 H239       -5.4967  -23.2233  -53.5806 H         1 UNK         0.0600 
    240 H240       -2.7933  -22.3407  -54.2986 H         1 UNK         0.3000 
    241 H241       -1.0369  -24.1020  -52.7807 H         1 UNK         0.0600 
    242 H242       -1.0033  -23.4313  -56.1223 H         1 UNK         0.3800 
    243 H243        0.7187  -23.6244  -56.3307 H         1 UNK         0.3800 
    244 H244       -1.6569  -22.0568  -51.7192 H         1 UNK         0.0800 
    245 H245        0.0542  -22.0071  -52.0108 H         1 UNK         0.0800 
    246 H246        1.2180  -20.5882  -53.7928 H         1 UNK         0.0800 
    247 H247        0.5757  -19.0698  -54.3617 H         1 UNK         0.0800 
@<TRIPOS>BOND
     1    1    2 1    
     2    1  127 1    
     3    1  128 1    
     4    1  129 1    
     5    2    3 2    
     6    2    4 am   BACKBONE|DICT|INTERRES
     7    4    5 1    
     8    4  130 1    
     9    5    6 1    
    10    5   65 1    
    11    5  131 1    
    12    6    7 1    
    13    6  132 1    
    14    6  133 1    
    15    7    8 1    
    16    8    9 1    
    17    8  134 1    
    18    8  135 1    
    19    9   10 ar   
    20    9   14 ar   
    21   10   11 ar   
    22   10  136 1    
    23   11   12 ar   
    24   11  126 1    
    25   12   13 ar   
    26   12  137 1    
    27   13   14 ar   
    28   13   15 1    
    29   14  138 1    
    30   15   16 1    
    31   15  139 1    
    32   15  140 1    
    33   16   17 1    
    34   17   18 1    
    35   17  141 1    
    36   17  142 1    
    37   18   19 1    
    38   18   67 1    
    39   18  143 1    
    40   19   20 am   BACKBONE|DICT|INTERRES
    41   19  144 1    
    42   20   21 2    
    43   20   22 1    
    44   22   23 1    
    45   22   24 1    
    46   22  145 1    
    47   23  146 1    
    48   23  147 1    
    49   23  148 1    
    50   24   25 am   BACKBONE|DICT|INTERRES
    51   24  149 1    
    52   25   26 2    
    53   25   27 1    
    54   27   28 1    
    55   27   29 1    
    56   27  150 1    
    57   28  151 1    
    58   28  152 1    
    59   28  153 1    
    60   29   30 am   BACKBONE|DICT|INTERRES
    61   29  154 1    
    62   30   31 2    
    63   30   32 1    
    64   32   33 1    
    65   32   34 1    
    66   32  155 1    
    67   33  156 1    
    68   33  157 1    
    69   33  158 1    
    70   34   35 am   BACKBONE|DICT|INTERRES
    71   34  159 1    
    72   35   36 2    
    73   35   37 1    
    74   37   38 1    
    75   37   39 1    
    76   37  160 1    
    77   38  161 1    
    78   38  162 1    
    79   38  163 1    
    80   39   40 am   BACKBONE|DICT|INTERRES
    81   39  164 1    
    82   40   41 2    
    83   40   42 1    
    84   42   43 1    
    85   42   44 1    
    86   42  165 1    
    87   43  166 1    
    88   43  167 1    
    89   43  168 1    
    90   44   45 am   BACKBONE|DICT|INTERRES
    91   44  169 1    
    92   45   46 2    
    93   45   47 1    
    94   47   48 1    
    95   47   49 1    
    96   47  170 1    
    97   48  171 1    
    98   48  172 1    
    99   48  173 1    
   100   49   50 am   BACKBONE|DICT|INTERRES
   101   49  174 1    
   102   50   51 2    
   103   50   52 1    
   104   52   53 1    
   105   52   54 1    
   106   52  175 1    
   107   53  176 1    
   108   53  177 1    
   109   53  178 1    
   110   54   55 am   BACKBONE|DICT|INTERRES
   111   54  179 1    
   112   55   56 2    
   113   55   57 1    
   114   57   58 1    
   115   57   59 1    
   116   57  180 1    
   117   58  181 1    
   118   58  182 1    
   119   58  183 1    
   120   59   60 am   BACKBONE|DICT|INTERRES
   121   59  184 1    
   122   60   61 2    
   123   60   62 1    
   124   62   63 1    
   125   62   64 1    
   126   62  185 1    
   127   63  186 1    
   128   63  187 1    
   129   63  188 1    
   130   64   65 am   BACKBONE|DICT|INTERRES
   131   64  189 1    
   132   65   66 2    
   133   67   68 2    
   134   67   69 am   BACKBONE|DICT|INTERRES
   135   69   70 1    
   136   69  190 1    
   137   70   71 1    
   138   70   72 1    
   139   70  191 1    
   140   71  192 1    
   141   71  193 1    
   142   71  194 1    
   143   72   73 2    
   144   72   74 am   BACKBONE|DICT|INTERRES
   145   74   75 1    
   146   74  195 1    
   147   75   76 1    
   148   75   77 1    
   149   75  196 1    
   150   76  197 1    
   151   76  198 1    
   152   76  199 1    
   153   77   78 2    
   154   77   79 am   BACKBONE|DICT|INTERRES
   155   79   80 1    
   156   79  200 1    
   157   80   81 1    
   158   80   82 1    
   159   80  201 1    
   160   81  202 1    
   161   81  203 1    
   162   81  204 1    
   163   82   83 2    
   164   82   84 am   BACKBONE|DICT|INTERRES
   165   84   85 1    
   166   84  205 1    
   167   85   86 1    
   168   85   87 1    
   169   85  206 1    
   170   86  207 1    
   171   86  208 1    
   172   86  209 1    
   173   87   88 2    
   174   87   89 am   BACKBONE|DICT|INTERRES
   175   89   90 1    
   176   89  210 1    
   177   90   91 1    
   178   90   92 1    
   179   90  211 1    
   180   91  212 1    
   181   91  213 1    
   182   91  214 1    
   183   92   93 2    
   184   92   94 am   BACKBONE|DICT|INTERRES
   185   94   95 1    
   186   94  215 1    
   187   95   96 1    
   188   95   97 1    
   189   95  216 1    
   190   96  217 1    
   191   96  218 1    
   192   96  219 1    
   193   97   98 2    
   194   97   99 am   BACKBONE|DICT|INTERRES
   195   99  100 1    
   196   99  220 1    
   197  100  101 1    
   198  100  102 1    
   199  100  221 1    
   200  101  222 1    
   201  101  223 1    
   202  101  224 1    
   203  102  103 2    
   204  102  104 am   BACKBONE|DICT|INTERRES
   205  104  105 1    
   206  104  225 1    
   207  105  106 1    
   208  105  107 1    
   209  105  226 1    
   210  106  227 1    
   211  106  228 1    
   212  106  229 1    
   213  107  108 2    
   214  107  109 am   BACKBONE|DICT|INTERRES
   215  109  110 1    
   216  109  230 1    
   217  110  111 1    
   218  110  112 1    
   219  110  231 1    
   220  111  232 1    
   221  111  233 1    
   222  111  234 1    
   223  112  113 2    
   224  112  114 am   BACKBONE|DICT|INTERRES
   225  114  115 1    
   226  114  235 1    
   227  115  116 1    
   228  115  117 1    
   229  115  236 1    
   230  116  237 1    
   231  116  238 1    
   232  116  239 1    
   233  117  118 2    
   234  117  119 am   BACKBONE|DICT|INTERRES
   235  119  120 1    
   236  119  240 1    
   237  120  121 1    
   238  120  124 1    
   239  120  241 1    
   240  121  122 am   BACKBONE|DICT|INTERRES
   241  121  123 2    
   242  122  242 1    
   243  122  243 1    
   244  124  125 1    
   245  124  244 1    
   246  124  245 1    
   247  125  126 1    
   248  126  246 1    
   249  126  247 1    
@<TRIPOS>SUBSTRUCTURE
     1 UNK         1 GROUP             0       ****    0 ROOT    
