@<TRIPOS>MOLECULE
3R540
247   249    1
SMALL
USER_CHARGES


@<TRIPOS>ATOM
      1 CA         -3.4921   -9.7153  -49.1050 C.3       0 UNK        -0.1800 
      2 C          -2.4402  -10.8148  -49.0733 C.2       0 UNK         0.5000 
      3 O          -1.3147  -10.5716  -48.6396 O.2       0 UNK        -0.5000 
      4 N          -2.8028  -12.0219  -49.5283 N.am      1 UNK        -0.5000 
      5 CA         -1.9333  -13.2062  -49.5501 C.3       1 UNK         0.1400 
      6 C6         -2.5137  -14.3055  -50.4763 C.3       23 UNK        -0.0398 
      7 S7         -1.2605  -15.4916  -51.0725 S.3       23 UNK        -0.2404 
      8 C8         -1.7217  -16.9896  -50.1471 C.3       23 UNK        -0.0205 
      9 C9         -0.8222  -18.1619  -50.5100 C.ar      23 UNK        -0.0193 
     10 C10        -1.0019  -18.8315  -51.7231 C.ar      23 UNK        -0.1150 
     11 C11        -0.1841  -19.9104  -52.0694 C.ar      23 UNK        -0.0193 
     12 C12         0.8268  -20.3150  -51.1937 C.ar      23 UNK        -0.1150 
     13 C13         1.0148  -19.6594  -49.9724 C.ar      23 UNK        -0.0193 
     14 C14         0.1866  -18.5820  -49.6375 C.ar      23 UNK        -0.1150 
     15 C15         2.1202  -20.1046  -49.0207 C.3       23 UNK        -0.0205 
     16 S16         1.9728  -21.8527  -48.5194 S.3       23 UNK        -0.2404 
     17 C17         0.2811  -21.8961  -47.8480 C.3       23 UNK        -0.0398 
     18 CA          0.0849  -23.0229  -46.8076 C.3       11 UNK         0.1400 
     19 N           0.7643  -22.7620  -45.5332 N.am      11 UNK        -0.5000 
     20 C           0.8519  -23.6479  -44.5292 C.2       10 UNK         0.5000 
     21 O           0.4174  -24.7972  -44.5965 O.2       10 UNK        -0.5000 
     22 CA          1.4686  -23.1588  -43.2064 C.3       10 UNK         0.1400 
     23 CB          3.0024  -23.1393  -43.2802 C.3       10 UNK        -0.1800 
     24 N           0.9664  -21.8432  -42.8092 N.am      10 UNK        -0.5000 
     25 C          -0.3116  -21.5832  -42.4959 C.2       9 UNK         0.5000 
     26 O          -1.1899  -22.4443  -42.4462 O.2       9 UNK        -0.5000 
     27 CA         -0.6858  -20.1078  -42.2557 C.3       9 UNK         0.1400 
     28 CB         -0.3292  -19.6711  -40.8274 C.3       9 UNK        -0.1800 
     29 N          -0.0555  -19.2071  -43.2221 N.am      9 UNK        -0.5000 
     30 C          -0.2806  -19.2432  -44.5436 C.2       8 UNK         0.5000 
     31 O          -1.0987  -19.9892  -45.0789 O.2       8 UNK        -0.5000 
     32 CA          0.5953  -18.3409  -45.4255 C.3       8 UNK         0.1400 
     33 CB          0.0143  -16.9275  -45.5126 C.3       8 UNK        -0.1800 
     34 N           1.9799  -18.2897  -44.9597 N.am      8 UNK        -0.5000 
     35 C           2.8223  -19.3303  -45.0217 C.2       7 UNK         0.5000 
     36 O           2.5194  -20.4218  -45.4996 O.2       7 UNK        -0.5000 
     37 CA          4.2160  -19.1321  -44.4021 C.3       7 UNK         0.1400 
     38 CB          5.1388  -18.3791  -45.3719 C.3       7 UNK        -0.1800 
     39 N           4.1575  -18.4172  -43.1270 N.am      7 UNK        -0.5000 
     40 C           3.5778  -18.8960  -42.0166 C.2       6 UNK         0.5000 
     41 O           3.0777  -20.0171  -41.9369 O.2       6 UNK        -0.5000 
     42 CA          3.5030  -17.9436  -40.8089 C.3       6 UNK         0.1400 
     43 CB          4.7595  -18.0782  -39.9362 C.3       6 UNK        -0.1800 
     44 N           3.3284  -16.5417  -41.1987 N.am      6 UNK        -0.5000 
     45 C           2.2447  -16.0566  -41.8186 C.2       5 UNK         0.5000 
     46 O           1.2689  -16.7441  -42.1310 O.2       5 UNK        -0.5000 
     47 CA          2.2996  -14.5736  -42.2171 C.3       5 UNK         0.1400 
     48 CB          2.7247  -14.4325  -43.6871 C.3       5 UNK        -0.1800 
     49 N           1.0079  -13.9196  -42.0305 N.am      5 UNK        -0.5000 
     50 C           0.5345  -13.4914  -40.8510 C.2       4 UNK         0.5000 
     51 O           1.1440  -13.6371  -39.7894 O.2       4 UNK        -0.5000 
     52 CA         -0.8371  -12.7715  -40.8562 C.3       4 UNK         0.1400 
     53 CB         -0.9932  -11.7697  -39.6929 C.3       4 UNK        -0.1800 
     54 N          -1.1593  -12.1354  -42.1400 N.am      4 UNK        -0.5000 
     55 C          -0.4635  -11.1827  -42.7815 C.2       3 UNK         0.5000 
     56 O           0.4771  -10.5693  -42.2745 O.2       3 UNK        -0.5000 
     57 CA         -0.8641  -10.8848  -44.2484 C.3       3 UNK         0.1400 
     58 CB          0.3744  -10.6301  -45.1322 C.3       3 UNK        -0.1800 
     59 N          -1.7250  -11.8945  -44.8890 N.am      3 UNK        -0.5000 
     60 C          -1.4803  -13.2071  -45.0317 C.2       2 UNK         0.5000 
     61 O          -0.5001  -13.7800  -44.5577 O.2       2 UNK        -0.5000 
     62 CA         -2.5257  -14.0125  -45.8212 C.3       2 UNK         0.1400 
     63 CB         -3.9145  -13.9434  -45.1643 C.3       2 UNK        -0.1800 
     64 N          -2.6154  -13.5779  -47.2135 N.am      2 UNK        -0.5000 
     65 C          -1.6512  -13.7510  -48.1312 C.2       1 UNK         0.5000 
     66 O          -0.5810  -14.3133  -47.9000 O.2       1 UNK        -0.5000 
     67 C          -1.4166  -23.3138  -46.6177 C.2       11 UNK         0.5000 
     68 O          -1.9350  -24.2188  -47.2699 O.2       11 UNK        -0.5000 
     69 N          -2.0899  -22.5687  -45.7315 N.am      12 UNK        -0.5000 
     70 CA         -3.4950  -22.7773  -45.3810 C.3       12 UNK         0.1400 
     71 CB         -4.0006  -21.6061  -44.5264 C.3       12 UNK        -0.1800 
     72 C          -3.7327  -24.1257  -44.6790 C.2       12 UNK         0.5000 
     73 O          -4.6738  -24.8332  -45.0382 O.2       12 UNK        -0.5000 
     74 N          -2.8513  -24.4810  -43.7333 N.am      13 UNK        -0.5000 
     75 CA         -2.8608  -25.7628  -43.0236 C.3       13 UNK         0.1400 
     76 CB         -1.8411  -25.7196  -41.8756 C.3       13 UNK        -0.1800 
     77 C          -2.5917  -26.9657  -43.9489 C.2       13 UNK         0.5000 
     78 O          -3.2273  -28.0087  -43.7920 O.2       13 UNK        -0.5000 
     79 N          -1.6789  -26.7889  -44.9133 N.am      14 UNK        -0.5000 
     80 CA         -1.3432  -27.7729  -45.9450 C.3       14 UNK         0.1400 
     81 CB          0.0200  -27.4012  -46.5508 C.3       14 UNK        -0.1800 
     82 C          -2.4013  -27.8897  -47.0620 C.2       14 UNK         0.5000 
     83 O          -2.3322  -28.8332  -47.8505 O.2       14 UNK        -0.5000 
     84 N          -3.3291  -26.9224  -47.1318 N.am      15 UNK        -0.5000 
     85 CA         -4.3297  -26.7140  -48.1859 C.3       15 UNK         0.1400 
     86 CB         -5.3395  -27.8792  -48.2400 C.3       15 UNK        -0.1800 
     87 C          -3.6944  -26.3907  -49.5578 C.2       15 UNK         0.5000 
     88 O          -4.2594  -26.7229  -50.6012 O.2       15 UNK        -0.5000 
     89 N          -2.5273  -25.7368  -49.5219 N.am      16 UNK        -0.5000 
     90 CA         -1.7767  -25.2560  -50.6791 C.3       16 UNK         0.1400 
     91 CB         -0.2758  -25.3490  -50.3613 C.3       16 UNK        -0.1800 
     92 C          -2.1526  -23.8088  -51.0454 C.2       16 UNK         0.5000 
     93 O          -1.9221  -23.3993  -52.1834 O.2       16 UNK        -0.5000 
     94 N          -2.7114  -23.0584  -50.0836 N.am      17 UNK        -0.5000 
     95 CA         -3.1956  -21.6914  -50.2707 C.3       17 UNK         0.1400 
     96 CB         -3.5132  -21.0694  -48.9020 C.3       17 UNK        -0.1800 
     97 C          -4.4298  -21.6345  -51.1917 C.2       17 UNK         0.5000 
     98 O          -5.2259  -22.5764  -51.2172 O.2       17 UNK        -0.5000 
     99 N          -4.5766  -20.5114  -51.9019 N.am      18 UNK        -0.5000 
    100 CA        -5.6813  -20.2369  -52.8251 C.3       18 UNK         0.1400 
    101 CB        -5.5248  -21.0511  -54.1236 C.3       18 UNK        -0.1800 
    102 C         -5.7926  -18.7376  -53.1444 C.2       18 UNK         0.5000 
    103 O         -6.8855  -18.2738  -53.4669 O.2       18 UNK        -0.5000 
    104 N         -4.6648  -18.0106  -53.0714 N.am      19 UNK        -0.5000 
    105 CA        -4.4835  -16.5619  -53.2685 C.3       19 UNK         0.1400 
    106 CB        -5.3616  -15.7436  -52.3028 C.3       19 UNK        -0.1800 
    107 C         -4.6462  -16.0731  -54.7223 C.2       19 UNK         0.5000 
    108 O         -3.9686  -15.1221  -55.1142 O.2       19 UNK        -0.5000 
    109 N         -5.4913  -16.7428  -55.5143 N.am      20 UNK        -0.5000 
    110 CA        -5.7157  -16.5102  -56.9422 C.3       20 UNK         0.1400 
    111 CB        -7.0716  -17.1263  -57.3301 C.3       20 UNK        -0.1800 
    112 C         -4.5499  -17.0617  -57.7904 C.2       20 UNK         0.5000 
    113 O         -4.7208  -18.0348  -58.5284 O.2       20 UNK        -0.5000 
    114 N         -3.3613  -16.4665  -57.6088 N.am      21 UNK        -0.5000 
    115 CA        -2.0760  -16.8017  -58.2413 C.3       21 UNK         0.1400 
    116 CB        -2.1142  -16.4518  -59.7433 C.3       21 UNK        -0.1800 
    117 C         -1.6109  -18.2548  -57.9870 C.2       21 UNK         0.5000 
    118 O         -0.8342  -18.7988  -58.7740 O.2       21 UNK        -0.5000 
    119 N         -2.1157  -18.8576  -56.9017 N.am      22 UNK        -0.5000 
    120 CA        -1.9734  -20.2780  -56.5401 C.3       22 UNK         0.1400 
    121 C         -2.6579  -21.2650  -57.5376 C.2       22 UNK         0.5000 
    122 N         -3.6069  -20.8259  -58.3579 N.am      22 UNK        -0.7600 
    123 O         -2.3527  -22.4543  -57.5513 O.2       22 UNK        -0.5000 
    124 C124       -0.5175  -20.6838  -56.1729 C.3       23 UNK        -0.0398 
    125 S125        0.1575  -19.6801  -54.8053 S.3       23 UNK        -0.2404 
    126 C126       -0.4153  -20.6498  -53.3770 C.3       23 UNK        -0.0205 
    127 H127       -4.4403  -10.0715  -49.5086 H         1 UNK         0.0600 
    128 H128       -3.6712   -9.3386  -48.0979 H         1 UNK         0.0600 
    129 H129       -3.1493   -8.8862  -49.7241 H         1 UNK         0.0600 
    130 H130       -3.7403  -12.1524  -49.8815 H         1 UNK         0.3000 
    131 H131       -0.9753  -12.8866  -49.9669 H         1 UNK         0.0600 
    132 H132       -2.9340  -13.8427  -51.3703 H         1 UNK         0.0800 
    133 H133       -3.3433  -14.8298  -49.9989 H         1 UNK         0.0800 
    134 H134       -2.7599  -17.2473  -50.3613 H         1 UNK         0.0800 
    135 H135       -1.6667  -16.7845  -49.0766 H         1 UNK         0.0800 
    136 H136       -1.7683  -18.5025  -52.4082 H         1 UNK         0.1150 
    137 H137        1.4636  -21.1483  -51.4555 H         1 UNK         0.1150 
    138 H138        0.3314  -18.0606  -48.7022 H         1 UNK         0.1150 
    139 H139        3.0843  -19.9611  -49.5098 H         1 UNK         0.0800 
    140 H140        2.1385  -19.4819  -48.1262 H         1 UNK         0.0800 
    141 H141        0.0295  -20.9275  -47.4150 H         1 UNK         0.0800 
    142 H142       -0.3831  -22.0318  -48.7033 H         1 UNK         0.0800 
    143 H143        0.5228  -23.9356  -47.2169 H         1 UNK         0.0600 
    144 H144        1.2091  -21.8540  -45.4302 H         1 UNK         0.3000 
    145 H145        1.1818  -23.8685  -42.4277 H         1 UNK         0.0600 
    146 H146        3.3652  -22.4380  -44.0308 H         1 UNK         0.0600 
    147 H147        3.4388  -22.8572  -42.3219 H         1 UNK         0.0600 
    148 H148        3.3918  -24.1249  -43.5379 H         1 UNK         0.0600 
    149 H149        1.6449  -21.0890  -42.7696 H         1 UNK         0.3000 
    150 H150       -1.7671  -20.0157  -42.3762 H         1 UNK         0.0600 
    151 H151       -0.6153  -18.6345  -40.6481 H         1 UNK         0.0600 
    152 H152        0.7385  -19.7622  -40.6310 H         1 UNK         0.0600 
    153 H153       -0.8500  -20.2858  -40.0924 H         1 UNK         0.0600 
    154 H154        0.5952  -18.5198  -42.8560 H         1 UNK         0.3000 
    155 H155        0.5936  -18.7630  -46.4310 H         1 UNK         0.0600 
    156 H156       -0.9857  -16.9593  -45.9444 H         1 UNK         0.0600 
    157 H157        0.6211  -16.2828  -46.1487 H         1 UNK         0.0600 
    158 H158       -0.0619  -16.4595  -44.5307 H         1 UNK         0.0600 
    159 H159        2.2794  -17.4403  -44.5060 H         1 UNK         0.3000 
    160 H160        4.6440  -20.1201  -44.2193 H         1 UNK         0.0600 
    161 H161        4.7791  -17.3690  -45.5721 H         1 UNK         0.0600 
    162 H162        5.2057  -18.8994  -46.3285 H         1 UNK         0.0600 
    163 H163        6.1506  -18.3025  -44.9735 H         1 UNK         0.0600 
    164 H164        4.5521  -17.4890  -43.1026 H         1 UNK         0.3000 
    165 H165        2.6387  -18.2357  -40.2092 H         1 UNK         0.0600 
    166 H166        5.6591  -17.7752  -40.4734 H         1 UNK         0.0600 
    167 H167        4.6826  -17.4668  -39.0369 H         1 UNK         0.0600 
    168 H168        4.9015  -19.1108  -39.6142 H         1 UNK         0.0600 
    169 H169        4.0908  -15.9163  -40.9801 H         1 UNK         0.3000 
    170 H170        3.0408  -14.0642  -41.5975 H         1 UNK         0.0600 
    171 H171        3.7066  -14.8754  -43.8577 H         1 UNK         0.0600 
    172 H172        2.0206  -14.9229  -44.3600 H         1 UNK         0.0600 
    173 H173        2.7855  -13.3839  -43.9792 H         1 UNK         0.0600 
    174 H174        0.4356  -13.8139  -42.8641 H         1 UNK         0.3000 
    175 H175       -1.5823  -13.5553  -40.7144 H         1 UNK         0.0600 
    176 H176       -1.9674  -11.2817  -39.7207 H         1 UNK         0.0600 
    177 H177       -0.9123  -12.2733  -38.7289 H         1 UNK         0.0600 
    178 H178       -0.2279  -10.9937  -39.7199 H         1 UNK         0.0600 
    179 H179       -1.9095  -12.5695  -42.6573 H         1 UNK         0.3000 
    180 H180       -1.4460   -9.9627  -44.2185 H         1 UNK         0.0600 
    181 H181        0.0856  -10.3954  -46.1567 H         1 UNK         0.0600 
    182 H182        0.9596   -9.7875  -44.7623 H         1 UNK         0.0600 
    183 H183        1.0325  -11.4993  -45.1616 H         1 UNK         0.0600 
    184 H184       -2.5710  -11.5306  -45.3034 H         1 UNK         0.3000 
    185 H185       -2.2132  -15.0565  -45.8132 H         1 UNK         0.0600 
    186 H186       -4.6145  -14.6163  -45.6601 H         1 UNK         0.0600 
    187 H187       -3.8666  -14.2441  -44.1168 H         1 UNK         0.0600 
    188 H188       -4.3383  -12.9393  -45.2002 H         1 UNK         0.0600 
    189 H189       -3.4547  -13.0888  -47.4867 H         1 UNK         0.3000 
    190 H190       -1.6198  -21.7848  -45.2856 H         1 UNK         0.3000 
    191 H191       -4.0713  -22.7875  -46.3076 H         1 UNK         0.0600 
    192 H192       -5.0564  -21.7288  -44.2820 H         1 UNK         0.0600 
    193 H193       -3.8969  -20.6595  -45.0572 H         1 UNK         0.0600 
    194 H194       -3.4536  -21.5240  -43.5876 H         1 UNK         0.0600 
    195 H195       -2.1285  -23.8183  -43.4656 H         1 UNK         0.3000 
    196 H196       -3.8541  -25.8953  -42.5898 H         1 UNK         0.0600 
    197 H197       -1.8450  -26.6541  -41.3133 H         1 UNK         0.0600 
    198 H198       -2.0710  -24.9167  -41.1748 H         1 UNK         0.0600 
    199 H199       -0.8270  -25.5608  -42.2433 H         1 UNK         0.0600 
    200 H200       -1.1429  -25.9254  -44.9222 H         1 UNK         0.3000 
    201 H201       -1.2529  -28.7537  -45.4739 H         1 UNK         0.0600 
    202 H202        0.7964  -27.3698  -45.7862 H         1 UNK         0.0600 
    203 H203       -0.0108  -26.4255  -47.0372 H         1 UNK         0.0600 
    204 H204        0.3313  -28.1311  -47.2991 H         1 UNK         0.0600 
    205 H205       -3.2817  -26.1890  -46.4365 H         1 UNK         0.3000 
    206 H206       -4.8815  -25.8188  -47.8958 H         1 UNK         0.0600 
    207 H207       -5.7612  -28.0803  -47.2552 H         1 UNK         0.0600 
    208 H208       -6.1704  -27.6438  -48.9059 H         1 UNK         0.0600 
    209 H209       -4.8817  -28.7990  -48.6045 H         1 UNK         0.0600 
    210 H210       -2.1786  -25.4466  -48.6114 H         1 UNK         0.3000 
    211 H211       -1.9865  -25.8887  -51.5440 H         1 UNK         0.0600 
    212 H212        0.3247  -25.0316  -51.2148 H         1 UNK         0.0600 
    213 H213        0.0137  -26.3723  -50.1213 H         1 UNK         0.0600 
    214 H214       -0.0026  -24.7169  -49.5160 H         1 UNK         0.0600 
    215 H215       -2.8770  -23.4845  -49.1826 H         1 UNK         0.3000 
    216 H216       -2.3911  -21.1169  -50.7307 H         1 UNK         0.0600 
    217 H217       -3.8562  -20.0397  -49.0097 H         1 UNK         0.0600 
    218 H218       -2.6338  -21.0447  -48.2597 H         1 UNK         0.0600 
    219 H219       -4.2972  -21.6219  -48.3839 H         1 UNK         0.0600 
    220 H220       -3.9373  -19.7515  -51.7326 H         1 UNK         0.3000 
    221 H221       -6.6159  -20.5272  -52.3402 H         1 UNK         0.0600 
    222 H222       -4.5794  -20.8367  -54.6191 H         1 UNK         0.0600 
    223 H223       -5.5641  -22.1231  -53.9310 H         1 UNK         0.0600 
    224 H224       -6.3248  -20.8230  -54.8293 H         1 UNK         0.0600 
    225 H225       -3.8057  -18.5125  -52.9207 H         1 UNK         0.3000 
    226 H226       -3.4442  -16.3634  -53.0036 H         1 UNK         0.0600 
    227 H227       -5.1244  -14.6813  -52.3681 H         1 UNK         0.0600 
    228 H228       -6.4235  -15.8493  -52.5255 H         1 UNK         0.0600 
    229 H229       -5.2033  -16.0508  -51.2692 H         1 UNK         0.0600 
    230 H230       -6.0397  -17.4781  -55.0820 H         1 UNK         0.3000 
    231 H231       -5.7730  -15.4345  -57.1212 H         1 UNK         0.0600 
    232 H232       -7.2869  -16.9653  -58.3871 H         1 UNK         0.0600 
    233 H233       -7.8852  -16.6758  -56.7613 H         1 UNK         0.0600 
    234 H234       -7.0929  -18.2018  -57.1487 H         1 UNK         0.0600 
    235 H235       -3.3282  -15.7242  -56.9159 H         1 UNK         0.3000 
    236 H236       -1.3288  -16.1613  -57.7707 H         1 UNK         0.0600 
    237 H237       -2.7990  -17.0998  -60.2913 H         1 UNK         0.0600 
    238 H238       -2.4306  -15.4205  -59.8998 H         1 UNK         0.0600 
    239 H239       -1.1285  -16.5584  -60.1976 H         1 UNK         0.0600 
    240 H240       -2.7435  -18.3196  -56.3250 H         1 UNK         0.3000 
    241 H241       -2.5600  -20.3906  -55.6299 H         1 UNK         0.0600 
    242 H242       -4.0482  -21.4747  -58.9899 H         1 UNK         0.3800 
    243 H243       -3.8901  -19.8511  -58.3686 H         1 UNK         0.3800 
    244 H244        0.1391  -20.5809  -57.0374 H         1 UNK         0.0800 
    245 H245       -0.4669  -21.7346  -55.8828 H         1 UNK         0.0800 
    246 H246       -1.4794  -20.8670  -53.4788 H         1 UNK         0.0800 
    247 H247        0.0934  -21.6153  -53.3678 H         1 UNK         0.0800 
@<TRIPOS>BOND
     1    1    2 1    
     2    1  127 1    
     3    1  128 1    
     4    1  129 1    
     5    2    3 2    
     6    2    4 am   BACKBONE|DICT|INTERRES
     7    4    5 1    
     8    4  130 1    
     9    5    6 1    
    10    5   65 1    
    11    5  131 1    
    12    6    7 1    
    13    6  132 1    
    14    6  133 1    
    15    7    8 1    
    16    8    9 1    
    17    8  134 1    
    18    8  135 1    
    19    9   10 ar   
    20    9   14 ar   
    21   10   11 ar   
    22   10  136 1    
    23   11   12 ar   
    24   11  126 1    
    25   12   13 ar   
    26   12  137 1    
    27   13   14 ar   
    28   13   15 1    
    29   14  138 1    
    30   15   16 1    
    31   15  139 1    
    32   15  140 1    
    33   16   17 1    
    34   17   18 1    
    35   17  141 1    
    36   17  142 1    
    37   18   19 1    
    38   18   67 1    
    39   18  143 1    
    40   19   20 am   BACKBONE|DICT|INTERRES
    41   19  144 1    
    42   20   21 2    
    43   20   22 1    
    44   22   23 1    
    45   22   24 1    
    46   22  145 1    
    47   23  146 1    
    48   23  147 1    
    49   23  148 1    
    50   24   25 am   BACKBONE|DICT|INTERRES
    51   24  149 1    
    52   25   26 2    
    53   25   27 1    
    54   27   28 1    
    55   27   29 1    
    56   27  150 1    
    57   28  151 1    
    58   28  152 1    
    59   28  153 1    
    60   29   30 am   BACKBONE|DICT|INTERRES
    61   29  154 1    
    62   30   31 2    
    63   30   32 1    
    64   32   33 1    
    65   32   34 1    
    66   32  155 1    
    67   33  156 1    
    68   33  157 1    
    69   33  158 1    
    70   34   35 am   BACKBONE|DICT|INTERRES
    71   34  159 1    
    72   35   36 2    
    73   35   37 1    
    74   37   38 1    
    75   37   39 1    
    76   37  160 1    
    77   38  161 1    
    78   38  162 1    
    79   38  163 1    
    80   39   40 am   BACKBONE|DICT|INTERRES
    81   39  164 1    
    82   40   41 2    
    83   40   42 1    
    84   42   43 1    
    85   42   44 1    
    86   42  165 1    
    87   43  166 1    
    88   43  167 1    
    89   43  168 1    
    90   44   45 am   BACKBONE|DICT|INTERRES
    91   44  169 1    
    92   45   46 2    
    93   45   47 1    
    94   47   48 1    
    95   47   49 1    
    96   47  170 1    
    97   48  171 1    
    98   48  172 1    
    99   48  173 1    
   100   49   50 am   BACKBONE|DICT|INTERRES
   101   49  174 1    
   102   50   51 2    
   103   50   52 1    
   104   52   53 1    
   105   52   54 1    
   106   52  175 1    
   107   53  176 1    
   108   53  177 1    
   109   53  178 1    
   110   54   55 am   BACKBONE|DICT|INTERRES
   111   54  179 1    
   112   55   56 2    
   113   55   57 1    
   114   57   58 1    
   115   57   59 1    
   116   57  180 1    
   117   58  181 1    
   118   58  182 1    
   119   58  183 1    
   120   59   60 am   BACKBONE|DICT|INTERRES
   121   59  184 1    
   122   60   61 2    
   123   60   62 1    
   124   62   63 1    
   125   62   64 1    
   126   62  185 1    
   127   63  186 1    
   128   63  187 1    
   129   63  188 1    
   130   64   65 am   BACKBONE|DICT|INTERRES
   131   64  189 1    
   132   65   66 2    
   133   67   68 2    
   134   67   69 am   BACKBONE|DICT|INTERRES
   135   69   70 1    
   136   69  190 1    
   137   70   71 1    
   138   70   72 1    
   139   70  191 1    
   140   71  192 1    
   141   71  193 1    
   142   71  194 1    
   143   72   73 2    
   144   72   74 am   BACKBONE|DICT|INTERRES
   145   74   75 1    
   146   74  195 1    
   147   75   76 1    
   148   75   77 1    
   149   75  196 1    
   150   76  197 1    
   151   76  198 1    
   152   76  199 1    
   153   77   78 2    
   154   77   79 am   BACKBONE|DICT|INTERRES
   155   79   80 1    
   156   79  200 1    
   157   80   81 1    
   158   80   82 1    
   159   80  201 1    
   160   81  202 1    
   161   81  203 1    
   162   81  204 1    
   163   82   83 2    
   164   82   84 am   BACKBONE|DICT|INTERRES
   165   84   85 1    
   166   84  205 1    
   167   85   86 1    
   168   85   87 1    
   169   85  206 1    
   170   86  207 1    
   171   86  208 1    
   172   86  209 1    
   173   87   88 2    
   174   87   89 am   BACKBONE|DICT|INTERRES
   175   89   90 1    
   176   89  210 1    
   177   90   91 1    
   178   90   92 1    
   179   90  211 1    
   180   91  212 1    
   181   91  213 1    
   182   91  214 1    
   183   92   93 2    
   184   92   94 am   BACKBONE|DICT|INTERRES
   185   94   95 1    
   186   94  215 1    
   187   95   96 1    
   188   95   97 1    
   189   95  216 1    
   190   96  217 1    
   191   96  218 1    
   192   96  219 1    
   193   97   98 2    
   194   97   99 am   BACKBONE|DICT|INTERRES
   195   99  100 1    
   196   99  220 1    
   197  100  101 1    
   198  100  102 1    
   199  100  221 1    
   200  101  222 1    
   201  101  223 1    
   202  101  224 1    
   203  102  103 2    
   204  102  104 am   BACKBONE|DICT|INTERRES
   205  104  105 1    
   206  104  225 1    
   207  105  106 1    
   208  105  107 1    
   209  105  226 1    
   210  106  227 1    
   211  106  228 1    
   212  106  229 1    
   213  107  108 2    
   214  107  109 am   BACKBONE|DICT|INTERRES
   215  109  110 1    
   216  109  230 1    
   217  110  111 1    
   218  110  112 1    
   219  110  231 1    
   220  111  232 1    
   221  111  233 1    
   222  111  234 1    
   223  112  113 2    
   224  112  114 am   BACKBONE|DICT|INTERRES
   225  114  115 1    
   226  114  235 1    
   227  115  116 1    
   228  115  117 1    
   229  115  236 1    
   230  116  237 1    
   231  116  238 1    
   232  116  239 1    
   233  117  118 2    
   234  117  119 am   BACKBONE|DICT|INTERRES
   235  119  120 1    
   236  119  240 1    
   237  120  121 1    
   238  120  124 1    
   239  120  241 1    
   240  121  122 am   BACKBONE|DICT|INTERRES
   241  121  123 2    
   242  122  242 1    
   243  122  243 1    
   244  124  125 1    
   245  124  244 1    
   246  124  245 1    
   247  125  126 1    
   248  126  246 1    
   249  126  247 1    
@<TRIPOS>SUBSTRUCTURE
     1 UNK         1 GROUP             0       ****    0 ROOT    
