@<TRIPOS>MOLECULE
3R540
247   249    1
SMALL
USER_CHARGES


@<TRIPOS>ATOM
      1 CA         -0.7833  -14.6202  -51.0300 C.3       0 UNK        -0.1800 
      2 C           0.4003  -14.0287  -50.2803 C.2       0 UNK         0.5000 
      3 O           0.5848  -12.8117  -50.2850 O.2       0 UNK        -0.5000 
      4 N           1.2039  -14.8842  -49.6341 N.am      1 UNK        -0.5000 
      5 CA          2.4115  -14.4934  -48.8935 C.3       1 UNK         0.1400 
      6 C6          3.4409  -15.6595  -48.8149 C.3       23 UNK        -0.0398 
      7 S7          3.1469  -16.9189  -47.5163 S.3       23 UNK        -0.2404 
      8 C8          2.6711  -18.4025  -48.4522 C.3       23 UNK        -0.0205 
      9 C9          1.3428  -18.2451  -49.1749 C.ar      23 UNK        -0.0193 
     10 C10         1.2659  -18.4906  -50.5475 C.ar      23 UNK        -0.1150 
     11 C11         0.0468  -18.3855  -51.2197 C.ar      23 UNK        -0.0193 
     12 C12        -1.1027  -18.0285  -50.5102 C.ar      23 UNK        -0.1150 
     13 C13        -1.0365  -17.7633  -49.1395 C.ar      23 UNK        -0.0193 
     14 C14         0.1883  -17.8778  -48.4756 C.ar      23 UNK        -0.1150 
     15 C15        -2.2852  -17.3300  -48.3885 C.3       23 UNK        -0.0205 
     16 S16        -3.2073  -18.7489  -47.7251 S.3       23 UNK        -0.2404 
     17 C17        -2.2026  -19.2135  -46.2745 C.3       23 UNK        -0.0398 
     18 CA         -1.2683  -20.4261  -46.5181 C.3       11 UNK         0.1400 
     19 N          -0.1332  -20.4023  -45.5850 N.am      11 UNK        -0.5000 
     20 C           0.9149  -21.2387  -45.5878 C.2       10 UNK         0.5000 
     21 O           1.0877  -22.1047  -46.4446 O.2       10 UNK        -0.5000 
     22 CA          1.8968  -21.1483  -44.4002 C.3       10 UNK         0.1400 
     23 CB          3.1808  -20.4120  -44.8111 C.3       10 UNK        -0.1800 
     24 N           1.3268  -20.5256  -43.1980 N.am      10 UNK        -0.5000 
     25 C           0.3045  -21.0258  -42.4860 C.2       9 UNK         0.5000 
     26 O          -0.2605  -22.0828  -42.7655 O.2       9 UNK        -0.5000 
     27 CA         -0.2154  -20.1805  -41.3061 C.3       9 UNK         0.1400 
     28 CB          0.6116  -20.4285  -40.0361 C.3       9 UNK        -0.1800 
     29 N          -0.2396  -18.7495  -41.6143 N.am      9 UNK        -0.5000 
     30 C          -1.0568  -18.1901  -42.5182 C.2       8 UNK         0.5000 
     31 O          -1.9390  -18.8100  -43.1095 O.2       8 UNK        -0.5000 
     32 CA         -0.8128  -16.7109  -42.8701 C.3       8 UNK         0.1400 
     33 CB         -1.5550  -15.7765  -41.9045 C.3       8 UNK        -0.1800 
     34 N           0.6103  -16.3726  -42.8928 N.am      8 UNK        -0.5000 
     35 C           1.4954  -16.8770  -43.7632 C.2       7 UNK         0.5000 
     36 O           1.1732  -17.5987  -44.7053 O.2       7 UNK        -0.5000 
     37 CA          2.9841  -16.5735  -43.5002 C.3       7 UNK         0.1400 
     38 CB          3.4276  -15.2533  -44.1381 C.3       7 UNK        -0.1800 
     39 N           3.2865  -16.5209  -42.0735 N.am      7 UNK        -0.5000 
     40 C           3.3886  -17.5932  -41.2806 C.2       6 UNK         0.5000 
     41 O           3.2732  -18.7505  -41.6820 O.2       6 UNK        -0.5000 
     42 CA          3.6197  -17.3143  -39.7836 C.3       6 UNK         0.1400 
     43 CB          5.1192  -17.1664  -39.4865 C.3       6 UNK        -0.1800 
     44 N           2.9130  -16.1154  -39.3224 N.am      6 UNK        -0.5000 
     45 C           1.5792  -16.0218  -39.2318 C.2       5 UNK         0.5000 
     46 O           0.8150  -16.9496  -39.4963 O.2       5 UNK        -0.5000 
     47 CA          1.0005  -14.6533  -38.8220 C.3       5 UNK         0.1400 
     48 CB          0.9580  -14.5243  -37.2921 C.3       5 UNK        -0.1800 
     49 N           1.7174  -13.5037  -39.3871 N.am      5 UNK        -0.5000 
     50 C           1.8502  -13.2511  -40.6958 C.2       4 UNK         0.5000 
     51 O           1.4403  -14.0055  -41.5810 O.2       4 UNK        -0.5000 
     52 CA          2.5883  -11.9613  -41.0817 C.3       4 UNK         0.1400 
     53 CB          4.1015  -12.1005  -40.8404 C.3       4 UNK        -0.1800 
     54 N           2.3496  -11.6846  -42.4952 N.am      4 UNK        -0.5000 
     55 C           2.2907  -10.4770  -43.0684 C.2       3 UNK         0.5000 
     56 O           2.4390   -9.4244  -42.4459 O.2       3 UNK        -0.5000 
     57 CA          2.0423  -10.4235  -44.5919 C.3       3 UNK         0.1400 
     58 CB          3.2962   -9.9164  -45.3221 C.3       3 UNK        -0.1800 
     59 N           1.6747  -11.7219  -45.1604 N.am      3 UNK        -0.5000 
     60 C           0.4452  -12.2418  -45.1960 C.2       2 UNK         0.5000 
     61 O          -0.5530  -11.6315  -44.8096 O.2       2 UNK        -0.5000 
     62 CA          0.3214  -13.6950  -45.7131 C.3       2 UNK         0.1400 
     63 CB         -1.1246  -14.2179  -45.6585 C.3       2 UNK        -0.1800 
     64 N           0.8486  -13.9639  -47.0562 N.am      2 UNK        -0.5000 
     65 C           2.1090  -13.8663  -47.5093 C.2       1 UNK         0.5000 
     66 O           3.0327  -13.3545  -46.8760 O.2       1 UNK        -0.5000 
     67 C          -2.0548  -21.7614  -46.4952 C.2       11 UNK         0.5000 
     68 O          -2.7488  -22.0746  -47.4621 O.2       11 UNK        -0.5000 
     69 N          -1.9153  -22.5504  -45.4174 N.am      12 UNK        -0.5000 
     70 CA         -2.4858  -23.8916  -45.2893 C.3       12 UNK         0.1400 
     71 CB         -2.3041  -24.3832  -43.8462 C.3       12 UNK        -0.1800 
     72 C          -1.9059  -24.9203  -46.2826 C.2       12 UNK         0.5000 
     73 O          -2.5598  -25.9366  -46.5199 O.2       12 UNK        -0.5000 
     74 N          -0.7203  -24.6515  -46.8565 N.am      13 UNK        -0.5000 
     75 CA         -0.0570  -25.4700  -47.8764 C.3       13 UNK         0.1400 
     76 CB          1.2972  -24.8380  -48.2340 C.3       13 UNK        -0.1800 
     77 C          -0.9410  -25.6416  -49.1268 C.2       13 UNK         0.5000 
     78 O          -1.1051  -24.6945  -49.9000 O.2       13 UNK        -0.5000 
     79 N          -1.5662  -26.8240  -49.2391 N.am      14 UNK        -0.5000 
     80 CA         -2.5921  -27.2039  -50.2213 C.3       14 UNK         0.1400 
     81 CB         -1.9731  -27.3095  -51.6310 C.3       14 UNK        -0.1800 
     82 C          -3.8398  -26.2903  -50.2018 C.2       14 UNK         0.5000 
     83 O          -4.5526  -26.2155  -51.2034 O.2       14 UNK        -0.5000 
     84 N          -4.0535  -25.5727  -49.0869 N.am      15 UNK        -0.5000 
     85 CA         -5.0197  -24.4846  -48.9013 C.3       15 UNK         0.1400 
     86 CB         -6.4461  -25.0572  -48.7755 C.3       15 UNK        -0.1800 
     87 C          -4.9041  -23.3852  -49.9832 C.2       15 UNK         0.5000 
     88 O          -5.9255  -22.9034  -50.4733 O.2       15 UNK        -0.5000 
     89 N          -3.6638  -23.0545  -50.3782 N.am      16 UNK        -0.5000 
     90 CA         -3.3003  -22.1525  -51.4772 C.3       16 UNK         0.1400 
     91 CB         -3.6853  -20.6951  -51.1548 C.3       16 UNK        -0.1800 
     92 C          -3.8574  -22.6410  -52.8302 C.2       16 UNK         0.5000 
     93 O          -4.4869  -21.8734  -53.5639 O.2       16 UNK        -0.5000 
     94 N          -3.6275  -23.9321  -53.1095 N.am      17 UNK        -0.5000 
     95 CA         -4.1126  -24.6964  -54.2628 C.3       17 UNK         0.1400 
     96 CB         -3.4682  -24.1894  -55.5699 C.3       17 UNK        -0.1800 
     97 C          -5.6534  -24.7489  -54.3184 C.2       17 UNK         0.5000 
     98 O          -6.2464  -24.4748  -55.3613 O.2       17 UNK        -0.5000 
     99 N          -6.2645  -25.0920  -53.1755 N.am      18 UNK        -0.5000 
    100 CA        -7.7077  -25.1595  -52.9248 C.3       18 UNK         0.1400 
    101 CB        -8.3496  -26.3095  -53.7288 C.3       18 UNK        -0.1800 
    102 C         -8.4069  -23.7998  -53.1367 C.2       18 UNK         0.5000 
    103 O         -9.3911  -23.7115  -53.8736 O.2       18 UNK        -0.5000 
    104 N         -7.8678  -22.7653  -52.4760 N.am      19 UNK        -0.5000 
    105 CA        -8.3183  -21.3707  -52.4710 C.3       19 UNK         0.1400 
    106 CB        -9.7015  -21.2445  -51.7987 C.3       19 UNK        -0.1800 
    107 C         -8.2522  -20.6930  -53.8561 C.2       19 UNK         0.5000 
    108 O         -9.0838  -19.8372  -54.1643 O.2       19 UNK        -0.5000 
    109 N         -7.2467  -21.0665  -54.6575 N.am      20 UNK        -0.5000 
    110 CA        -6.9793  -20.5113  -55.9869 C.3       20 UNK         0.1400 
    111 CB        -6.6574  -21.6646  -56.9505 C.3       20 UNK        -0.1800 
    112 C         -5.8349  -19.4794  -55.9598 C.2       20 UNK         0.5000 
    113 O         -5.3271  -19.1152  -57.0220 O.2       20 UNK        -0.5000 
    114 N         -5.4161  -19.0577  -54.7554 N.am      21 UNK        -0.5000 
    115 CA        -4.2971  -18.1504  -54.4715 C.3       21 UNK         0.1400 
    116 CB        -4.6304  -16.7150  -54.9274 C.3       21 UNK        -0.1800 
    117 C         -2.9610  -18.6723  -55.0410 C.2       21 UNK         0.5000 
    118 O         -2.1582  -17.8959  -55.5611 O.2       21 UNK        -0.5000 
    119 N         -2.7733  -19.9948  -54.9462 N.am      22 UNK        -0.5000 
    120 CA        -1.6476  -20.7700  -55.4920 C.3       22 UNK         0.1400 
    121 C         -1.6318  -20.8840  -57.0480 C.2       22 UNK         0.5000 
    122 N         -2.6668  -20.4625  -57.7667 N.am      22 UNK        -0.7600 
    123 O         -0.6745  -21.3985  -57.6196 O.2       22 UNK        -0.5000 
    124 C124       -0.2637  -20.3618  -54.9122 C.3       23 UNK        -0.0398 
    125 S125       -0.2108  -20.4058  -53.0865 S.3       23 UNK        -0.2404 
    126 C126       -0.0185  -18.6363  -52.7155 C.3       23 UNK        -0.0205 
    127 H127       -1.5474  -14.9572  -50.3303 H         1 UNK         0.0600 
    128 H128       -0.4682  -15.4649  -51.6419 H         1 UNK         0.0600 
    129 H129       -1.2312  -13.8778  -51.6909 H         1 UNK         0.0600 
    130 H130        1.0008  -15.8755  -49.6502 H         1 UNK         0.3000 
    131 H131        2.8947  -13.7027  -49.4718 H         1 UNK         0.0600 
    132 H132        3.5299  -16.1490  -49.7857 H         1 UNK         0.0800 
    133 H133        4.4288  -15.2402  -48.6183 H         1 UNK         0.0800 
    134 H134        3.4729  -18.6567  -49.1471 H         1 UNK         0.0800 
    135 H135        2.5877  -19.2399  -47.7582 H         1 UNK         0.0800 
    136 H136        2.1531  -18.7746  -51.0962 H         1 UNK         0.1150 
    137 H137       -2.0479  -17.9430  -51.0275 H         1 UNK         0.1150 
    138 H138        0.2485  -17.6840  -47.4131 H         1 UNK         0.1150 
    139 H139       -2.0308  -16.6396  -47.5849 H         1 UNK         0.0800 
    140 H140       -2.9423  -16.7764  -49.0607 H         1 UNK         0.0800 
    141 H141       -2.8827  -19.4111  -45.4447 H         1 UNK         0.0800 
    142 H142       -1.6210  -18.3424  -45.9697 H         1 UNK         0.0800 
    143 H143       -0.8395  -20.3380  -47.5180 H         1 UNK         0.0600 
    144 H144       -0.1712  -19.7078  -44.8512 H         1 UNK         0.3000 
    145 H145        2.1703  -22.1711  -44.1333 H         1 UNK         0.0600 
    146 H146        3.8860  -20.3484  -43.9823 H         1 UNK         0.0600 
    147 H147        3.6827  -20.9354  -45.6257 H         1 UNK         0.0600 
    148 H148        2.9753  -19.4006  -45.1583 H         1 UNK         0.0600 
    149 H149        1.7725  -19.6754  -42.8734 H         1 UNK         0.3000 
    150 H150       -1.2409  -20.4956  -41.1020 H         1 UNK         0.0600 
    151 H151        0.5921  -21.4834  -39.7600 H         1 UNK         0.0600 
    152 H152        0.2159  -19.8633  -39.1920 H         1 UNK         0.0600 
    153 H153        1.6551  -20.1449  -40.1670 H         1 UNK         0.0600 
    154 H154        0.4083  -18.1563  -41.1075 H         1 UNK         0.3000 
    155 H155       -1.2113  -16.5463  -43.8720 H         1 UNK         0.0600 
    156 H156       -2.6305  -15.9519  -41.9455 H         1 UNK         0.0600 
    157 H157       -1.3846  -14.7297  -42.1570 H         1 UNK         0.0600 
    158 H158       -1.2392  -15.9277  -40.8731 H         1 UNK         0.0600 
    159 H159        0.9371  -15.7137  -42.1918 H         1 UNK         0.3000 
    160 H160        3.5711  -17.3755  -43.9522 H         1 UNK         0.0600 
    161 H161        2.8970  -14.3958  -43.7286 H         1 UNK         0.0600 
    162 H162        3.2484  -15.2737  -45.2084 H         1 UNK         0.0600 
    163 H163        4.4950  -15.0847  -43.9956 H         1 UNK         0.0600 
    164 H164        3.3409  -15.6044  -41.6552 H         1 UNK         0.3000 
    165 H165        3.2426  -18.1726  -39.2233 H         1 UNK         0.0600 
    166 H166        5.2987  -17.0402  -38.4187 H         1 UNK         0.0600 
    167 H167        5.6688  -18.0533  -39.8048 H         1 UNK         0.0600 
    168 H168        5.5512  -16.3089  -40.0039 H         1 UNK         0.0600 
    169 H169        3.4740  -15.3108  -39.0840 H         1 UNK         0.3000 
    170 H170       -0.0258  -14.6111  -39.1916 H         1 UNK         0.0600 
    171 H171        0.4122  -15.3564  -36.8449 H         1 UNK         0.0600 
    172 H172        1.9593  -14.5181  -36.8597 H         1 UNK         0.0600 
    173 H173        0.4542  -13.6069  -36.9873 H         1 UNK         0.0600 
    174 H174        2.0933  -12.8424  -38.7228 H         1 UNK         0.3000 
    175 H175        2.1889  -11.1479  -40.4725 H         1 UNK         0.0600 
    176 H176        4.5283  -12.9149  -41.4276 H         1 UNK         0.0600 
    177 H177        4.6283  -11.1848  -41.1095 H         1 UNK         0.0600 
    178 H178        4.3195  -12.3004  -39.7908 H         1 UNK         0.0600 
    179 H179        2.1375  -12.5014  -43.0508 H         1 UNK         0.3000 
    180 H180        1.2333   -9.7116  -44.7682 H         1 UNK         0.0600 
    181 H181        4.1432  -10.5888  -45.1789 H         1 UNK         0.0600 
    182 H182        3.5921   -8.9314  -44.9589 H         1 UNK         0.0600 
    183 H183        3.1182   -9.8263  -46.3939 H         1 UNK         0.0600 
    184 H184        2.4228  -12.2664  -45.5869 H         1 UNK         0.3000 
    185 H185        0.8994  -14.3030  -45.0197 H         1 UNK         0.0600 
    186 H186       -1.5541  -14.0927  -44.6639 H         1 UNK         0.0600 
    187 H187       -1.7689  -13.6936  -46.3651 H         1 UNK         0.0600 
    188 H188       -1.1629  -15.2813  -45.8911 H         1 UNK         0.0600 
    189 H189        0.1862  -14.3700  -47.6991 H         1 UNK         0.3000 
    190 H190       -1.3291  -22.2382  -44.6516 H         1 UNK         0.3000 
    191 H191       -3.5566  -23.8164  -45.4891 H         1 UNK         0.0600 
    192 H192       -1.2498  -24.5000  -43.5924 H         1 UNK         0.0600 
    193 H193       -2.7465  -23.6884  -43.1320 H         1 UNK         0.0600 
    194 H194       -2.7854  -25.3509  -43.6989 H         1 UNK         0.0600 
    195 H195       -0.2623  -23.7762  -46.6298 H         1 UNK         0.3000 
    196 H196        0.1363  -26.4528  -47.4421 H         1 UNK         0.0600 
    197 H197        1.8217  -25.4347  -48.9812 H         1 UNK         0.0600 
    198 H198        1.9440  -24.7688  -47.3591 H         1 UNK         0.0600 
    199 H199        1.1781  -23.8328  -48.6408 H         1 UNK         0.0600 
    200 H200       -1.4031  -27.5076  -48.5123 H         1 UNK         0.3000 
    201 H201       -2.9412  -28.1968  -49.9349 H         1 UNK         0.0600 
    202 H202       -2.6877  -27.7198  -52.3455 H         1 UNK         0.0600 
    203 H203       -1.1052  -27.9688  -51.6307 H         1 UNK         0.0600 
    204 H204       -1.6543  -26.3378  -52.0089 H         1 UNK         0.0600 
    205 H205       -3.4283  -25.7342  -48.3033 H         1 UNK         0.3000 
    206 H206       -4.7691  -24.0049  -47.9544 H         1 UNK         0.0600 
    207 H207       -6.5048  -25.7896  -47.9704 H         1 UNK         0.0600 
    208 H208       -7.1678  -24.2711  -48.5503 H         1 UNK         0.0600 
    209 H209       -6.7678  -25.5459  -49.6948 H         1 UNK         0.0600 
    210 H210       -2.8819  -23.5198  -49.9291 H         1 UNK         0.3000 
    211 H211       -2.2133  -22.1942  -51.5575 H         1 UNK         0.0600 
    212 H212       -4.7652  -20.5574  -51.0978 H         1 UNK         0.0600 
    213 H213       -3.3054  -20.0163  -51.9181 H         1 UNK         0.0600 
    214 H214       -3.2548  -20.3834  -50.2041 H         1 UNK         0.0600 
    215 H215       -3.1511  -24.4776  -52.4053 H         1 UNK         0.3000 
    216 H216       -3.7801  -25.7244  -54.1115 H         1 UNK         0.0600 
    217 H217       -3.7576  -24.8146  -56.4152 H         1 UNK         0.0600 
    218 H218       -3.7683  -23.1685  -55.8037 H         1 UNK         0.0600 
    219 H219       -2.3805  -24.2149  -55.5076 H         1 UNK         0.0600 
    220 H220       -5.6716  -25.3417  -52.3859 H         1 UNK         0.3000 
    221 H221       -7.8232  -25.3991  -51.8674 H         1 UNK         0.0600 
    222 H222       -8.3065  -26.1297  -54.8034 H         1 UNK         0.0600 
    223 H223       -7.8499  -27.2569  -53.5271 H         1 UNK         0.0600 
    224 H224       -9.3994  -26.4330  -53.4607 H         1 UNK         0.0600 
    225 H225       -7.0661  -22.9447  -51.8721 H         1 UNK         0.3000 
    226 H226       -7.6038  -20.8343  -51.8450 H         1 UNK         0.0600 
    227 H227       -9.7058  -21.7167  -50.8162 H         1 UNK         0.0600 
    228 H228       -9.9731  -20.1982  -51.6546 H         1 UNK         0.0600 
    229 H229      -10.4872  -21.7064  -52.3971 H         1 UNK         0.0600 
    230 H230       -6.5774  -21.7479  -54.3171 H         1 UNK         0.3000 
    231 H231       -7.8642  -19.9976  -56.3672 H         1 UNK         0.0600 
    232 H232       -5.7215  -22.1562  -56.6860 H         1 UNK         0.0600 
    233 H233       -6.5612  -21.3072  -57.9763 H         1 UNK         0.0600 
    234 H234       -7.4459  -22.4174  -56.9427 H         1 UNK         0.0600 
    235 H235       -5.8675  -19.4641  -53.9490 H         1 UNK         0.3000 
    236 H236       -4.1795  -18.1330  -53.3872 H         1 UNK         0.0600 
    237 H237       -5.5722  -16.3740  -54.4978 H         1 UNK         0.0600 
    238 H238       -3.8572  -16.0146  -54.6095 H         1 UNK         0.0600 
    239 H239       -4.7110  -16.6429  -56.0125 H         1 UNK         0.0600 
    240 H240       -3.5049  -20.5516  -54.5126 H         1 UNK         0.3000 
    241 H241       -1.8304  -21.7893  -55.1541 H         1 UNK         0.0600 
    242 H242       -2.6379  -20.5581  -58.7692 H         1 UNK         0.3800 
    243 H243       -3.4653  -20.0142  -57.3337 H         1 UNK         0.3800 
    244 H244        0.5087  -21.0459  -55.2671 H         1 UNK         0.0800 
    245 H245        0.0284  -19.3750  -55.2732 H         1 UNK         0.0800 
    246 H246       -0.8457  -18.0747  -53.1487 H         1 UNK         0.0800 
    247 H247        0.8890  -18.2622  -53.1918 H         1 UNK         0.0800 
@<TRIPOS>BOND
     1    1    2 1    
     2    1  127 1    
     3    1  128 1    
     4    1  129 1    
     5    2    3 2    
     6    2    4 am   BACKBONE|DICT|INTERRES
     7    4    5 1    
     8    4  130 1    
     9    5    6 1    
    10    5   65 1    
    11    5  131 1    
    12    6    7 1    
    13    6  132 1    
    14    6  133 1    
    15    7    8 1    
    16    8    9 1    
    17    8  134 1    
    18    8  135 1    
    19    9   10 ar   
    20    9   14 ar   
    21   10   11 ar   
    22   10  136 1    
    23   11   12 ar   
    24   11  126 1    
    25   12   13 ar   
    26   12  137 1    
    27   13   14 ar   
    28   13   15 1    
    29   14  138 1    
    30   15   16 1    
    31   15  139 1    
    32   15  140 1    
    33   16   17 1    
    34   17   18 1    
    35   17  141 1    
    36   17  142 1    
    37   18   19 1    
    38   18   67 1    
    39   18  143 1    
    40   19   20 am   BACKBONE|DICT|INTERRES
    41   19  144 1    
    42   20   21 2    
    43   20   22 1    
    44   22   23 1    
    45   22   24 1    
    46   22  145 1    
    47   23  146 1    
    48   23  147 1    
    49   23  148 1    
    50   24   25 am   BACKBONE|DICT|INTERRES
    51   24  149 1    
    52   25   26 2    
    53   25   27 1    
    54   27   28 1    
    55   27   29 1    
    56   27  150 1    
    57   28  151 1    
    58   28  152 1    
    59   28  153 1    
    60   29   30 am   BACKBONE|DICT|INTERRES
    61   29  154 1    
    62   30   31 2    
    63   30   32 1    
    64   32   33 1    
    65   32   34 1    
    66   32  155 1    
    67   33  156 1    
    68   33  157 1    
    69   33  158 1    
    70   34   35 am   BACKBONE|DICT|INTERRES
    71   34  159 1    
    72   35   36 2    
    73   35   37 1    
    74   37   38 1    
    75   37   39 1    
    76   37  160 1    
    77   38  161 1    
    78   38  162 1    
    79   38  163 1    
    80   39   40 am   BACKBONE|DICT|INTERRES
    81   39  164 1    
    82   40   41 2    
    83   40   42 1    
    84   42   43 1    
    85   42   44 1    
    86   42  165 1    
    87   43  166 1    
    88   43  167 1    
    89   43  168 1    
    90   44   45 am   BACKBONE|DICT|INTERRES
    91   44  169 1    
    92   45   46 2    
    93   45   47 1    
    94   47   48 1    
    95   47   49 1    
    96   47  170 1    
    97   48  171 1    
    98   48  172 1    
    99   48  173 1    
   100   49   50 am   BACKBONE|DICT|INTERRES
   101   49  174 1    
   102   50   51 2    
   103   50   52 1    
   104   52   53 1    
   105   52   54 1    
   106   52  175 1    
   107   53  176 1    
   108   53  177 1    
   109   53  178 1    
   110   54   55 am   BACKBONE|DICT|INTERRES
   111   54  179 1    
   112   55   56 2    
   113   55   57 1    
   114   57   58 1    
   115   57   59 1    
   116   57  180 1    
   117   58  181 1    
   118   58  182 1    
   119   58  183 1    
   120   59   60 am   BACKBONE|DICT|INTERRES
   121   59  184 1    
   122   60   61 2    
   123   60   62 1    
   124   62   63 1    
   125   62   64 1    
   126   62  185 1    
   127   63  186 1    
   128   63  187 1    
   129   63  188 1    
   130   64   65 am   BACKBONE|DICT|INTERRES
   131   64  189 1    
   132   65   66 2    
   133   67   68 2    
   134   67   69 am   BACKBONE|DICT|INTERRES
   135   69   70 1    
   136   69  190 1    
   137   70   71 1    
   138   70   72 1    
   139   70  191 1    
   140   71  192 1    
   141   71  193 1    
   142   71  194 1    
   143   72   73 2    
   144   72   74 am   BACKBONE|DICT|INTERRES
   145   74   75 1    
   146   74  195 1    
   147   75   76 1    
   148   75   77 1    
   149   75  196 1    
   150   76  197 1    
   151   76  198 1    
   152   76  199 1    
   153   77   78 2    
   154   77   79 am   BACKBONE|DICT|INTERRES
   155   79   80 1    
   156   79  200 1    
   157   80   81 1    
   158   80   82 1    
   159   80  201 1    
   160   81  202 1    
   161   81  203 1    
   162   81  204 1    
   163   82   83 2    
   164   82   84 am   BACKBONE|DICT|INTERRES
   165   84   85 1    
   166   84  205 1    
   167   85   86 1    
   168   85   87 1    
   169   85  206 1    
   170   86  207 1    
   171   86  208 1    
   172   86  209 1    
   173   87   88 2    
   174   87   89 am   BACKBONE|DICT|INTERRES
   175   89   90 1    
   176   89  210 1    
   177   90   91 1    
   178   90   92 1    
   179   90  211 1    
   180   91  212 1    
   181   91  213 1    
   182   91  214 1    
   183   92   93 2    
   184   92   94 am   BACKBONE|DICT|INTERRES
   185   94   95 1    
   186   94  215 1    
   187   95   96 1    
   188   95   97 1    
   189   95  216 1    
   190   96  217 1    
   191   96  218 1    
   192   96  219 1    
   193   97   98 2    
   194   97   99 am   BACKBONE|DICT|INTERRES
   195   99  100 1    
   196   99  220 1    
   197  100  101 1    
   198  100  102 1    
   199  100  221 1    
   200  101  222 1    
   201  101  223 1    
   202  101  224 1    
   203  102  103 2    
   204  102  104 am   BACKBONE|DICT|INTERRES
   205  104  105 1    
   206  104  225 1    
   207  105  106 1    
   208  105  107 1    
   209  105  226 1    
   210  106  227 1    
   211  106  228 1    
   212  106  229 1    
   213  107  108 2    
   214  107  109 am   BACKBONE|DICT|INTERRES
   215  109  110 1    
   216  109  230 1    
   217  110  111 1    
   218  110  112 1    
   219  110  231 1    
   220  111  232 1    
   221  111  233 1    
   222  111  234 1    
   223  112  113 2    
   224  112  114 am   BACKBONE|DICT|INTERRES
   225  114  115 1    
   226  114  235 1    
   227  115  116 1    
   228  115  117 1    
   229  115  236 1    
   230  116  237 1    
   231  116  238 1    
   232  116  239 1    
   233  117  118 2    
   234  117  119 am   BACKBONE|DICT|INTERRES
   235  119  120 1    
   236  119  240 1    
   237  120  121 1    
   238  120  124 1    
   239  120  241 1    
   240  121  122 am   BACKBONE|DICT|INTERRES
   241  121  123 2    
   242  122  242 1    
   243  122  243 1    
   244  124  125 1    
   245  124  244 1    
   246  124  245 1    
   247  125  126 1    
   248  126  246 1    
   249  126  247 1    
@<TRIPOS>SUBSTRUCTURE
     1 UNK         1 GROUP             0       ****    0 ROOT    
