@<TRIPOS>MOLECULE
3R540
247   249    1
SMALL
USER_CHARGES


@<TRIPOS>ATOM
      1 CA         -4.6260  -14.2765  -44.9633 C.3       0 UNK        -0.1800 
      2 C          -3.9338  -14.3312  -46.3174 C.2       0 UNK         0.5000 
      3 O          -3.8150  -13.3022  -46.9799 O.2       0 UNK        -0.5000 
      4 N          -3.4620  -15.5226  -46.7123 N.am      1 UNK        -0.5000 
      5 CA         -2.7767  -15.8361  -47.9775 C.3       1 UNK         0.1400 
      6 C6         -2.3347  -17.3215  -47.9748 C.3       23 UNK        -0.0398 
      7 S7         -1.7869  -18.0016  -49.5761 S.3       23 UNK        -0.2404 
      8 C8          0.0225  -17.8833  -49.4086 C.3       23 UNK        -0.0205 
      9 C9          0.7408  -18.6702  -50.4918 C.ar      23 UNK        -0.0193 
     10 C10         0.7486  -18.1989  -51.8080 C.ar      23 UNK        -0.1150 
     11 C11         1.4242  -18.9018  -52.8083 C.ar      23 UNK        -0.0193 
     12 C12         2.0971  -20.0841  -52.4807 C.ar      23 UNK        -0.1150 
     13 C13         2.1136  -20.5591  -51.1642 C.ar      23 UNK        -0.0193 
     14 C14         1.4269  -19.8480  -50.1745 C.ar      23 UNK        -0.1150 
     15 C15         2.9294  -21.7998  -50.8121 C.3       23 UNK        -0.0205 
     16 S16         1.9094  -23.2090  -50.2638 S.3       23 UNK        -0.2404 
     17 C17         2.1812  -23.1948  -48.4563 C.3       23 UNK        -0.0398 
     18 CA          0.9542  -23.6847  -47.6476 C.3       11 UNK         0.1400 
     19 N           1.3179  -24.0437  -46.2710 N.am      11 UNK        -0.5000 
     20 C           0.5009  -24.6655  -45.4068 C.2       10 UNK         0.5000 
     21 O          -0.6346  -25.0441  -45.6910 O.2       10 UNK        -0.5000 
     22 CA          1.0221  -24.8547  -43.9695 C.3       10 UNK         0.1400 
     23 CB          1.9119  -26.1033  -43.8766 C.3       10 UNK        -0.1800 
     24 N           1.7526  -23.6943  -43.4482 N.am      10 UNK        -0.5000 
     25 C           1.2249  -22.4738  -43.2824 C.2       9 UNK         0.5000 
     26 O           0.0758  -22.1816  -43.6160 O.2       9 UNK        -0.5000 
     27 CA          2.1586  -21.3963  -42.6957 C.3       9 UNK         0.1400 
     28 CB          3.0737  -20.8402  -43.7979 C.3       9 UNK        -0.1800 
     29 N           1.4395  -20.2816  -42.0689 N.am      9 UNK        -0.5000 
     30 C           0.6551  -20.3835  -40.9832 C.2       8 UNK         0.5000 
     31 O           0.4870  -21.4394  -40.3704 O.2       8 UNK        -0.5000 
     32 CA         -0.0363  -19.1050  -40.4557 C.3       8 UNK         0.1400 
     33 CB          0.5498  -18.7003  -39.0936 C.3       8 UNK        -0.1800 
     34 N           0.0654  -17.9600  -41.3611 N.am      8 UNK        -0.5000 
     35 C          -0.6742  -17.7845  -42.4652 C.2       7 UNK         0.5000 
     36 O          -1.6078  -18.5237  -42.7748 O.2       7 UNK        -0.5000 
     37 CA         -0.3123  -16.6009  -43.3938 C.3       7 UNK         0.1400 
     38 CB         -1.4166  -15.5328  -43.3727 C.3       7 UNK        -0.1800 
     39 N           0.9754  -15.9682  -43.0985 N.am      7 UNK        -0.5000 
     40 C           2.1735  -16.5691  -43.1833 C.2       6 UNK         0.5000 
     41 O           2.3172  -17.7191  -43.5959 O.2       6 UNK        -0.5000 
     42 CA          3.4083  -15.7927  -42.6742 C.3       6 UNK         0.1400 
     43 CB          4.2347  -15.2613  -43.8547 C.3       6 UNK        -0.1800 
     44 N           3.0880  -14.6747  -41.7831 N.am      6 UNK        -0.5000 
     45 C           2.4279  -14.7585  -40.6186 C.2       5 UNK         0.5000 
     46 O           2.1156  -15.8270  -40.0920 O.2       5 UNK        -0.5000 
     47 CA          1.9808  -13.4303  -39.9683 C.3       5 UNK         0.1400 
     48 CB          2.9014  -13.0768  -38.7905 C.3       5 UNK        -0.1800 
     49 N           1.9121  -12.2781  -40.8810 N.am      5 UNK        -0.5000 
     50 C           1.1928  -12.2032  -42.0112 C.2       4 UNK         0.5000 
     51 O           0.5128  -13.1379  -42.4415 O.2       4 UNK        -0.5000 
     52 CA          1.3102  -10.8874  -42.8091 C.3       4 UNK         0.1400 
     53 CB          2.7686  -10.6231  -43.2248 C.3       4 UNK        -0.1800 
     54 N           0.4985  -10.9104  -44.0235 N.am      4 UNK        -0.5000 
     55 C          -0.8285  -10.7714  -44.0993 C.2       3 UNK         0.5000 
     56 O          -1.5410  -10.4905  -43.1345 O.2       3 UNK        -0.5000 
     57 CA         -1.4754  -10.9918  -45.4846 C.3       3 UNK         0.1400 
     58 CB         -1.3707   -9.7263  -46.3564 C.3       3 UNK        -0.1800 
     59 N          -0.9974  -12.1826  -46.2061 N.am      3 UNK        -0.5000 
     60 C           0.2242  -12.4552  -46.6927 C.2       2 UNK         0.5000 
     61 O           1.1696  -11.6675  -46.6406 O.2       2 UNK        -0.5000 
     62 CA          0.4568  -13.8552  -47.2956 C.3       2 UNK         0.1400 
     63 CB          1.5869  -14.5792  -46.5463 C.3       2 UNK        -0.1800 
     64 N          -0.7382  -14.6991  -47.2406 N.am      2 UNK        -0.5000 
     65 C          -1.5798  -14.9002  -48.2628 C.2       1 UNK         0.5000 
     66 O          -1.4550  -14.3766  -49.3700 O.2       1 UNK        -0.5000 
     67 C          -0.1848  -22.6467  -47.6668 C.2       11 UNK         0.5000 
     68 O          -1.1449  -22.8023  -48.4206 O.2       11 UNK        -0.5000 
     69 N          -0.0697  -21.6319  -46.8002 N.am      12 UNK        -0.5000 
     70 CA         -1.0514  -20.5672  -46.6253 C.3       12 UNK         0.1400 
     71 CB         -0.4690  -19.4899  -45.7031 C.3       12 UNK        -0.1800 
     72 C          -2.3992  -21.0794  -46.0937 C.2       12 UNK         0.5000 
     73 O          -3.4406  -20.7387  -46.6552 O.2       12 UNK        -0.5000 
     74 N          -2.3493  -21.9312  -45.0611 N.am      13 UNK        -0.5000 
     75 CA         -3.5063  -22.6006  -44.4627 C.3       13 UNK         0.1400 
     76 CB         -3.0481  -23.3827  -43.2227 C.3       13 UNK        -0.1800 
     77 C          -4.2459  -23.5276  -45.4472 C.2       13 UNK         0.5000 
     78 O          -5.4679  -23.6531  -45.3655 O.2       13 UNK        -0.5000 
     79 N          -3.4963  -24.1243  -46.3823 N.am      14 UNK        -0.5000 
     80 CA         -4.0018  -24.9519  -47.4754 C.3       14 UNK         0.1400 
     81 CB         -2.9312  -25.9964  -47.8308 C.3       14 UNK        -0.1800 
     82 C          -4.4223  -24.1379  -48.7188 C.2       14 UNK         0.5000 
     83 O          -4.6974  -24.7457  -49.7528 O.2       14 UNK        -0.5000 
     84 N          -4.4512  -22.7985  -48.6272 N.am      15 UNK        -0.5000 
     85 CA         -4.8190  -21.8478  -49.6837 C.3       15 UNK         0.1400 
     86 CB         -6.3130  -21.9748  -50.0476 C.3       15 UNK        -0.1800 
     87 C          -3.8932  -21.9508  -50.9107 C.2       15 UNK         0.5000 
     88 O          -4.3625  -22.1312  -52.0382 O.2       15 UNK        -0.5000 
     89 N          -2.5855  -21.8422  -50.6484 N.am      16 UNK        -0.5000 
     90 CA         -1.4706  -21.9907  -51.5869 C.3       16 UNK         0.1400 
     91 CB         -1.5201  -20.9294  -52.7001 C.3       16 UNK        -0.1800 
     92 C          -1.3402  -23.4313  -52.1168 C.2       16 UNK         0.5000 
     93 O          -0.9966  -23.6345  -53.2810 O.2       16 UNK        -0.5000 
     94 N          -1.6346  -24.4039  -51.2401 N.am      17 UNK        -0.5000 
     95 CA         -1.7287  -25.8401  -51.5205 C.3       17 UNK         0.1400 
     96 CB         -0.3421  -26.4288  -51.8542 C.3       17 UNK        -0.1800 
     97 C          -2.8041  -26.1394  -52.5870 C.2       17 UNK         0.5000 
     98 O          -2.5213  -26.7865  -53.5972 O.2       17 UNK        -0.5000 
     99 N          -4.0191  -25.6348  -52.3263 N.am      18 UNK        -0.5000 
    100 CA        -5.2184  -25.6941  -53.1632 C.3       18 UNK         0.1400 
    101 CB        -5.7328  -27.1443  -53.2795 C.3       18 UNK        -0.1800 
    102 C         -5.0250  -25.0004  -54.5273 C.2       18 UNK         0.5000 
    103 O         -5.3207  -25.5889  -55.5696 O.2       18 UNK        -0.5000 
    104 N         -4.5381  -23.7535  -54.4915 N.am      19 UNK        -0.5000 
    105 CA        -4.3075  -22.9110  -55.6675 C.3       19 UNK         0.1400 
    106 CB        -2.8052  -22.8662  -55.9967 C.3       19 UNK        -0.1800 
    107 C         -4.9201  -21.5140  -55.4666 C.2       19 UNK         0.5000 
    108 O         -4.3636  -20.5224  -55.9415 O.2       19 UNK        -0.5000 
    109 N         -6.0584  -21.4625  -54.7558 N.am      20 UNK        -0.5000 
    110 CA        -6.8972  -20.2842  -54.4975 C.3       20 UNK         0.1400 
    111 CB        -7.6336  -19.8692  -55.7879 C.3       20 UNK        -0.1800 
    112 C         -6.1341  -19.1107  -53.8471 C.2       20 UNK         0.5000 
    113 O         -6.3681  -17.9502  -54.1930 O.2       20 UNK        -0.5000 
    114 N         -5.1951  -19.4438  -52.9482 N.am      21 UNK        -0.5000 
    115 CA        -4.2890  -18.5279  -52.2430 C.3       21 UNK         0.1400 
    116 CB        -5.0822  -17.6455  -51.2557 C.3       21 UNK        -0.1800 
    117 C         -3.3759  -17.7075  -53.1846 C.2       21 UNK         0.5000 
    118 O         -2.9256  -16.6252  -52.8073 O.2       21 UNK        -0.5000 
    119 N         -3.1453  -18.2226  -54.4023 N.am      22 UNK        -0.5000 
    120 CA        -2.4676  -17.5439  -55.5189 C.3       22 UNK         0.1400 
    121 C         -3.2231  -16.2836  -56.0501 C.2       22 UNK         0.5000 
    122 N         -4.5150  -16.1194  -55.7826 N.am      22 UNK        -0.7600 
    123 O         -2.6456  -15.4537  -56.7475 O.2       22 UNK        -0.5000 
    124 C124       -0.9528  -17.2965  -55.2577 C.3       23 UNK        -0.0398 
    125 S125       -0.0039  -18.8548  -55.1936 S.3       23 UNK        -0.2404 
    126 C126        1.4638  -18.3667  -54.2332 C.3       23 UNK        -0.0205 
    127 H127       -5.6219  -13.8462  -45.0685 H         1 UNK         0.0600 
    128 H128       -4.0547  -13.6524  -44.2760 H         1 UNK         0.0600 
    129 H129       -4.7304  -15.2665  -44.5189 H         1 UNK         0.0600 
    130 H130       -3.6220  -16.3147  -46.1068 H         1 UNK         0.3000 
    131 H131       -3.5061  -15.6914  -48.7767 H         1 UNK         0.0600 
    132 H132       -3.1667  -17.9489  -47.6507 H         1 UNK         0.0800 
    133 H133       -1.5493  -17.4692  -47.2375 H         1 UNK         0.0800 
    134 H134        0.3290  -18.2395  -48.4256 H         1 UNK         0.0800 
    135 H135        0.3257  -16.8371  -49.4651 H         1 UNK         0.0800 
    136 H136        0.2250  -17.2849  -52.0520 H         1 UNK         0.1150 
    137 H137        2.6300  -20.6225  -53.2517 H         1 UNK         0.1150 
    138 H138        1.4393  -20.2046  -49.1547 H         1 UNK         0.1150 
    139 H139        3.5049  -22.1263  -51.6796 H         1 UNK         0.0800 
    140 H140        3.6682  -21.5431  -50.0520 H         1 UNK         0.0800 
    141 H141        2.4919  -22.2020  -48.1268 H         1 UNK         0.0800 
    142 H142        3.0316  -23.8508  -48.2652 H         1 UNK         0.0800 
    143 H143        0.5756  -24.5928  -48.1228 H         1 UNK         0.0600 
    144 H144        2.2355  -23.7705  -45.9515 H         1 UNK         0.3000 
    145 H145        0.1531  -25.0107  -43.3268 H         1 UNK         0.0600 
    146 H146        2.2017  -26.3052  -42.8453 H         1 UNK         0.0600 
    147 H147        1.3854  -26.9858  -44.2428 H         1 UNK         0.0600 
    148 H148        2.8226  -25.9958  -44.4670 H         1 UNK         0.0600 
    149 H149        2.7081  -23.8571  -43.1645 H         1 UNK         0.3000 
    150 H150        2.7791  -21.8643  -41.9289 H         1 UNK         0.0600 
    151 H151        3.6569  -21.6325  -44.2684 H         1 UNK         0.0600 
    152 H152        3.7822  -20.1173  -43.3930 H         1 UNK         0.0600 
    153 H153        2.5016  -20.3425  -44.5820 H         1 UNK         0.0600 
    154 H154        1.5328  -19.3802  -42.5219 H         1 UNK         0.3000 
    155 H155       -1.0922  -19.3437  -40.3123 H         1 UNK         0.0600 
    156 H156        1.6128  -18.4672  -39.1681 H         1 UNK         0.0600 
    157 H157        0.4398  -19.5031  -38.3635 H         1 UNK         0.0600 
    158 H158        0.0429  -17.8236  -38.6899 H         1 UNK         0.0600 
    159 H159        0.7944  -17.2882  -41.1529 H         1 UNK         0.3000 
    160 H160       -0.2448  -16.9903  -44.4090 H         1 UNK         0.0600 
    161 H161       -1.5247  -15.0915  -42.3812 H         1 UNK         0.0600 
    162 H162       -2.3811  -15.9607  -43.6476 H         1 UNK         0.0600 
    163 H163       -1.2046  -14.7255  -44.0738 H         1 UNK         0.0600 
    164 H164        0.9307  -15.0098  -42.7623 H         1 UNK         0.3000 
    165 H165        4.0226  -16.4999  -42.1135 H         1 UNK         0.0600 
    166 H166        5.1760  -14.8302  -43.5135 H         1 UNK         0.0600 
    167 H167        4.4803  -16.0608  -44.5552 H         1 UNK         0.0600 
    168 H168        3.6960  -14.4920  -44.4085 H         1 UNK         0.0600 
    169 H169        3.2960  -13.7518  -42.1332 H         1 UNK         0.3000 
    170 H170        0.9743  -13.5932  -39.5782 H         1 UNK         0.0600 
    171 H171        2.9543  -13.8979  -38.0742 H         1 UNK         0.0600 
    172 H172        3.9182  -12.8667  -39.1247 H         1 UNK         0.0600 
    173 H173        2.5362  -12.2024  -38.2515 H         1 UNK         0.0600 
    174 H174        2.4538  -11.4716  -40.6054 H         1 UNK         0.3000 
    175 H175        0.9675  -10.0706  -42.1710 H         1 UNK         0.0600 
    176 H176        3.1666  -11.4376  -43.8319 H         1 UNK         0.0600 
    177 H177        2.8495   -9.7053  -43.8078 H         1 UNK         0.0600 
    178 H178        3.4206  -10.5070  -42.3587 H         1 UNK         0.0600 
    179 H179        0.9778  -11.1572  -44.8854 H         1 UNK         0.3000 
    180 H180       -2.5364  -11.1721  -45.3039 H         1 UNK         0.0600 
    181 H181       -0.3355   -9.4622  -46.5736 H         1 UNK         0.0600 
    182 H182       -1.8250   -8.8713  -45.8544 H         1 UNK         0.0600 
    183 H183       -1.8897   -9.8593  -47.3057 H         1 UNK         0.0600 
    184 H184       -1.7099  -12.8847  -46.3558 H         1 UNK         0.3000 
    185 H185        0.7733  -13.7161  -48.3314 H         1 UNK         0.0600 
    186 H186        2.5313  -14.0434  -46.6493 H         1 UNK         0.0600 
    187 H187        1.3696  -14.6570  -45.4818 H         1 UNK         0.0600 
    188 H188        1.7425  -15.5861  -46.9342 H         1 UNK         0.0600 
    189 H189       -0.9320  -15.1458  -46.3574 H         1 UNK         0.3000 
    190 H190        0.7150  -21.6247  -46.1670 H         1 UNK         0.3000 
    191 H191       -1.2361  -20.1232  -47.6040 H         1 UNK         0.0600 
    192 H192       -0.1176  -19.9039  -44.7596 H         1 UNK         0.0600 
    193 H193       -1.2305  -18.7521  -45.4564 H         1 UNK         0.0600 
    194 H194        0.3689  -18.9702  -46.1665 H         1 UNK         0.0600 
    195 H195       -1.4460  -22.1157  -44.6275 H         1 UNK         0.3000 
    196 H196       -4.2082  -21.8280  -44.1428 H         1 UNK         0.0600 
    197 H197       -3.8916  -23.8705  -42.7328 H         1 UNK         0.0600 
    198 H198       -2.5822  -22.7225  -42.4906 H         1 UNK         0.0600 
    199 H199       -2.3243  -24.1561  -43.4824 H         1 UNK         0.0600 
    200 H200       -2.4917  -23.9979  -46.3471 H         1 UNK         0.3000 
    201 H201       -4.8890  -25.4887  -47.1339 H         1 UNK         0.0600 
    202 H202       -2.6520  -26.5849  -46.9567 H         1 UNK         0.0600 
    203 H203       -2.0259  -25.5281  -48.2185 H         1 UNK         0.0600 
    204 H204       -3.2969  -26.6967  -48.5823 H         1 UNK         0.0600 
    205 H205       -4.1653  -22.3744  -47.7519 H         1 UNK         0.3000 
    206 H206       -4.6672  -20.8505  -49.2677 H         1 UNK         0.0600 
    207 H207       -6.6103  -21.1941  -50.7487 H         1 UNK         0.0600 
    208 H208       -6.9426  -21.8734  -49.1637 H         1 UNK         0.0600 
    209 H209       -6.5403  -22.9343  -50.5129 H         1 UNK         0.0600 
    210 H210       -2.2998  -21.8039  -49.6749 H         1 UNK         0.3000 
    211 H211       -0.5674  -21.8031  -51.0083 H         1 UNK         0.0600 
    212 H212       -0.6628  -21.0328  -53.3643 H         1 UNK         0.0600 
    213 H213       -1.4773  -19.9254  -52.2820 H         1 UNK         0.0600 
    214 H214       -2.4166  -21.0046  -53.3130 H         1 UNK         0.0600 
    215 H215       -1.8859  -24.1147  -50.3044 H         1 UNK         0.3000 
    216 H216       -2.0689  -26.3167  -50.6020 H         1 UNK         0.0600 
    217 H217       -0.3945  -27.5135  -51.9530 H         1 UNK         0.0600 
    218 H218        0.3782  -26.2077  -51.0664 H         1 UNK         0.0600 
    219 H219        0.0552  -26.0353  -52.7900 H         1 UNK         0.0600 
    220 H220       -4.1523  -25.1529  -51.4385 H         1 UNK         0.3000 
    221 H221       -5.9810  -25.1193  -52.6355 H         1 UNK         0.0600 
    222 H222       -5.0373  -27.7810  -53.8269 H         1 UNK         0.0600 
    223 H223       -5.8883  -27.5861  -52.2952 H         1 UNK         0.0600 
    224 H224       -6.6883  -27.1779  -53.8041 H         1 UNK         0.0600 
    225 H225       -4.3437  -23.3209  -53.5913 H         1 UNK         0.3000 
    226 H226       -4.8219  -23.3307  -56.5339 H         1 UNK         0.0600 
    227 H227       -2.3893  -23.8699  -56.0858 H         1 UNK         0.0600 
    228 H228       -2.6269  -22.3542  -56.9429 H         1 UNK         0.0600 
    229 H229       -2.2406  -22.3377  -55.2303 H         1 UNK         0.0600 
    230 H230       -6.4035  -22.3329  -54.3772 H         1 UNK         0.3000 
    231 H231       -7.6497  -20.5939  -53.7710 H         1 UNK         0.0600 
    232 H232       -8.1867  -20.7066  -56.2131 H         1 UNK         0.0600 
    233 H233       -6.9409  -19.5047  -56.5474 H         1 UNK         0.0600 
    234 H234       -8.3535  -19.0737  -55.5917 H         1 UNK         0.0600 
    235 H235       -5.0394  -20.4325  -52.7735 H         1 UNK         0.3000 
    236 H236       -3.6213  -19.1518  -51.6519 H         1 UNK         0.0600 
    237 H237       -4.4149  -17.0370  -50.6462 H         1 UNK         0.0600 
    238 H238       -5.7570  -16.9629  -51.7724 H         1 UNK         0.0600 
    239 H239       -5.6755  -18.2543  -50.5736 H         1 UNK         0.0600 
    240 H240       -3.5836  -19.1027  -54.6502 H         1 UNK         0.3000 
    241 H241       -2.5341  -18.2443  -56.3521 H         1 UNK         0.0600 
    242 H242       -4.9930  -15.3086  -56.1417 H         1 UNK         0.3800 
    243 H243       -5.0257  -16.7915  -55.2199 H         1 UNK         0.3800 
    244 H244       -0.5105  -16.6981  -56.0554 H         1 UNK         0.0800 
    245 H245       -0.8049  -16.7305  -54.3379 H         1 UNK         0.0800 
    246 H246        1.5694  -17.2810  -54.2227 H         1 UNK         0.0800 
    247 H247        2.3501  -18.7450  -54.7447 H         1 UNK         0.0800 
@<TRIPOS>BOND
     1    1    2 1    
     2    1  127 1    
     3    1  128 1    
     4    1  129 1    
     5    2    3 2    
     6    2    4 am   BACKBONE|DICT|INTERRES
     7    4    5 1    
     8    4  130 1    
     9    5    6 1    
    10    5   65 1    
    11    5  131 1    
    12    6    7 1    
    13    6  132 1    
    14    6  133 1    
    15    7    8 1    
    16    8    9 1    
    17    8  134 1    
    18    8  135 1    
    19    9   10 ar   
    20    9   14 ar   
    21   10   11 ar   
    22   10  136 1    
    23   11   12 ar   
    24   11  126 1    
    25   12   13 ar   
    26   12  137 1    
    27   13   14 ar   
    28   13   15 1    
    29   14  138 1    
    30   15   16 1    
    31   15  139 1    
    32   15  140 1    
    33   16   17 1    
    34   17   18 1    
    35   17  141 1    
    36   17  142 1    
    37   18   19 1    
    38   18   67 1    
    39   18  143 1    
    40   19   20 am   BACKBONE|DICT|INTERRES
    41   19  144 1    
    42   20   21 2    
    43   20   22 1    
    44   22   23 1    
    45   22   24 1    
    46   22  145 1    
    47   23  146 1    
    48   23  147 1    
    49   23  148 1    
    50   24   25 am   BACKBONE|DICT|INTERRES
    51   24  149 1    
    52   25   26 2    
    53   25   27 1    
    54   27   28 1    
    55   27   29 1    
    56   27  150 1    
    57   28  151 1    
    58   28  152 1    
    59   28  153 1    
    60   29   30 am   BACKBONE|DICT|INTERRES
    61   29  154 1    
    62   30   31 2    
    63   30   32 1    
    64   32   33 1    
    65   32   34 1    
    66   32  155 1    
    67   33  156 1    
    68   33  157 1    
    69   33  158 1    
    70   34   35 am   BACKBONE|DICT|INTERRES
    71   34  159 1    
    72   35   36 2    
    73   35   37 1    
    74   37   38 1    
    75   37   39 1    
    76   37  160 1    
    77   38  161 1    
    78   38  162 1    
    79   38  163 1    
    80   39   40 am   BACKBONE|DICT|INTERRES
    81   39  164 1    
    82   40   41 2    
    83   40   42 1    
    84   42   43 1    
    85   42   44 1    
    86   42  165 1    
    87   43  166 1    
    88   43  167 1    
    89   43  168 1    
    90   44   45 am   BACKBONE|DICT|INTERRES
    91   44  169 1    
    92   45   46 2    
    93   45   47 1    
    94   47   48 1    
    95   47   49 1    
    96   47  170 1    
    97   48  171 1    
    98   48  172 1    
    99   48  173 1    
   100   49   50 am   BACKBONE|DICT|INTERRES
   101   49  174 1    
   102   50   51 2    
   103   50   52 1    
   104   52   53 1    
   105   52   54 1    
   106   52  175 1    
   107   53  176 1    
   108   53  177 1    
   109   53  178 1    
   110   54   55 am   BACKBONE|DICT|INTERRES
   111   54  179 1    
   112   55   56 2    
   113   55   57 1    
   114   57   58 1    
   115   57   59 1    
   116   57  180 1    
   117   58  181 1    
   118   58  182 1    
   119   58  183 1    
   120   59   60 am   BACKBONE|DICT|INTERRES
   121   59  184 1    
   122   60   61 2    
   123   60   62 1    
   124   62   63 1    
   125   62   64 1    
   126   62  185 1    
   127   63  186 1    
   128   63  187 1    
   129   63  188 1    
   130   64   65 am   BACKBONE|DICT|INTERRES
   131   64  189 1    
   132   65   66 2    
   133   67   68 2    
   134   67   69 am   BACKBONE|DICT|INTERRES
   135   69   70 1    
   136   69  190 1    
   137   70   71 1    
   138   70   72 1    
   139   70  191 1    
   140   71  192 1    
   141   71  193 1    
   142   71  194 1    
   143   72   73 2    
   144   72   74 am   BACKBONE|DICT|INTERRES
   145   74   75 1    
   146   74  195 1    
   147   75   76 1    
   148   75   77 1    
   149   75  196 1    
   150   76  197 1    
   151   76  198 1    
   152   76  199 1    
   153   77   78 2    
   154   77   79 am   BACKBONE|DICT|INTERRES
   155   79   80 1    
   156   79  200 1    
   157   80   81 1    
   158   80   82 1    
   159   80  201 1    
   160   81  202 1    
   161   81  203 1    
   162   81  204 1    
   163   82   83 2    
   164   82   84 am   BACKBONE|DICT|INTERRES
   165   84   85 1    
   166   84  205 1    
   167   85   86 1    
   168   85   87 1    
   169   85  206 1    
   170   86  207 1    
   171   86  208 1    
   172   86  209 1    
   173   87   88 2    
   174   87   89 am   BACKBONE|DICT|INTERRES
   175   89   90 1    
   176   89  210 1    
   177   90   91 1    
   178   90   92 1    
   179   90  211 1    
   180   91  212 1    
   181   91  213 1    
   182   91  214 1    
   183   92   93 2    
   184   92   94 am   BACKBONE|DICT|INTERRES
   185   94   95 1    
   186   94  215 1    
   187   95   96 1    
   188   95   97 1    
   189   95  216 1    
   190   96  217 1    
   191   96  218 1    
   192   96  219 1    
   193   97   98 2    
   194   97   99 am   BACKBONE|DICT|INTERRES
   195   99  100 1    
   196   99  220 1    
   197  100  101 1    
   198  100  102 1    
   199  100  221 1    
   200  101  222 1    
   201  101  223 1    
   202  101  224 1    
   203  102  103 2    
   204  102  104 am   BACKBONE|DICT|INTERRES
   205  104  105 1    
   206  104  225 1    
   207  105  106 1    
   208  105  107 1    
   209  105  226 1    
   210  106  227 1    
   211  106  228 1    
   212  106  229 1    
   213  107  108 2    
   214  107  109 am   BACKBONE|DICT|INTERRES
   215  109  110 1    
   216  109  230 1    
   217  110  111 1    
   218  110  112 1    
   219  110  231 1    
   220  111  232 1    
   221  111  233 1    
   222  111  234 1    
   223  112  113 2    
   224  112  114 am   BACKBONE|DICT|INTERRES
   225  114  115 1    
   226  114  235 1    
   227  115  116 1    
   228  115  117 1    
   229  115  236 1    
   230  116  237 1    
   231  116  238 1    
   232  116  239 1    
   233  117  118 2    
   234  117  119 am   BACKBONE|DICT|INTERRES
   235  119  120 1    
   236  119  240 1    
   237  120  121 1    
   238  120  124 1    
   239  120  241 1    
   240  121  122 am   BACKBONE|DICT|INTERRES
   241  121  123 2    
   242  122  242 1    
   243  122  243 1    
   244  124  125 1    
   245  124  244 1    
   246  124  245 1    
   247  125  126 1    
   248  126  246 1    
   249  126  247 1    
@<TRIPOS>SUBSTRUCTURE
     1 UNK         1 GROUP             0       ****    0 ROOT    
