@<TRIPOS>MOLECULE
3R540
247   249    1
SMALL
USER_CHARGES


@<TRIPOS>ATOM
      1 CA         -3.5987  -17.3902  -42.0880 C.3       0 UNK        -0.1800 
      2 C          -4.0405  -16.1075  -42.7784 C.2       0 UNK         0.5000 
      3 O          -4.7439  -15.2986  -42.1722 O.2       0 UNK        -0.5000 
      4 N          -3.6444  -15.9242  -44.0434 N.am      1 UNK        -0.5000 
      5 CA         -3.9305  -14.7291  -44.8417 C.3       1 UNK         0.1400 
      6 C6         -3.7465  -15.0089  -46.3527 C.3       23 UNK        -0.0398 
      7 S7         -4.5620  -13.7748  -47.4269 S.3       23 UNK        -0.2404 
      8 C8         -3.6600  -13.9964  -48.9951 C.3       23 UNK        -0.0205 
      9 C9         -3.8854  -15.3855  -49.5712 C.ar      23 UNK        -0.0193 
     10 C10        -5.0140  -15.6573  -50.3513 C.ar      23 UNK        -0.1150 
     11 C11        -5.2555  -16.9518  -50.8245 C.ar      23 UNK        -0.0193 
     12 C12        -4.3619  -17.9766  -50.5013 C.ar      23 UNK        -0.1150 
     13 C13        -3.2202  -17.7080  -49.7439 C.ar      23 UNK        -0.0193 
     14 C14        -2.9782  -16.4101  -49.2931 C.ar      23 UNK        -0.1150 
     15 C15        -2.2705  -18.8290  -49.3799 C.3       23 UNK        -0.0205 
     16 S16        -2.7315  -19.5352  -47.7725 S.3       23 UNK        -0.2404 
     17 C17        -2.3796  -21.2839  -48.1092 C.3       23 UNK        -0.0398 
     18 CA         -2.4186  -22.2152  -46.8782 C.3       11 UNK         0.1400 
     19 N          -1.3053  -21.9754  -45.9522 N.am      11 UNK        -0.5000 
     20 C          -0.9617  -22.7900  -44.9444 C.2       10 UNK         0.5000 
     21 O          -1.6144  -23.7852  -44.6240 O.2       10 UNK        -0.5000 
     22 CA          0.3062  -22.4383  -44.1512 C.3       10 UNK         0.1400 
     23 CB          1.5449  -22.9911  -44.8712 C.3       10 UNK        -0.1800 
     24 N           0.4760  -21.0055  -43.9026 N.am      10 UNK        -0.5000 
     25 C          -0.3481  -20.2562  -43.1543 C.2       9 UNK         0.5000 
     26 O          -1.3841  -20.6802  -42.6418 O.2       9 UNK        -0.5000 
     27 CA          0.0511  -18.7841  -42.9499 C.3       9 UNK         0.1400 
     28 CB          1.2186  -18.6568  -41.9594 C.3       9 UNK        -0.1800 
     29 N           0.4150  -18.1514  -44.2118 N.am      9 UNK        -0.5000 
     30 C          -0.4591  -17.7792  -45.1539 C.2       8 UNK         0.5000 
     31 O          -1.6803  -17.7933  -45.0014 O.2       8 UNK        -0.5000 
     32 CA          0.1307  -17.3182  -46.4978 C.3       8 UNK         0.1400 
     33 CB          0.3671  -15.8017  -46.4972 C.3       8 UNK        -0.1800 
     34 N           1.3775  -18.0026  -46.8478 N.am      8 UNK        -0.5000 
     35 C           1.4888  -19.3070  -47.1391 C.2       7 UNK         0.5000 
     36 O           0.5455  -20.0948  -47.1521 O.2       7 UNK        -0.5000 
     37 CA          2.9077  -19.8250  -47.4318 C.3       7 UNK         0.1400 
     38 CB          3.2819  -19.5607  -48.8970 C.3       7 UNK        -0.1800 
     39 N           3.9157  -19.2305  -46.5519 N.am      7 UNK        -0.5000 
     40 C           3.9902  -19.4551  -45.2320 C.2       6 UNK         0.5000 
     41 O           3.2334  -20.2103  -44.6224 O.2       6 UNK        -0.5000 
     42 CA          5.0440  -18.6422  -44.4551 C.3       6 UNK         0.1400 
     43 CB          6.4398  -19.2632  -44.6150 C.3       6 UNK        -0.1800 
     44 N           5.0853  -17.2287  -44.8483 N.am      6 UNK        -0.5000 
     45 C           4.0421  -16.3933  -44.7566 C.2       5 UNK         0.5000 
     46 O           2.9345  -16.7429  -44.3435 O.2       5 UNK        -0.5000 
     47 CA          4.2550  -14.9523  -45.2616 C.3       5 UNK         0.1400 
     48 CB          4.2969  -14.9227  -46.7984 C.3       5 UNK        -0.1800 
     49 N           3.1813  -14.0648  -44.8141 N.am      5 UNK        -0.5000 
     50 C           2.9965  -13.6495  -43.5554 C.2       4 UNK         0.5000 
     51 O           3.8107  -13.8546  -42.6528 O.2       4 UNK        -0.5000 
     52 CA          1.6734  -12.9174  -43.2337 C.3       4 UNK         0.1400 
     53 CB          1.8910  -11.7143  -42.2928 C.3       4 UNK        -0.1800 
     54 N           0.8574  -12.5196  -44.3912 N.am      4 UNK        -0.5000 
     55 C           1.1684  -11.6281  -45.3480 C.2       3 UNK         0.5000 
     56 O           2.2803  -11.1160  -45.4759 O.2       3 UNK        -0.5000 
     57 CA          0.0372  -11.2161  -46.3162 C.3       3 UNK         0.1400 
     58 CB          0.0865  -12.0544  -47.6027 C.3       3 UNK        -0.1800 
     59 N          -1.3003  -11.3251  -45.7291 N.am      3 UNK        -0.5000 
     60 C          -1.7366  -10.6331  -44.6667 C.2       2 UNK         0.5000 
     61 O          -1.0976   -9.7199  -44.1424 O.2       2 UNK        -0.5000 
     62 CA         -3.1013  -11.0323  -44.0668 C.3       2 UNK         0.1400 
     63 CB         -4.1481   -9.9421  -44.3457 C.3       2 UNK        -0.1800 
     64 N          -3.6430  -12.3213  -44.5140 N.am      2 UNK        -0.5000 
     65 C          -3.0818  -13.5293  -44.3627 C.2       1 UNK         0.5000 
     66 O          -1.9474  -13.7085  -43.9087 O.2       1 UNK        -0.5000 
     67 C          -3.8158  -22.2521  -46.2195 C.2       11 UNK         0.5000 
     68 O          -4.7480  -22.7782  -46.8268 O.2       11 UNK        -0.5000 
     69 N          -3.9352  -21.7564  -44.9794 N.am      12 UNK        -0.5000 
     70 CA         -5.1292  -21.8933  -44.1444 C.3       12 UNK         0.1400 
     71 CB         -4.9533  -21.0442  -42.8773 C.3       12 UNK        -0.1800 
     72 C          -5.4527  -23.3587  -43.7798 C.2       12 UNK         0.5000 
     73 O          -6.6199  -23.6722  -43.5428 O.2       12 UNK        -0.5000 
     74 N          -4.4283  -24.2237  -43.7601 N.am      13 UNK        -0.5000 
     75 CA         -4.5495  -25.6645  -43.5416 C.3       13 UNK         0.1400 
     76 CB         -3.6550  -26.0670  -42.3585 C.3       13 UNK        -0.1800 
     77 C          -4.1588  -26.4577  -44.8010 C.2       13 UNK         0.5000 
     78 O          -4.8167  -27.4478  -45.1212 O.2       13 UNK        -0.5000 
     79 N          -3.0959  -26.0205  -45.4901 N.am      14 UNK        -0.5000 
     80 CA         -2.4857  -26.7199  -46.6244 C.3       14 UNK         0.1400 
     81 CB         -0.9957  -26.3451  -46.6717 C.3       14 UNK        -0.1800 
     82 C          -3.1617  -26.4495  -47.9853 C.2       14 UNK         0.5000 
     83 O          -2.7669  -27.0721  -48.9721 O.2       14 UNK        -0.5000 
     84 N          -4.1464  -25.5382  -48.0162 N.am      15 UNK        -0.5000 
     85 CA         -4.8587  -25.0015  -49.1843 C.3       15 UNK         0.1400 
     86 CB         -5.4888  -26.1206  -50.0399 C.3       15 UNK        -0.1800 
     87 C          -3.9864  -24.0531  -50.0320 C.2       15 UNK         0.5000 
     88 O          -2.7690  -23.9787  -49.8467 O.2       15 UNK        -0.5000 
     89 N          -4.6328  -23.3224  -50.9542 N.am      16 UNK        -0.5000 
     90 CA         -4.0368  -22.2806  -51.8062 C.3       16 UNK         0.1400 
     91 CB         -5.1288  -21.6643  -52.6918 C.3       16 UNK        -0.1800 
     92 C          -2.8483  -22.7439  -52.6707 C.2       16 UNK         0.5000 
     93 O          -2.0082  -21.9187  -53.0353 O.2       16 UNK        -0.5000 
     94 N          -2.7722  -24.0562  -52.9297 N.am      17 UNK        -0.5000 
     95 CA         -1.6646  -24.7521  -53.5846 C.3       17 UNK         0.1400 
     96 CB         -2.0289  -26.2383  -53.7189 C.3       17 UNK        -0.1800 
     97 C          -0.3063  -24.5959  -52.8704 C.2       17 UNK         0.5000 
     98 O           0.7275  -24.7158  -53.5282 O.2       17 UNK        -0.5000 
     99 N          -0.3201  -24.3089  -51.5583 N.am      18 UNK        -0.5000 
    100 CA         0.8760  -24.0045  -50.7690 C.3       18 UNK         0.1400 
    101 CB         0.5228  -24.0239  -49.2759 C.3       18 UNK        -0.1800 
    102 C          1.5354  -22.6672  -51.1615 C.2       18 UNK         0.5000 
    103 O          2.7494  -22.5316  -51.0074 O.2       18 UNK        -0.5000 
    104 N          0.7394  -21.7235  -51.6856 N.am      19 UNK        -0.5000 
    105 CA         1.2296  -20.5193  -52.3522 C.3       19 UNK         0.1400 
    106 CB         0.2478  -19.3563  -52.1299 C.3       19 UNK        -0.1800 
    107 C          1.4435  -20.8151  -53.8449 C.2       19 UNK         0.5000 
    108 O          2.5699  -20.6968  -54.3266 O.2       19 UNK        -0.5000 
    109 N          0.3611  -21.2335  -54.5156 N.am      20 UNK        -0.5000 
    110 CA         0.2607  -21.7084  -55.8985 C.3       20 UNK         0.1400 
    111 CB         1.0607  -20.8562  -56.9104 C.3       20 UNK        -0.1800 
    112 C         -1.2225  -21.7099  -56.2887 C.2       20 UNK         0.5000 
    113 O         -1.7612  -22.7537  -56.6553 O.2       20 UNK        -0.5000 
    114 N         -1.8481  -20.5324  -56.1725 N.am      21 UNK        -0.5000 
    115 CA        -3.2497  -20.2510  -56.4791 C.3       21 UNK         0.1400 
    116 CB        -3.5442  -20.4557  -57.9828 C.3       21 UNK        -0.1800 
    117 C         -3.5784  -18.8235  -56.0046 C.2       21 UNK         0.5000 
    118 O         -4.0445  -18.0007  -56.7942 O.2       21 UNK        -0.5000 
    119 N         -3.2806  -18.5427  -54.7277 N.am      22 UNK        -0.5000 
    120 CA        -3.4974  -17.2458  -54.0483 C.3       22 UNK         0.1400 
    121 C         -2.5526  -16.0892  -54.5027 C.2       22 UNK         0.5000 
    122 N         -1.5037  -16.3450  -55.2746 N.am      22 UNK        -0.7600 
    123 O         -2.7501  -14.9380  -54.1241 O.2       22 UNK        -0.5000 
    124 C124       -4.9902  -16.7971  -54.0218 C.3       23 UNK        -0.0398 
    125 S125       -6.0953  -18.0358  -53.2608 S.3       23 UNK        -0.2404 
    126 C126       -6.4923  -17.2477  -51.6638 C.3       23 UNK        -0.0205 
    127 H127       -3.2100  -18.1179  -42.8001 H         1 UNK         0.0600 
    128 H128       -2.8206  -17.1742  -41.3562 H         1 UNK         0.0600 
    129 H129       -4.4400  -17.8484  -41.5680 H         1 UNK         0.0600 
    130 H130       -3.0172  -16.6070  -44.4648 H         1 UNK         0.3000 
    131 H131       -4.9821  -14.4839  -44.6759 H         1 UNK         0.0600 
    132 H132       -2.6916  -15.0768  -46.6096 H         1 UNK         0.0800 
    133 H133       -4.1776  -15.9803  -46.6010 H         1 UNK         0.0800 
    134 H134       -3.9970  -13.2429  -49.7084 H         1 UNK         0.0800 
    135 H135       -2.5961  -13.8125  -48.8368 H         1 UNK         0.0800 
    136 H136       -5.7134  -14.8629  -50.5712 H         1 UNK         0.1150 
    137 H137       -4.5562  -18.9833  -50.8436 H         1 UNK         0.1150 
    138 H138       -2.1031  -16.2072  -48.6931 H         1 UNK         0.1150 
    139 H139       -2.2899  -19.5929  -50.1584 H         1 UNK         0.0800 
    140 H140       -1.2444  -18.4640  -49.3335 H         1 UNK         0.0800 
    141 H141       -3.1097  -21.6132  -48.8453 H         1 UNK         0.0800 
    142 H142       -1.4072  -21.3553  -48.5965 H         1 UNK         0.0800 
    143 H143       -2.2612  -23.2254  -47.2609 H         1 UNK         0.0600 
    144 H144       -0.7049  -21.1851  -46.1766 H         1 UNK         0.3000 
    145 H145        0.2308  -22.9337  -43.1812 H         1 UNK         0.0600 
    146 H146        2.4450  -22.8496  -44.2730 H         1 UNK         0.0600 
    147 H147        1.4449  -24.0611  -45.0586 H         1 UNK         0.0600 
    148 H148        1.7005  -22.5026  -45.8335 H         1 UNK         0.0600 
    149 H149        1.3268  -20.5859  -44.2653 H         1 UNK         0.3000 
    150 H150       -0.8039  -18.2544  -42.5275 H         1 UNK         0.0600 
    151 H151        0.9668  -19.1082  -40.9991 H         1 UNK         0.0600 
    152 H152        1.4633  -17.6105  -41.7747 H         1 UNK         0.0600 
    153 H153        2.1198  -19.1474  -42.3284 H         1 UNK         0.0600 
    154 H154        1.4039  -17.9990  -44.3823 H         1 UNK         0.3000 
    155 H155       -0.6048  -17.5433  -47.2689 H         1 UNK         0.0600 
    156 H156       -0.5350  -15.2597  -46.2213 H         1 UNK         0.0600 
    157 H157        1.1299  -15.5191  -45.7766 H         1 UNK         0.0600 
    158 H158        0.6784  -15.4492  -47.4804 H         1 UNK         0.0600 
    159 H159        2.2194  -17.4500  -46.8115 H         1 UNK         0.3000 
    160 H160        2.9082  -20.9051  -47.2716 H         1 UNK         0.0600 
    161 H161        2.5398  -19.9956  -49.5668 H         1 UNK         0.0600 
    162 H162        3.3384  -18.4940  -49.1169 H         1 UNK         0.0600 
    163 H163        4.2438  -20.0090  -49.1463 H         1 UNK         0.0600 
    164 H164        4.5747  -18.5922  -46.9725 H         1 UNK         0.3000 
    165 H165        4.7736  -18.6830  -43.3978 H         1 UNK         0.0600 
    166 H166        6.7881  -19.2163  -45.6475 H         1 UNK         0.0600 
    167 H167        7.1724  -18.7523  -43.9899 H         1 UNK         0.0600 
    168 H168        6.4362  -20.3126  -44.3169 H         1 UNK         0.0600 
    169 H169        5.9653  -16.8829  -45.2031 H         1 UNK         0.3000 
    170 H170        5.2045  -14.5821  -44.8699 H         1 UNK         0.0600 
    171 H171        5.1140  -15.5332  -47.1843 H         1 UNK         0.0600 
    172 H172        3.3715  -15.2976  -47.2370 H         1 UNK         0.0600 
    173 H173        4.4530  -13.9085  -47.1670 H         1 UNK         0.0600 
    174 H174        2.4623  -13.8475  -45.4859 H         1 UNK         0.3000 
    175 H175        1.0667  -13.6450  -42.6925 H         1 UNK         0.0600 
    176 H176        0.9450  -11.2325  -42.0449 H         1 UNK         0.0600 
    177 H177        2.3499  -12.0256  -41.3537 H         1 UNK         0.0600 
    178 H178        2.5422  -10.9635  -42.7410 H         1 UNK         0.0600 
    179 H179       -0.0891  -12.8872  -44.3822 H         1 UNK         0.3000 
    180 H180        0.2016  -10.1700  -46.5826 H         1 UNK         0.0600 
    181 H181       -0.6273  -11.6856  -48.3395 H         1 UNK         0.0600 
    182 H182        1.0755  -12.0132  -48.0612 H         1 UNK         0.0600 
    183 H183       -0.1446  -13.1013  -47.4104 H         1 UNK         0.0600 
    184 H184       -1.9032  -12.0436  -46.1001 H         1 UNK         0.3000 
    185 H185       -2.9600  -11.1003  -42.9864 H         1 UNK         0.0600 
    186 H186       -5.0878  -10.1559  -43.8360 H         1 UNK         0.0600 
    187 H187       -3.8059   -8.9680  -43.9934 H         1 UNK         0.0600 
    188 H188       -4.3565   -9.8504  -45.4125 H         1 UNK         0.0600 
    189 H189       -4.5580  -12.2778  -44.9403 H         1 UNK         0.3000 
    190 H190       -3.1206  -21.3426  -44.5465 H         1 UNK         0.3000 
    191 H191       -5.9784  -21.4988  -44.7060 H         1 UNK         0.0600 
    192 H192       -5.8356  -21.1049  -42.2390 H         1 UNK         0.0600 
    193 H193       -4.8058  -19.9940  -43.1275 H         1 UNK         0.0600 
    194 H194       -4.0968  -21.3735  -42.2877 H         1 UNK         0.0600 
    195 H195       -3.4986  -23.8778  -43.9727 H         1 UNK         0.3000 
    196 H196       -5.5782  -25.9328  -43.2926 H         1 UNK         0.0600 
    197 H197       -3.7126  -27.1400  -42.1711 H         1 UNK         0.0600 
    198 H198       -3.9634  -25.5601  -41.4440 H         1 UNK         0.0600 
    199 H199       -2.6082  -25.8194  -42.5407 H         1 UNK         0.0600 
    200 H200       -2.5851  -25.2102  -45.1469 H         1 UNK         0.3000 
    201 H201       -2.5511  -27.7955  -46.4471 H         1 UNK         0.0600 
    202 H202       -0.4969  -26.5903  -45.7339 H         1 UNK         0.0600 
    203 H203       -0.8575  -25.2795  -46.8533 H         1 UNK         0.0600 
    204 H204       -0.4774  -26.8863  -47.4642 H         1 UNK         0.0600 
    205 H205       -4.3607  -25.0673  -47.1479 H         1 UNK         0.3000 
    206 H206       -5.6730  -24.4004  -48.7778 H         1 UNK         0.0600 
    207 H207       -6.0393  -26.8285  -49.4202 H         1 UNK         0.0600 
    208 H208       -6.1945  -25.7111  -50.7632 H         1 UNK         0.0600 
    209 H209       -4.7403  -26.6783  -50.6033 H         1 UNK         0.0600 
    210 H210       -5.6309  -23.4444  -51.0479 H         1 UNK         0.3000 
    211 H211       -3.6584  -21.4975  -51.1480 H         1 UNK         0.0600 
    212 H212       -5.5840  -22.4083  -53.3465 H         1 UNK         0.0600 
    213 H213       -4.7214  -20.8756  -53.3254 H         1 UNK         0.0600 
    214 H214       -5.9192  -21.2149  -52.0903 H         1 UNK         0.0600 
    215 H215       -3.5110  -24.6415  -52.5698 H         1 UNK         0.3000 
    216 H216       -1.5553  -24.3348  -54.5854 H         1 UNK         0.0600 
    217 H217       -1.2376  -26.7911  -54.2270 H         1 UNK         0.0600 
    218 H218       -2.9407  -26.3705  -54.3017 H         1 UNK         0.0600 
    219 H219       -2.1814  -26.7035  -52.7439 H         1 UNK         0.0600 
    220 H220       -1.2106  -24.2462  -51.0726 H         1 UNK         0.3000 
    221 H221        1.6076  -24.7945  -50.9508 H         1 UNK         0.0600 
    222 H222       -0.2212  -23.2693  -49.0269 H         1 UNK         0.0600 
    223 H223        0.1225  -24.9955  -48.9907 H         1 UNK         0.0600 
    224 H224        1.4022  -23.8361  -48.6585 H         1 UNK         0.0600 
    225 H225       -0.2393  -21.9432  -51.8191 H         1 UNK         0.3000 
    226 H226        2.1925  -20.2217  -51.9322 H         1 UNK         0.0600 
    227 H227        0.2204  -19.0766  -51.0778 H         1 UNK         0.0600 
    228 H228        0.5555  -18.4723  -52.6899 H         1 UNK         0.0600 
    229 H229       -0.7680  -19.6035  -52.4378 H         1 UNK         0.0600 
    230 H230       -0.5046  -21.3380  -53.9897 H         1 UNK         0.3000 
    231 H231        0.6235  -22.7373  -55.9312 H         1 UNK         0.0600 
    232 H232        0.7826  -21.1006  -57.9367 H         1 UNK         0.0600 
    233 H233        2.1315  -21.0404  -56.8297 H         1 UNK         0.0600 
    234 H234        0.8914  -19.7883  -56.7700 H         1 UNK         0.0600 
    235 H235       -1.3057  -19.7424  -55.8560 H         1 UNK         0.3000 
    236 H236       -3.8753  -20.9361  -55.9035 H         1 UNK         0.0600 
    237 H237       -2.9003  -19.8328  -58.6045 H         1 UNK         0.0600 
    238 H238       -3.4015  -21.4919  -58.2873 H         1 UNK         0.0600 
    239 H239       -4.5781  -20.1999  -58.2179 H         1 UNK         0.0600 
    240 H240       -2.8997  -19.2777  -54.1497 H         1 UNK         0.3000 
    241 H241       -3.2022  -17.4231  -53.0145 H         1 UNK         0.0600 
    242 H242       -1.3238  -17.2737  -55.6120 H         1 UNK         0.3800 
    243 H243       -0.8996  -15.5862  -55.5490 H         1 UNK         0.3800 
    244 H244       -5.3492  -16.5910  -55.0304 H         1 UNK         0.0800 
    245 H245       -5.0998  -15.8576  -53.4780 H         1 UNK         0.0800 
    246 H246       -7.0608  -16.3359  -51.8533 H         1 UNK         0.0800 
    247 H247       -7.1504  -17.9090  -51.0988 H         1 UNK         0.0800 
@<TRIPOS>BOND
     1    1    2 1    
     2    1  127 1    
     3    1  128 1    
     4    1  129 1    
     5    2    3 2    
     6    2    4 am   BACKBONE|DICT|INTERRES
     7    4    5 1    
     8    4  130 1    
     9    5    6 1    
    10    5   65 1    
    11    5  131 1    
    12    6    7 1    
    13    6  132 1    
    14    6  133 1    
    15    7    8 1    
    16    8    9 1    
    17    8  134 1    
    18    8  135 1    
    19    9   10 ar   
    20    9   14 ar   
    21   10   11 ar   
    22   10  136 1    
    23   11   12 ar   
    24   11  126 1    
    25   12   13 ar   
    26   12  137 1    
    27   13   14 ar   
    28   13   15 1    
    29   14  138 1    
    30   15   16 1    
    31   15  139 1    
    32   15  140 1    
    33   16   17 1    
    34   17   18 1    
    35   17  141 1    
    36   17  142 1    
    37   18   19 1    
    38   18   67 1    
    39   18  143 1    
    40   19   20 am   BACKBONE|DICT|INTERRES
    41   19  144 1    
    42   20   21 2    
    43   20   22 1    
    44   22   23 1    
    45   22   24 1    
    46   22  145 1    
    47   23  146 1    
    48   23  147 1    
    49   23  148 1    
    50   24   25 am   BACKBONE|DICT|INTERRES
    51   24  149 1    
    52   25   26 2    
    53   25   27 1    
    54   27   28 1    
    55   27   29 1    
    56   27  150 1    
    57   28  151 1    
    58   28  152 1    
    59   28  153 1    
    60   29   30 am   BACKBONE|DICT|INTERRES
    61   29  154 1    
    62   30   31 2    
    63   30   32 1    
    64   32   33 1    
    65   32   34 1    
    66   32  155 1    
    67   33  156 1    
    68   33  157 1    
    69   33  158 1    
    70   34   35 am   BACKBONE|DICT|INTERRES
    71   34  159 1    
    72   35   36 2    
    73   35   37 1    
    74   37   38 1    
    75   37   39 1    
    76   37  160 1    
    77   38  161 1    
    78   38  162 1    
    79   38  163 1    
    80   39   40 am   BACKBONE|DICT|INTERRES
    81   39  164 1    
    82   40   41 2    
    83   40   42 1    
    84   42   43 1    
    85   42   44 1    
    86   42  165 1    
    87   43  166 1    
    88   43  167 1    
    89   43  168 1    
    90   44   45 am   BACKBONE|DICT|INTERRES
    91   44  169 1    
    92   45   46 2    
    93   45   47 1    
    94   47   48 1    
    95   47   49 1    
    96   47  170 1    
    97   48  171 1    
    98   48  172 1    
    99   48  173 1    
   100   49   50 am   BACKBONE|DICT|INTERRES
   101   49  174 1    
   102   50   51 2    
   103   50   52 1    
   104   52   53 1    
   105   52   54 1    
   106   52  175 1    
   107   53  176 1    
   108   53  177 1    
   109   53  178 1    
   110   54   55 am   BACKBONE|DICT|INTERRES
   111   54  179 1    
   112   55   56 2    
   113   55   57 1    
   114   57   58 1    
   115   57   59 1    
   116   57  180 1    
   117   58  181 1    
   118   58  182 1    
   119   58  183 1    
   120   59   60 am   BACKBONE|DICT|INTERRES
   121   59  184 1    
   122   60   61 2    
   123   60   62 1    
   124   62   63 1    
   125   62   64 1    
   126   62  185 1    
   127   63  186 1    
   128   63  187 1    
   129   63  188 1    
   130   64   65 am   BACKBONE|DICT|INTERRES
   131   64  189 1    
   132   65   66 2    
   133   67   68 2    
   134   67   69 am   BACKBONE|DICT|INTERRES
   135   69   70 1    
   136   69  190 1    
   137   70   71 1    
   138   70   72 1    
   139   70  191 1    
   140   71  192 1    
   141   71  193 1    
   142   71  194 1    
   143   72   73 2    
   144   72   74 am   BACKBONE|DICT|INTERRES
   145   74   75 1    
   146   74  195 1    
   147   75   76 1    
   148   75   77 1    
   149   75  196 1    
   150   76  197 1    
   151   76  198 1    
   152   76  199 1    
   153   77   78 2    
   154   77   79 am   BACKBONE|DICT|INTERRES
   155   79   80 1    
   156   79  200 1    
   157   80   81 1    
   158   80   82 1    
   159   80  201 1    
   160   81  202 1    
   161   81  203 1    
   162   81  204 1    
   163   82   83 2    
   164   82   84 am   BACKBONE|DICT|INTERRES
   165   84   85 1    
   166   84  205 1    
   167   85   86 1    
   168   85   87 1    
   169   85  206 1    
   170   86  207 1    
   171   86  208 1    
   172   86  209 1    
   173   87   88 2    
   174   87   89 am   BACKBONE|DICT|INTERRES
   175   89   90 1    
   176   89  210 1    
   177   90   91 1    
   178   90   92 1    
   179   90  211 1    
   180   91  212 1    
   181   91  213 1    
   182   91  214 1    
   183   92   93 2    
   184   92   94 am   BACKBONE|DICT|INTERRES
   185   94   95 1    
   186   94  215 1    
   187   95   96 1    
   188   95   97 1    
   189   95  216 1    
   190   96  217 1    
   191   96  218 1    
   192   96  219 1    
   193   97   98 2    
   194   97   99 am   BACKBONE|DICT|INTERRES
   195   99  100 1    
   196   99  220 1    
   197  100  101 1    
   198  100  102 1    
   199  100  221 1    
   200  101  222 1    
   201  101  223 1    
   202  101  224 1    
   203  102  103 2    
   204  102  104 am   BACKBONE|DICT|INTERRES
   205  104  105 1    
   206  104  225 1    
   207  105  106 1    
   208  105  107 1    
   209  105  226 1    
   210  106  227 1    
   211  106  228 1    
   212  106  229 1    
   213  107  108 2    
   214  107  109 am   BACKBONE|DICT|INTERRES
   215  109  110 1    
   216  109  230 1    
   217  110  111 1    
   218  110  112 1    
   219  110  231 1    
   220  111  232 1    
   221  111  233 1    
   222  111  234 1    
   223  112  113 2    
   224  112  114 am   BACKBONE|DICT|INTERRES
   225  114  115 1    
   226  114  235 1    
   227  115  116 1    
   228  115  117 1    
   229  115  236 1    
   230  116  237 1    
   231  116  238 1    
   232  116  239 1    
   233  117  118 2    
   234  117  119 am   BACKBONE|DICT|INTERRES
   235  119  120 1    
   236  119  240 1    
   237  120  121 1    
   238  120  124 1    
   239  120  241 1    
   240  121  122 am   BACKBONE|DICT|INTERRES
   241  121  123 2    
   242  122  242 1    
   243  122  243 1    
   244  124  125 1    
   245  124  244 1    
   246  124  245 1    
   247  125  126 1    
   248  126  246 1    
   249  126  247 1    
@<TRIPOS>SUBSTRUCTURE
     1 UNK         1 GROUP             0       ****    0 ROOT    
