@<TRIPOS>MOLECULE
3R540
247   249    1
SMALL
USER_CHARGES


@<TRIPOS>ATOM
      1 CA          4.2272  -16.6330  -46.1565 C.3       0 UNK        -0.1800 
      2 C           3.5009  -15.3135  -45.9438 C.2       0 UNK         0.5000 
      3 O           3.3233  -14.8943  -44.8013 O.2       0 UNK        -0.5000 
      4 N           3.0948  -14.6541  -47.0379 N.am      1 UNK        -0.5000 
      5 CA          2.2543  -13.4462  -47.0610 C.3       1 UNK         0.1400 
      6 C6          1.9108  -12.9819  -48.5030 C.3       23 UNK        -0.0398 
      7 S7          1.4666  -14.3075  -49.6791 S.3       23 UNK        -0.2404 
      8 C8          0.0919  -15.1454  -48.8342 C.3       23 UNK        -0.0205 
      9 C9         -0.3616  -16.3644  -49.6195 C.ar      23 UNK        -0.0193 
     10 C10        -1.5798  -16.3599  -50.3042 C.ar      23 UNK        -0.1150 
     11 C11        -1.9896  -17.4852  -51.0251 C.ar      23 UNK        -0.0193 
     12 C12        -1.1824  -18.6250  -51.0350 C.ar      23 UNK        -0.1150 
     13 C13         0.0374  -18.6487  -50.3521 C.ar      23 UNK        -0.0193 
     14 C14         0.4477  -17.5029  -49.6610 C.ar      23 UNK        -0.1150 
     15 C15         0.8878  -19.9165  -50.4216 C.3       23 UNK        -0.0205 
     16 S16         2.0638  -20.1982  -49.0455 S.3       23 UNK        -0.2404 
     17 C17         1.0531  -20.0202  -47.5338 C.3       23 UNK        -0.0398 
     18 CA          0.3004  -21.3025  -47.1079 C.3       11 UNK         0.1400 
     19 N           0.0186  -21.3075  -45.6692 N.am      11 UNK        -0.5000 
     20 C          -0.5569  -22.3118  -44.9930 C.2       10 UNK         0.5000 
     21 O          -0.8751  -23.3858  -45.5007 O.2       10 UNK        -0.5000 
     22 CA         -0.8973  -22.0475  -43.5164 C.3       10 UNK         0.1400 
     23 CB          0.3505  -22.1734  -42.6300 C.3       10 UNK        -0.1800 
     24 N          -1.5231  -20.7390  -43.3215 N.am      10 UNK        -0.5000 
     25 C          -2.7097  -20.3876  -43.8386 C.2       9 UNK         0.5000 
     26 O          -3.4302  -21.1570  -44.4748 O.2       9 UNK        -0.5000 
     27 CA         -3.1509  -18.9249  -43.6485 C.3       9 UNK         0.1400 
     28 CB         -3.7870  -18.7245  -42.2652 C.3       9 UNK        -0.1800 
     29 N          -2.0589  -17.9675  -43.8349 N.am      9 UNK        -0.5000 
     30 C          -1.3950  -17.7811  -44.9855 C.2       8 UNK         0.5000 
     31 O          -1.6498  -18.3826  -46.0271 O.2       8 UNK        -0.5000 
     32 CA         -0.2096  -16.7995  -44.9553 C.3       8 UNK         0.1400 
     33 CB         -0.7011  -15.3446  -44.9675 C.3       8 UNK        -0.1800 
     34 N           0.6565  -17.0123  -43.7977 N.am      8 UNK        -0.5000 
     35 C           1.3202  -18.1468  -43.5366 C.2       7 UNK         0.5000 
     36 O           1.3247  -19.1259  -44.2818 O.2       7 UNK        -0.5000 
     37 CA          2.0476  -18.2234  -42.1848 C.3       7 UNK         0.1400 
     38 CB          3.4051  -17.5082  -42.2437 C.3       7 UNK        -0.1800 
     39 N           1.2346  -17.6668  -41.1027 N.am      7 UNK        -0.5000 
     40 C           0.1090  -18.2294  -40.6388 C.2       6 UNK         0.5000 
     41 O          -0.3369  -19.3012  -41.0465 O.2       6 UNK        -0.5000 
     42 CA         -0.6682  -17.4442  -39.5666 C.3       6 UNK         0.1400 
     43 CB         -0.0874  -17.7148  -38.1708 C.3       6 UNK        -0.1800 
     44 N          -0.6706  -16.0029  -39.8191 N.am      6 UNK        -0.5000 
     45 C          -1.2930  -15.4129  -40.8501 C.2       5 UNK         0.5000 
     46 O          -1.9792  -16.0196  -41.6711 O.2       5 UNK        -0.5000 
     47 CA         -1.0590  -13.8989  -41.0213 C.3       5 UNK         0.1400 
     48 CB         -2.0677  -13.0962  -40.1867 C.3       5 UNK        -0.1800 
     49 N           0.3049  -13.4961  -40.6626 N.am      5 UNK        -0.5000 
     50 C           1.4009  -13.9188  -41.3051 C.2       4 UNK         0.5000 
     51 O           1.3682  -14.6502  -42.2959 O.2       4 UNK        -0.5000 
     52 CA          2.7500  -13.5373  -40.6874 C.3       4 UNK         0.1400 
     53 CB          3.0578  -14.4794  -39.5033 C.3       4 UNK        -0.1800 
     54 N           3.7877  -13.6361  -41.7114 N.am      4 UNK        -0.5000 
     55 C           5.0614  -13.2510  -41.5675 C.2       3 UNK         0.5000 
     56 O           5.5132  -12.7332  -40.5452 O.2       3 UNK        -0.5000 
     57 CA          5.9844  -13.4567  -42.7778 C.3       3 UNK         0.1400 
     58 CB          6.2781  -14.9468  -43.0167 C.3       3 UNK        -0.1800 
     59 N           5.4241  -12.8561  -43.9871 N.am      3 UNK        -0.5000 
     60 C           5.5050  -11.5496  -44.2799 C.2       2 UNK         0.5000 
     61 O           6.0426  -10.7232  -43.5412 O.2       2 UNK        -0.5000 
     62 CA          4.9272  -11.0733  -45.6270 C.3       2 UNK         0.1400 
     63 CB          6.0567  -10.5986  -46.5565 C.3       2 UNK        -0.1800 
     64 N           4.1710  -12.1157  -46.3198 N.am      2 UNK        -0.5000 
     65 C           2.8418  -12.2636  -46.2621 C.2       1 UNK         0.5000 
     66 O           2.0926  -11.5249  -45.6221 O.2       1 UNK        -0.5000 
     67 C          -0.9851  -21.4914  -47.9377 C.2       11 UNK         0.5000 
     68 O          -1.0178  -22.3526  -48.8178 O.2       11 UNK        -0.5000 
     69 N          -2.0294  -20.7163  -47.6129 N.am      12 UNK        -0.5000 
     70 CA         -3.3446  -20.7525  -48.2536 C.3       12 UNK         0.1400 
     71 CB         -4.2260  -19.6389  -47.6703 C.3       12 UNK        -0.1800 
     72 C          -4.0575  -22.1137  -48.1432 C.2       12 UNK         0.5000 
     73 O          -4.8283  -22.4628  -49.0367 O.2       12 UNK        -0.5000 
     74 N          -3.7836  -22.8559  -47.0639 N.am      13 UNK        -0.5000 
     75 CA         -4.2768  -24.2113  -46.8505 C.3       13 UNK         0.1400 
     76 CB         -4.3588  -24.4873  -45.3404 C.3       13 UNK        -0.1800 
     77 C          -3.3982  -25.2614  -47.5543 C.2       13 UNK         0.5000 
     78 O          -3.9301  -26.1186  -48.2605 O.2       13 UNK        -0.5000 
     79 N          -2.0799  -25.2046  -47.3191 N.am      14 UNK        -0.5000 
     80 CA         -1.1286  -26.2409  -47.7215 C.3       14 UNK         0.1400 
     81 CB          0.1374  -26.1341  -46.8565 C.3       14 UNK        -0.1800 
     82 C          -0.7602  -26.2037  -49.2132 C.2       14 UNK         0.5000 
     83 O          -0.7461  -27.2548  -49.8556 O.2       14 UNK        -0.5000 
     84 N          -0.4402  -25.0103  -49.7264 N.am      15 UNK        -0.5000 
     85 CA          0.0186  -24.7967  -51.1002 C.3       15 UNK         0.1400 
     86 CB          1.2773  -23.9156  -51.0808 C.3       15 UNK        -0.1800 
     87 C          -1.0782  -24.1556  -51.9603 C.2       15 UNK         0.5000 
     88 O          -1.2138  -24.5062  -53.1340 O.2       15 UNK        -0.5000 
     89 N          -1.8394  -23.2237  -51.3656 N.am      16 UNK        -0.5000 
     90 CA         -3.0308  -22.5650  -51.9148 C.3       16 UNK         0.1400 
     91 CB         -4.1548  -23.6031  -52.0892 C.3       16 UNK        -0.1800 
     92 C          -2.7992  -21.7685  -53.2146 C.2       16 UNK         0.5000 
     93 O          -3.7603  -21.5086  -53.9408 O.2       16 UNK        -0.5000 
     94 N          -1.5293  -21.4584  -53.5211 N.am      17 UNK        -0.5000 
     95 CA         -1.0317  -20.9053  -54.7887 C.3       17 UNK         0.1400 
     96 CB         -1.4947  -19.4431  -54.9554 C.3       17 UNK        -0.1800 
     97 C          -1.3792  -21.7836  -56.0162 C.2       17 UNK         0.5000 
     98 O          -1.4539  -21.2709  -57.1335 O.2       17 UNK        -0.5000 
     99 N          -1.6278  -23.0829  -55.7732 N.am      18 UNK        -0.5000 
    100 CA        -2.1765  -24.0869  -56.6931 C.3       18 UNK         0.1400 
    101 CB        -1.1876  -24.3769  -57.8410 C.3       18 UNK        -0.1800 
    102 C         -3.6018  -23.7659  -57.2077 C.2       18 UNK         0.5000 
    103 O         -4.0457  -24.3831  -58.1774 O.2       18 UNK        -0.5000 
    104 N         -4.3000  -22.8209  -56.5609 N.am      19 UNK        -0.5000 
    105 CA        -5.6055  -22.3077  -56.9811 C.3       19 UNK         0.1400 
    106 CB        -5.5975  -20.7799  -56.8108 C.3       19 UNK        -0.1800 
    107 C         -6.7813  -22.9302  -56.2046 C.2       19 UNK         0.5000 
    108 O         -7.9246  -22.7308  -56.6151 O.2       19 UNK        -0.5000 
    109 N         -6.4795  -23.6637  -55.1201 N.am      20 UNK        -0.5000 
    110 CA        -7.3904  -24.2592  -54.1324 C.3       20 UNK         0.1400 
    111 CB        -8.4206  -25.2061  -54.7795 C.3       20 UNK        -0.1800 
    112 C         -8.0581  -23.1751  -53.2637 C.2       20 UNK         0.5000 
    113 O         -8.9004  -22.4180  -53.7489 O.2       20 UNK        -0.5000 
    114 N         -7.6208  -23.0862  -51.9982 N.am      21 UNK        -0.5000 
    115 CA        -7.9933  -22.0745  -50.9975 C.3       21 UNK         0.1400 
    116 CB        -9.4399  -22.3094  -50.5151 C.3       21 UNK        -0.1800 
    117 C         -7.7474  -20.6203  -51.4665 C.2       21 UNK         0.5000 
    118 O         -8.5012  -19.7198  -51.0937 O.2       21 UNK        -0.5000 
    119 N         -6.7158  -20.4311  -52.3034 N.am      22 UNK        -0.5000 
    120 CA        -6.3833  -19.1849  -53.0175 C.3       22 UNK         0.1400 
    121 C         -7.4120  -18.7752  -54.1191 C.2       22 UNK         0.5000 
    122 N         -8.3366  -19.6338  -54.5342 N.am      22 UNK        -0.7600 
    123 O         -7.3533  -17.6648  -54.6400 O.2       22 UNK        -0.5000 
    124 C124       -6.0236  -18.0016  -52.0741 C.3       23 UNK        -0.0398 
    125 S125       -4.6137  -18.3692  -50.9751 S.3       23 UNK        -0.2404 
    126 C126       -3.2856  -17.4612  -51.8199 C.3       23 UNK        -0.0205 
    127 H127        5.2190  -16.5928  -45.7067 H         1 UNK         0.0600 
    128 H128        3.6703  -17.4435  -45.6860 H         1 UNK         0.0600 
    129 H129        4.3402  -16.8683  -47.2150 H         1 UNK         0.0600 
    130 H130        3.2896  -15.0475  -47.9481 H         1 UNK         0.3000 
    131 H131        1.3190  -13.7114  -46.5691 H         1 UNK         0.0600 
    132 H132        1.0915  -12.2611  -48.4782 H         1 UNK         0.0800 
    133 H133        2.7587  -12.4542  -48.9441 H         1 UNK         0.0800 
    134 H134       -0.7312  -14.4439  -48.6899 H         1 UNK         0.0800 
    135 H135        0.4069  -15.4708  -47.8434 H         1 UNK         0.0800 
    136 H136       -2.2029  -15.4767  -50.2867 H         1 UNK         0.1150 
    137 H137       -1.5059  -19.4939  -51.5879 H         1 UNK         0.1150 
    138 H138        1.3979  -17.4885  -49.1470 H         1 UNK         0.1150 
    139 H139        0.2359  -20.7848  -50.5034 H         1 UNK         0.0800 
    140 H140        1.4597  -19.8862  -51.3497 H         1 UNK         0.0800 
    141 H141        0.3792  -19.1674  -47.6042 H         1 UNK         0.0800 
    142 H142        1.7666  -19.7493  -46.7556 H         1 UNK         0.0800 
    143 H143        0.9460  -22.1624  -47.2989 H         1 UNK         0.0600 
    144 H144        0.2781  -20.4680  -45.1575 H         1 UNK         0.3000 
    145 H145       -1.6131  -22.8092  -43.2003 H         1 UNK         0.0600 
    146 H146        0.0964  -22.0623  -41.5758 H         1 UNK         0.0600 
    147 H147        0.8172  -23.1517  -42.7508 H         1 UNK         0.0600 
    148 H148        1.0993  -21.4201  -42.8737 H         1 UNK         0.0600 
    149 H149       -1.0139  -20.0685  -42.7543 H         1 UNK         0.3000 
    150 H150       -3.9102  -18.7086  -44.4023 H         1 UNK         0.0600 
    151 H151       -4.6148  -19.4178  -42.1114 H         1 UNK         0.0600 
    152 H152       -4.1841  -17.7151  -42.1569 H         1 UNK         0.0600 
    153 H153       -3.0672  -18.8885  -41.4631 H         1 UNK         0.0600 
    154 H154       -1.8196  -17.3920  -43.0325 H         1 UNK         0.3000 
    155 H155        0.3935  -16.9675  -45.8497 H         1 UNK         0.0600 
    156 H156       -1.3890  -15.1426  -44.1469 H         1 UNK         0.0600 
    157 H157       -1.2252  -15.1173  -45.8963 H         1 UNK         0.0600 
    158 H158        0.1301  -14.6468  -44.8739 H         1 UNK         0.0600 
    159 H159        0.7709  -16.2253  -43.1640 H         1 UNK         0.3000 
    160 H160        2.2315  -19.2769  -41.9642 H         1 UNK         0.0600 
    161 H161        3.9472  -17.6077  -41.3034 H         1 UNK         0.0600 
    162 H162        3.2922  -16.4459  -42.4552 H         1 UNK         0.0600 
    163 H163        4.0339  -17.9303  -43.0286 H         1 UNK         0.0600 
    164 H164        1.5026  -16.7601  -40.7537 H         1 UNK         0.3000 
    165 H165       -1.7025  -17.7943  -39.5803 H         1 UNK         0.0600 
    166 H166       -0.6769  -17.2234  -37.3966 H         1 UNK         0.0600 
    167 H167       -0.0878  -18.7829  -37.9490 H         1 UNK         0.0600 
    168 H168        0.9412  -17.3619  -38.0850 H         1 UNK         0.0600 
    169 H169       -0.1364  -15.4271  -39.1861 H         1 UNK         0.3000 
    170 H170       -1.2164  -13.6563  -42.0743 H         1 UNK         0.0600 
    171 H171       -3.0918  -13.3655  -40.4488 H         1 UNK         0.0600 
    172 H172       -1.9437  -13.2775  -39.1183 H         1 UNK         0.0600 
    173 H173       -1.9600  -12.0255  -40.3610 H         1 UNK         0.0600 
    174 H174        0.4036  -12.9016  -39.8520 H         1 UNK         0.3000 
    175 H175        2.6951  -12.5043  -40.3384 H         1 UNK         0.0600 
    176 H176        3.1984  -15.5085  -39.8350 H         1 UNK         0.0600 
    177 H177        3.9594  -14.1779  -38.9711 H         1 UNK         0.0600 
    178 H178        2.2487  -14.4770  -38.7720 H         1 UNK         0.0600 
    179 H179        3.4727  -14.0343  -42.5916 H         1 UNK         0.3000 
    180 H180        6.9376  -12.9718  -42.5549 H         1 UNK         0.0600 
    181 H181        5.3775  -15.5090  -43.2583 H         1 UNK         0.0600 
    182 H182        6.7181  -15.4032  -42.1293 H         1 UNK         0.0600 
    183 H183        6.9843  -15.0817  -43.8359 H         1 UNK         0.0600 
    184 H184        4.8785  -13.4633  -44.5858 H         1 UNK         0.3000 
    185 H185        4.2808  -10.2181  -45.4190 H         1 UNK         0.0600 
    186 H186        6.6286   -9.7902  -46.0991 H         1 UNK         0.0600 
    187 H187        6.7543  -11.4047  -46.7873 H         1 UNK         0.0600 
    188 H188        5.6586  -10.2191  -47.4978 H         1 UNK         0.0600 
    189 H189        4.7056  -12.7780  -46.8637 H         1 UNK         0.3000 
    190 H190       -1.9026  -19.9992  -46.9016 H         1 UNK         0.3000 
    191 H191       -3.1917  -20.5395  -49.3117 H         1 UNK         0.0600 
    192 H192       -4.3841  -19.7685  -46.6002 H         1 UNK         0.0600 
    193 H193       -5.2066  -19.6262  -48.1477 H         1 UNK         0.0600 
    194 H194       -3.7763  -18.6584  -47.8286 H         1 UNK         0.0600 
    195 H195       -3.1747  -22.4701  -46.3531 H         1 UNK         0.3000 
    196 H196       -5.2874  -24.2925  -47.2566 H         1 UNK         0.0600 
    197 H197       -3.3859  -24.3959  -44.8563 H         1 UNK         0.0600 
    198 H198       -4.7302  -25.4942  -45.1464 H         1 UNK         0.0600 
    199 H199       -5.0382  -23.7890  -44.8512 H         1 UNK         0.0600 
    200 H200       -1.7143  -24.4697  -46.7167 H         1 UNK         0.3000 
    201 H201       -1.5823  -27.2137  -47.5192 H         1 UNK         0.0600 
    202 H202        0.8511  -26.9196  -47.1081 H         1 UNK         0.0600 
    203 H203       -0.0994  -26.2367  -45.7973 H         1 UNK         0.0600 
    204 H204        0.6407  -25.1762  -46.9944 H         1 UNK         0.0600 
    205 H205       -0.5445  -24.1814  -49.1492 H         1 UNK         0.3000 
    206 H206        0.2864  -25.7457  -51.5692 H         1 UNK         0.0600 
    207 H207        2.0965  -24.4187  -50.5669 H         1 UNK         0.0600 
    208 H208        1.6177  -23.6914  -52.0925 H         1 UNK         0.0600 
    209 H209        1.1026  -22.9685  -50.5719 H         1 UNK         0.0600 
    210 H210       -1.6074  -22.9697  -50.4070 H         1 UNK         0.3000 
    211 H211       -3.3567  -21.8331  -51.1788 H         1 UNK         0.0600 
    212 H212       -3.9114  -24.3477  -52.8475 H         1 UNK         0.0600 
    213 H213       -5.0731  -23.1141  -52.3980 H         1 UNK         0.0600 
    214 H214       -4.3583  -24.1281  -51.1557 H         1 UNK         0.0600 
    215 H215       -0.8178  -21.7555  -52.8697 H         1 UNK         0.3000 
    216 H216        0.0569  -20.9030  -54.7186 H         1 UNK         0.0600 
    217 H217       -1.0430  -18.9852  -55.8360 H         1 UNK         0.0600 
    218 H218       -1.2030  -18.8390  -54.0969 H         1 UNK         0.0600 
    219 H219       -2.5768  -19.3697  -55.0681 H         1 UNK         0.0600 
    220 H220       -1.5093  -23.4120  -54.8194 H         1 UNK         0.3000 
    221 H221       -2.2732  -25.0012  -56.1060 H         1 UNK         0.0600 
    222 H222       -1.0972  -23.5310  -58.5227 H         1 UNK         0.0600 
    223 H223       -0.1939  -24.6066  -57.4565 H         1 UNK         0.0600 
    224 H224       -1.5114  -25.2357  -58.4299 H         1 UNK         0.0600 
    225 H225       -3.8824  -22.3602  -55.7584 H         1 UNK         0.3000 
    226 H226       -5.7683  -22.5225  -58.0393 H         1 UNK         0.0600 
    227 H227       -4.8053  -20.3219  -57.4034 H         1 UNK         0.0600 
    228 H228       -6.5421  -20.3413  -57.1349 H         1 UNK         0.0600 
    229 H229       -5.4432  -20.4934  -55.7713 H         1 UNK         0.0600 
    230 H230       -5.4969  -23.7487  -54.9054 H         1 UNK         0.3000 
    231 H231       -6.7625  -24.8738  -53.4853 H         1 UNK         0.0600 
    232 H232       -7.9321  -25.9510  -55.4077 H         1 UNK         0.0600 
    233 H233       -9.1458  -24.6718  -55.3935 H         1 UNK         0.0600 
    234 H234       -8.9825  -25.7426  -54.0144 H         1 UNK         0.0600 
    235 H235       -6.9357  -23.7577  -51.6815 H         1 UNK         0.3000 
    236 H236       -7.3329  -22.2291  -50.1433 H         1 UNK         0.0600 
    237 H237       -9.6863  -21.6546  -49.6785 H         1 UNK         0.0600 
    238 H238      -10.1653  -22.1176  -51.3064 H         1 UNK         0.0600 
    239 H239       -9.5797  -23.3349  -50.1734 H         1 UNK         0.0600 
    240 H240       -6.1562  -21.2302  -52.5583 H         1 UNK         0.3000 
    241 H241       -5.4786  -19.4171  -53.5794 H         1 UNK         0.0600 
    242 H242       -8.4229  -20.5663  -54.1416 H         1 UNK         0.3800 
    243 H243       -8.9781  -19.3471  -55.2557 H         1 UNK         0.3800 
    244 H244       -5.7858  -17.1079  -52.6526 H         1 UNK         0.0800 
    245 H245       -6.8784  -17.7264  -51.4560 H         1 UNK         0.0800 
    246 H246       -3.1223  -17.8995  -52.8053 H         1 UNK         0.0800 
    247 H247       -3.5999  -16.4300  -51.9885 H         1 UNK         0.0800 
@<TRIPOS>BOND
     1    1    2 1    
     2    1  127 1    
     3    1  128 1    
     4    1  129 1    
     5    2    3 2    
     6    2    4 am   BACKBONE|DICT|INTERRES
     7    4    5 1    
     8    4  130 1    
     9    5    6 1    
    10    5   65 1    
    11    5  131 1    
    12    6    7 1    
    13    6  132 1    
    14    6  133 1    
    15    7    8 1    
    16    8    9 1    
    17    8  134 1    
    18    8  135 1    
    19    9   10 ar   
    20    9   14 ar   
    21   10   11 ar   
    22   10  136 1    
    23   11   12 ar   
    24   11  126 1    
    25   12   13 ar   
    26   12  137 1    
    27   13   14 ar   
    28   13   15 1    
    29   14  138 1    
    30   15   16 1    
    31   15  139 1    
    32   15  140 1    
    33   16   17 1    
    34   17   18 1    
    35   17  141 1    
    36   17  142 1    
    37   18   19 1    
    38   18   67 1    
    39   18  143 1    
    40   19   20 am   BACKBONE|DICT|INTERRES
    41   19  144 1    
    42   20   21 2    
    43   20   22 1    
    44   22   23 1    
    45   22   24 1    
    46   22  145 1    
    47   23  146 1    
    48   23  147 1    
    49   23  148 1    
    50   24   25 am   BACKBONE|DICT|INTERRES
    51   24  149 1    
    52   25   26 2    
    53   25   27 1    
    54   27   28 1    
    55   27   29 1    
    56   27  150 1    
    57   28  151 1    
    58   28  152 1    
    59   28  153 1    
    60   29   30 am   BACKBONE|DICT|INTERRES
    61   29  154 1    
    62   30   31 2    
    63   30   32 1    
    64   32   33 1    
    65   32   34 1    
    66   32  155 1    
    67   33  156 1    
    68   33  157 1    
    69   33  158 1    
    70   34   35 am   BACKBONE|DICT|INTERRES
    71   34  159 1    
    72   35   36 2    
    73   35   37 1    
    74   37   38 1    
    75   37   39 1    
    76   37  160 1    
    77   38  161 1    
    78   38  162 1    
    79   38  163 1    
    80   39   40 am   BACKBONE|DICT|INTERRES
    81   39  164 1    
    82   40   41 2    
    83   40   42 1    
    84   42   43 1    
    85   42   44 1    
    86   42  165 1    
    87   43  166 1    
    88   43  167 1    
    89   43  168 1    
    90   44   45 am   BACKBONE|DICT|INTERRES
    91   44  169 1    
    92   45   46 2    
    93   45   47 1    
    94   47   48 1    
    95   47   49 1    
    96   47  170 1    
    97   48  171 1    
    98   48  172 1    
    99   48  173 1    
   100   49   50 am   BACKBONE|DICT|INTERRES
   101   49  174 1    
   102   50   51 2    
   103   50   52 1    
   104   52   53 1    
   105   52   54 1    
   106   52  175 1    
   107   53  176 1    
   108   53  177 1    
   109   53  178 1    
   110   54   55 am   BACKBONE|DICT|INTERRES
   111   54  179 1    
   112   55   56 2    
   113   55   57 1    
   114   57   58 1    
   115   57   59 1    
   116   57  180 1    
   117   58  181 1    
   118   58  182 1    
   119   58  183 1    
   120   59   60 am   BACKBONE|DICT|INTERRES
   121   59  184 1    
   122   60   61 2    
   123   60   62 1    
   124   62   63 1    
   125   62   64 1    
   126   62  185 1    
   127   63  186 1    
   128   63  187 1    
   129   63  188 1    
   130   64   65 am   BACKBONE|DICT|INTERRES
   131   64  189 1    
   132   65   66 2    
   133   67   68 2    
   134   67   69 am   BACKBONE|DICT|INTERRES
   135   69   70 1    
   136   69  190 1    
   137   70   71 1    
   138   70   72 1    
   139   70  191 1    
   140   71  192 1    
   141   71  193 1    
   142   71  194 1    
   143   72   73 2    
   144   72   74 am   BACKBONE|DICT|INTERRES
   145   74   75 1    
   146   74  195 1    
   147   75   76 1    
   148   75   77 1    
   149   75  196 1    
   150   76  197 1    
   151   76  198 1    
   152   76  199 1    
   153   77   78 2    
   154   77   79 am   BACKBONE|DICT|INTERRES
   155   79   80 1    
   156   79  200 1    
   157   80   81 1    
   158   80   82 1    
   159   80  201 1    
   160   81  202 1    
   161   81  203 1    
   162   81  204 1    
   163   82   83 2    
   164   82   84 am   BACKBONE|DICT|INTERRES
   165   84   85 1    
   166   84  205 1    
   167   85   86 1    
   168   85   87 1    
   169   85  206 1    
   170   86  207 1    
   171   86  208 1    
   172   86  209 1    
   173   87   88 2    
   174   87   89 am   BACKBONE|DICT|INTERRES
   175   89   90 1    
   176   89  210 1    
   177   90   91 1    
   178   90   92 1    
   179   90  211 1    
   180   91  212 1    
   181   91  213 1    
   182   91  214 1    
   183   92   93 2    
   184   92   94 am   BACKBONE|DICT|INTERRES
   185   94   95 1    
   186   94  215 1    
   187   95   96 1    
   188   95   97 1    
   189   95  216 1    
   190   96  217 1    
   191   96  218 1    
   192   96  219 1    
   193   97   98 2    
   194   97   99 am   BACKBONE|DICT|INTERRES
   195   99  100 1    
   196   99  220 1    
   197  100  101 1    
   198  100  102 1    
   199  100  221 1    
   200  101  222 1    
   201  101  223 1    
   202  101  224 1    
   203  102  103 2    
   204  102  104 am   BACKBONE|DICT|INTERRES
   205  104  105 1    
   206  104  225 1    
   207  105  106 1    
   208  105  107 1    
   209  105  226 1    
   210  106  227 1    
   211  106  228 1    
   212  106  229 1    
   213  107  108 2    
   214  107  109 am   BACKBONE|DICT|INTERRES
   215  109  110 1    
   216  109  230 1    
   217  110  111 1    
   218  110  112 1    
   219  110  231 1    
   220  111  232 1    
   221  111  233 1    
   222  111  234 1    
   223  112  113 2    
   224  112  114 am   BACKBONE|DICT|INTERRES
   225  114  115 1    
   226  114  235 1    
   227  115  116 1    
   228  115  117 1    
   229  115  236 1    
   230  116  237 1    
   231  116  238 1    
   232  116  239 1    
   233  117  118 2    
   234  117  119 am   BACKBONE|DICT|INTERRES
   235  119  120 1    
   236  119  240 1    
   237  120  121 1    
   238  120  124 1    
   239  120  241 1    
   240  121  122 am   BACKBONE|DICT|INTERRES
   241  121  123 2    
   242  122  242 1    
   243  122  243 1    
   244  124  125 1    
   245  124  244 1    
   246  124  245 1    
   247  125  126 1    
   248  126  246 1    
   249  126  247 1    
@<TRIPOS>SUBSTRUCTURE
     1 UNK         1 GROUP             0       ****    0 ROOT    
