@<TRIPOS>MOLECULE
3R540
247   249    1
SMALL
USER_CHARGES


@<TRIPOS>ATOM
      1 CA          6.9155  -12.2951  -50.5118 C.3       0 UNK        -0.1800 
      2 C           5.8436  -12.5204  -49.4542 C.2       0 UNK         0.5000 
      3 O           4.9602  -11.6779  -49.3023 O.2       0 UNK        -0.5000 
      4 N           5.9401  -13.6460  -48.7301 N.am      1 UNK        -0.5000 
      5 CA          5.0415  -14.1195  -47.6656 C.3       1 UNK         0.1400 
      6 C6          3.7734  -14.8457  -48.2067 C.3       23 UNK        -0.0398 
      7 S7          2.3904  -13.8305  -48.8416 S.3       23 UNK        -0.2404 
      8 C8          0.9502  -14.7644  -48.2215 C.3       23 UNK        -0.0205 
      9 C9          0.5572  -15.8929  -49.1674 C.ar      23 UNK        -0.0193 
     10 C10        -0.5297  -15.7283  -50.0319 C.ar      23 UNK        -0.1150 
     11 C11        -0.8962  -16.7464  -50.9163 C.ar      23 UNK        -0.0193 
     12 C12        -0.1593  -17.9331  -50.9408 C.ar      23 UNK        -0.1150 
     13 C13         0.9332  -18.1117  -50.0883 C.ar      23 UNK        -0.0193 
     14 C14         1.2753  -17.0947  -49.1896 C.ar      23 UNK        -0.1150 
     15 C15         1.7632  -19.3877  -50.1728 C.3       23 UNK        -0.0205 
     16 S16         0.8055  -20.8787  -49.7486 S.3       23 UNK        -0.2404 
     17 C17         0.4009  -20.5276  -48.0093 C.3       23 UNK        -0.0398 
     18 CA          0.3279  -21.7932  -47.1235 C.3       11 UNK         0.1400 
     19 N           0.4129  -21.4560  -45.7039 N.am      11 UNK        -0.5000 
     20 C           0.5242  -22.3284  -44.6939 C.2       10 UNK         0.5000 
     21 O           0.6575  -23.5422  -44.8465 O.2       10 UNK        -0.5000 
     22 CA          0.4247  -21.7448  -43.2714 C.3       10 UNK         0.1400 
     23 CB          1.7871  -21.2180  -42.7972 C.3       10 UNK        -0.1800 
     24 N          -0.5767  -20.6796  -43.1702 N.am      10 UNK        -0.5000 
     25 C          -1.8933  -20.8635  -43.3508 C.2       9 UNK         0.5000 
     26 O          -2.4066  -21.9616  -43.5673 O.2       9 UNK        -0.5000 
     27 CA         -2.7804  -19.6055  -43.3289 C.3       9 UNK         0.1400 
     28 CB         -3.0571  -19.1587  -41.8857 C.3       9 UNK        -0.1800 
     29 N          -2.2043  -18.4954  -44.0902 N.am      9 UNK        -0.5000 
     30 C          -1.9990  -18.5114  -45.4154 C.2       8 UNK         0.5000 
     31 O          -2.3246  -19.4476  -46.1427 O.2       8 UNK        -0.5000 
     32 CA         -1.2555  -17.3109  -46.0284 C.3       8 UNK         0.1400 
     33 CB         -2.2159  -16.1406  -46.2810 C.3       8 UNK        -0.1800 
     34 N          -0.1343  -16.8639  -45.2022 N.am      8 UNK        -0.5000 
     35 C           0.9383  -17.6109  -44.9080 C.2       7 UNK         0.5000 
     36 O           1.1159  -18.7479  -45.3368 O.2       7 UNK        -0.5000 
     37 CA          1.9630  -17.0121  -43.9340 C.3       7 UNK         0.1400 
     38 CB          2.9413  -16.0880  -44.6713 C.3       7 UNK        -0.1800 
     39 N           1.3119  -16.3055  -42.8321 N.am      7 UNK        -0.5000 
     40 C           0.6441  -16.9249  -41.8474 C.2       6 UNK         0.5000 
     41 O           0.5556  -18.1494  -41.7465 O.2       6 UNK        -0.5000 
     42 CA         -0.0851  -16.0254  -40.8339 C.3       6 UNK         0.1400 
     43 CB          0.8742  -15.5460  -39.7358 C.3       6 UNK        -0.1800 
     44 N          -0.7173  -14.8700  -41.4713 N.am      6 UNK        -0.5000 
     45 C          -1.7828  -14.9565  -42.2806 C.2       5 UNK         0.5000 
     46 O          -2.3502  -16.0146  -42.5489 O.2       5 UNK        -0.5000 
     47 CA         -2.2731  -13.6532  -42.9376 C.3       5 UNK         0.1400 
     48 CB         -3.2795  -12.9363  -42.0258 C.3       5 UNK        -0.1800 
     49 N          -1.1953  -12.7272  -43.2889 N.am      5 UNK        -0.5000 
     50 C          -0.1712  -13.0046  -44.1070 C.2       4 UNK         0.5000 
     51 O          -0.0067  -14.0986  -44.6468 O.2       4 UNK        -0.5000 
     52 CA          0.8585  -11.8912  -44.3587 C.3       4 UNK         0.1400 
     53 CB          0.4173  -10.4910  -43.8758 C.3       4 UNK        -0.1800 
     54 N           2.1685  -12.2352  -43.8068 N.am      4 UNK        -0.5000 
     55 C           2.4930  -12.4651  -42.5248 C.2       3 UNK         0.5000 
     56 O           1.6650  -12.5217  -41.6141 O.2       3 UNK        -0.5000 
     57 CA          3.9917  -12.6556  -42.1906 C.3       3 UNK         0.1400 
     58 CB          4.2542  -14.0023  -41.4972 C.3       3 UNK        -0.1800 
     59 N           4.8751  -12.5150  -43.3561 N.am      3 UNK        -0.5000 
     60 C           5.2332  -11.3353  -43.8849 C.2       2 UNK         0.5000 
     61 O           4.9198  -10.2519  -43.3894 O.2       2 UNK        -0.5000 
     62 CA          6.0593  -11.3404  -45.1888 C.3       2 UNK         0.1400 
     63 CB          7.5448  -11.1021  -44.8751 C.3       2 UNK        -0.1800 
     64 N           5.9487  -12.5232  -46.0524 N.am      2 UNK        -0.5000 
     65 C           4.8263  -13.0734  -46.5415 C.2       1 UNK         0.5000 
     66 O           3.6980  -12.7733  -46.1539 O.2       1 UNK        -0.5000 
     67 C          -0.9306  -22.6323  -47.4170 C.2       11 UNK         0.5000 
     68 O          -0.8096  -23.7408  -47.9349 O.2       11 UNK        -0.5000 
     69 N          -2.1078  -22.1251  -47.0245 N.am      12 UNK        -0.5000 
     70 CA         -3.4131  -22.7625  -47.2192 C.3       12 UNK         0.1400 
     71 CB         -4.5150  -21.8139  -46.7261 C.3       12 UNK        -0.1800 
     72 C          -3.5561  -24.1448  -46.5531 C.2       12 UNK         0.5000 
     73 O          -4.3411  -24.9640  -47.0273 O.2       12 UNK        -0.5000 
     74 N          -2.7867  -24.3969  -45.4873 N.am      13 UNK        -0.5000 
     75 CA         -2.7092  -25.6936  -44.8166 C.3       13 UNK         0.1400 
     76 CB         -2.0521  -25.5038  -43.4407 C.3       13 UNK        -0.1800 
     77 C          -1.9622  -26.7724  -45.6315 C.2       13 UNK         0.5000 
     78 O          -2.1545  -27.9575  -45.3548 O.2       13 UNK        -0.5000 
     79 N          -1.1225  -26.3635  -46.5939 N.am      14 UNK        -0.5000 
     80 CA         -0.2712  -27.2503  -47.3910 C.3       14 UNK         0.1400 
     81 CB          1.1935  -26.8285  -47.1910 C.3       14 UNK        -0.1800 
     82 C          -0.6248  -27.2358  -48.8892 C.2       14 UNK         0.5000 
     83 O          -0.5088  -28.2732  -49.5437 O.2       14 UNK        -0.5000 
     84 N          -1.0107  -26.0672  -49.4159 N.am      15 UNK        -0.5000 
     85 CA         -1.2879  -25.8181  -50.8296 C.3       15 UNK         0.1400 
     86 CB         -1.4835  -24.3082  -51.0284 C.3       15 UNK        -0.1800 
     87 C          -2.5168  -26.5731  -51.3646 C.2       15 UNK         0.5000 
     88 O          -3.4740  -26.8155  -50.6239 O.2       15 UNK        -0.5000 
     89 N          -2.4861  -26.8694  -52.6709 N.am      16 UNK        -0.5000 
     90 CA         -3.5968  -27.4421  -53.4310 C.3       16 UNK         0.1400 
     91 CB         -3.1317  -27.7336  -54.8653 C.3       16 UNK        -0.1800 
     92 C          -4.8136  -26.4999  -53.4372 C.2       16 UNK         0.5000 
     93 O          -4.6462  -25.2862  -53.5911 O.2       16 UNK        -0.5000 
     94 N          -6.0051  -27.0746  -53.2184 N.am      17 UNK        -0.5000 
     95 CA         -7.3029  -26.3946  -53.0866 C.3       17 UNK         0.1400 
     96 CB         -7.7394  -25.8096  -54.4460 C.3       17 UNK        -0.1800 
     97 C          -7.3462  -25.3420  -51.9530 C.2       17 UNK         0.5000 
     98 O          -8.1749  -24.4331  -51.9950 O.2       17 UNK        -0.5000 
     99 N          -6.4335  -25.4701  -50.9774 N.am      18 UNK        -0.5000 
    100 CA        -6.1575  -24.5324  -49.8874 C.3       18 UNK         0.1400 
    101 CB        -7.3267  -24.4976  -48.8813 C.3       18 UNK        -0.1800 
    102 C         -5.7339  -23.1312  -50.3816 C.2       18 UNK         0.5000 
    103 O         -6.0972  -22.1301  -49.7632 O.2       18 UNK        -0.5000 
    104 N         -4.9720  -23.0915  -51.4882 N.am      19 UNK        -0.5000 
    105 CA        -4.4866  -21.8918  -52.1817 C.3       19 UNK         0.1400 
    106 CB        -3.4962  -21.0908  -51.3043 C.3       19 UNK        -0.1800 
    107 C         -5.6402  -21.0244  -52.7285 C.2       19 UNK         0.5000 
    108 O         -5.6350  -19.8039  -52.5506 O.2       19 UNK        -0.5000 
    109 N         -6.6155  -21.6781  -53.3794 N.am      20 UNK        -0.5000 
    110 CA        -7.8043  -21.0730  -53.9883 C.3       20 UNK         0.1400 
    111 CB        -8.6212  -22.1584  -54.7064 C.3       20 UNK        -0.1800 
    112 C         -7.4500  -19.9318  -54.9597 C.2       20 UNK         0.5000 
    113 O         -6.7689  -20.1716  -55.9601 O.2       20 UNK        -0.5000 
    114 N         -7.8633  -18.7067  -54.6021 N.am      21 UNK        -0.5000 
    115 CA        -7.5779  -17.4359  -55.2846 C.3       21 UNK         0.1400 
    116 CB        -8.3209  -17.3773  -56.6356 C.3       21 UNK        -0.1800 
    117 C         -6.0693  -17.1216  -55.4296 C.2       21 UNK         0.5000 
    118 O         -5.6899  -16.3404  -56.3037 O.2       21 UNK        -0.5000 
    119 N         -5.2351  -17.7440  -54.5837 N.am      22 UNK        -0.5000 
    120 CA        -3.7677  -17.7561  -54.6687 C.3       22 UNK         0.1400 
    121 C         -3.2046  -18.5091  -55.9173 C.2       22 UNK         0.5000 
    122 N         -3.9703  -19.3814  -56.5650 N.am      22 UNK        -0.7600 
    123 O         -2.0522  -18.3266  -56.2991 O.2       22 UNK        -0.5000 
    124 C124       -3.1537  -16.3447  -54.4368 C.3       23 UNK        -0.0398 
    125 S125       -1.5450  -16.3953  -53.5786 S.3       23 UNK        -0.2404 
    126 C126       -2.0842  -16.5713  -51.8488 C.3       23 UNK        -0.0205 
    127 H127        6.4576  -12.2120  -51.4976 H         1 UNK         0.0600 
    128 H128        7.6375  -13.1116  -50.5409 H         1 UNK         0.0600 
    129 H129        7.4561  -11.3710  -50.3071 H         1 UNK         0.0600 
    130 H130        6.7140  -14.2651  -48.9279 H         1 UNK         0.3000 
    131 H131        5.6211  -14.9035  -47.1751 H         1 UNK         0.0600 
    132 H132        4.0643  -15.5321  -49.0028 H         1 UNK         0.0800 
    133 H133        3.3867  -15.4836  -47.4171 H         1 UNK         0.0800 
    134 H134        1.1420  -15.1556  -47.2221 H         1 UNK         0.0800 
    135 H135        0.1185  -14.0680  -48.1060 H         1 UNK         0.0800 
    136 H136       -1.0890  -14.8033  -50.0191 H         1 UNK         0.1150 
    137 H137       -0.4301  -18.7165  -51.6350 H         1 UNK         0.1150 
    138 H138        2.1150  -17.2292  -48.5236 H         1 UNK         0.1150 
    139 H139        2.1419  -19.4932  -51.1902 H         1 UNK         0.0800 
    140 H140        2.6404  -19.3269  -49.5268 H         1 UNK         0.0800 
    141 H141       -0.5237  -19.9510  -47.9743 H         1 UNK         0.0800 
    142 H142        1.1791  -19.8689  -47.6250 H         1 UNK         0.0800 
    143 H143        1.1978  -22.4143  -47.3480 H         1 UNK         0.0600 
    144 H144        0.3933  -20.4644  -45.4794 H         1 UNK         0.3000 
    145 H145        0.1214  -22.5531  -42.6027 H         1 UNK         0.0600 
    146 H146        1.7346  -20.8595  -41.7689 H         1 UNK         0.0600 
    147 H147        2.1415  -20.3959  -43.4191 H         1 UNK         0.0600 
    148 H148        2.5422  -22.0043  -42.8303 H         1 UNK         0.0600 
    149 H149       -0.2340  -19.7484  -42.9632 H         1 UNK         0.3000 
    150 H150       -3.7350  -19.8661  -43.7905 H         1 UNK         0.0600 
    151 H151       -3.4837  -19.9730  -41.2987 H         1 UNK         0.0600 
    152 H152       -3.7680  -18.3328  -41.8596 H         1 UNK         0.0600 
    153 H153       -2.1466  -18.8315  -41.3828 H         1 UNK         0.0600 
    154 H154       -1.9680  -17.6590  -43.5651 H         1 UNK         0.3000 
    155 H155       -0.8492  -17.6268  -46.9913 H         1 UNK         0.0600 
    156 H156       -3.0199  -16.4372  -46.9555 H         1 UNK         0.0600 
    157 H157       -1.7005  -15.2972  -46.7401 H         1 UNK         0.0600 
    158 H158       -2.6745  -15.7910  -45.3566 H         1 UNK         0.0600 
    159 H159       -0.1753  -15.9093  -44.8514 H         1 UNK         0.3000 
    160 H160        2.5413  -17.8388  -43.5154 H         1 UNK         0.0600 
    161 H161        2.4490  -15.2002  -45.0692 H         1 UNK         0.0600 
    162 H162        3.4030  -16.6214  -45.5016 H         1 UNK         0.0600 
    163 H163        3.7545  -15.7647  -44.0261 H         1 UNK         0.0600 
    164 H164        1.2669  -15.2988  -42.8931 H         1 UNK         0.3000 
    165 H165       -0.8660  -16.6251  -40.3612 H         1 UNK         0.0600 
    166 H166        0.3438  -14.9818  -38.9686 H         1 UNK         0.0600 
    167 H167        1.3586  -16.3901  -39.2431 H         1 UNK         0.0600 
    168 H168        1.6579  -14.9059  -40.1390 H         1 UNK         0.0600 
    169 H169       -0.2803  -13.9681  -41.3309 H         1 UNK         0.3000 
    170 H170       -2.7860  -13.9234  -43.8621 H         1 UNK         0.0600 
    171 H171       -2.8157  -12.6055  -41.0957 H         1 UNK         0.0600 
    172 H172       -3.7062  -12.0624  -42.5186 H         1 UNK         0.0600 
    173 H173       -4.1076  -13.5962  -41.7635 H         1 UNK         0.0600 
    174 H174       -1.2336  -11.8103  -42.8684 H         1 UNK         0.3000 
    175 H175        0.9879  -11.8405  -45.4409 H         1 UNK         0.0600 
    176 H176        0.2986  -10.4417  -42.7930 H         1 UNK         0.0600 
    177 H177        1.1529   -9.7373  -44.1577 H         1 UNK         0.0600 
    178 H178       -0.5297  -10.1975  -44.3308 H         1 UNK         0.0600 
    179 H179        2.9025  -12.3139  -44.5065 H         1 UNK         0.3000 
    180 H180        4.2524  -11.8737  -41.4742 H         1 UNK         0.0600 
    181 H181        5.3213  -14.1877  -41.3744 H         1 UNK         0.0600 
    182 H182        3.8248  -14.8394  -42.0426 H         1 UNK         0.0600 
    183 H183        3.8138  -14.0094  -40.5001 H         1 UNK         0.0600 
    184 H184        5.1611  -13.3619  -43.8246 H         1 UNK         0.3000 
    185 H185        5.7032  -10.4948  -45.7806 H         1 UNK         0.0600 
    186 H186        8.1240  -10.9567  -45.7872 H         1 UNK         0.0600 
    187 H187        7.6800  -10.2091  -44.2631 H         1 UNK         0.0600 
    188 H188        7.9785  -11.9418  -44.3305 H         1 UNK         0.0600 
    189 H189        6.8229  -12.8556  -46.4332 H         1 UNK         0.3000 
    190 H190       -2.1266  -21.1985  -46.6015 H         1 UNK         0.3000 
    191 H191       -3.5429  -22.9076  -48.2930 H         1 UNK         0.0600 
    192 H192       -4.5007  -20.8746  -47.2792 H         1 UNK         0.0600 
    193 H193       -4.4004  -21.5832  -45.6665 H         1 UNK         0.0600 
    194 H194       -5.5034  -22.2536  -46.8642 H         1 UNK         0.0600 
    195 H195       -2.2092  -23.6520  -45.1178 H         1 UNK         0.3000 
    196 H196       -3.7273  -26.0541  -44.6553 H         1 UNK         0.0600 
    197 H197       -2.6000  -24.7796  -42.8375 H         1 UNK         0.0600 
    198 H198       -1.0234  -25.1549  -43.5305 H         1 UNK         0.0600 
    199 H199       -2.0322  -26.4416  -42.8842 H         1 UNK         0.0600 
    200 H200       -1.0392  -25.3702  -46.7816 H         1 UNK         0.3000 
    201 H201       -0.3678  -28.2834  -47.0512 H         1 UNK         0.0600 
    202 H202        1.4865  -26.9121  -46.1443 H         1 UNK         0.0600 
    203 H203        1.3607  -25.7961  -47.5018 H         1 UNK         0.0600 
    204 H204        1.8676  -27.4615  -47.7697 H         1 UNK         0.0600 
    205 H205       -1.0408  -25.2473  -48.8136 H         1 UNK         0.3000 
    206 H206       -0.4119  -26.1343  -51.3997 H         1 UNK         0.0600 
    207 H207       -2.3070  -23.9389  -50.4167 H         1 UNK         0.0600 
    208 H208       -0.5869  -23.7521  -50.7533 H         1 UNK         0.0600 
    209 H209       -1.7094  -24.0666  -52.0679 H         1 UNK         0.0600 
    210 H210       -1.6778  -26.5969  -53.2108 H         1 UNK         0.3000 
    211 H211       -3.8755  -28.3853  -52.9564 H         1 UNK         0.0600 
    212 H212       -2.8206  -26.8236  -55.3803 H         1 UNK         0.0600 
    213 H213       -3.9337  -28.1841  -55.4516 H         1 UNK         0.0600 
    214 H214       -2.2927  -28.4296  -54.8754 H         1 UNK         0.0600 
    215 H215       -6.0331  -28.0765  -53.0865 H         1 UNK         0.3000 
    216 H216       -8.0257  -27.1633  -52.8097 H         1 UNK         0.0600 
    217 H217       -8.7616  -25.4321  -54.4020 H         1 UNK         0.0600 
    218 H218       -7.7109  -26.5678  -55.2285 H         1 UNK         0.0600 
    219 H219       -7.0981  -24.9844  -54.7564 H         1 UNK         0.0600 
    220 H220       -5.7855  -26.2448  -51.0418 H         1 UNK         0.3000 
    221 H221       -5.2874  -24.9393  -49.3745 H         1 UNK         0.0600 
    222 H222       -8.2202  -24.0456  -49.3125 H         1 UNK         0.0600 
    223 H223       -7.5852  -25.5011  -48.5437 H         1 UNK         0.0600 
    224 H224       -7.0612  -23.9193  -47.9958 H         1 UNK         0.0600 
    225 H225       -4.7783  -23.9669  -51.9633 H         1 UNK         0.3000 
    226 H226       -3.9354  -22.2473  -53.0535 H         1 UNK         0.0600 
    227 H227       -2.6680  -21.7085  -50.9624 H         1 UNK         0.0600 
    228 H228       -3.0625  -20.2617  -51.8648 H         1 UNK         0.0600 
    229 H229       -3.9796  -20.6666  -50.4239 H         1 UNK         0.0600 
    230 H230       -6.5429  -22.6820  -53.4557 H         1 UNK         0.3000 
    231 H231       -8.4159  -20.6712  -53.1781 H         1 UNK         0.0600 
    232 H232       -9.4940  -21.7286  -55.1998 H         1 UNK         0.0600 
    233 H233       -8.9870  -22.9070  -54.0050 H         1 UNK         0.0600 
    234 H234       -8.0317  -22.6687  -55.4690 H         1 UNK         0.0600 
    235 H235       -8.3782  -18.6174  -53.7368 H         1 UNK         0.3000 
    236 H236       -7.9867  -16.6498  -54.6484 H         1 UNK         0.0600 
    237 H237       -7.9169  -18.0949  -57.3504 H         1 UNK         0.0600 
    238 H238       -9.3828  -17.5893  -56.5113 H         1 UNK         0.0600 
    239 H239       -8.2412  -16.3873  -57.0861 H         1 UNK         0.0600 
    240 H240       -5.6255  -18.3768  -53.8912 H         1 UNK         0.3000 
    241 H241       -3.4707  -18.3862  -53.8305 H         1 UNK         0.0600 
    242 H242       -4.9295  -19.5601  -56.2826 H         1 UNK         0.3800 
    243 H243       -3.5937  -19.8646  -57.3648 H         1 UNK         0.3800 
    244 H244       -3.8252  -15.7296  -53.8360 H         1 UNK         0.0800 
    245 H245       -3.0379  -15.8119  -55.3820 H         1 UNK         0.0800 
    246 H246       -2.6733  -15.6983  -51.5637 H         1 UNK         0.0800 
    247 H247       -2.7428  -17.4354  -51.7510 H         1 UNK         0.0800 
@<TRIPOS>BOND
     1    1    2 1    
     2    1  127 1    
     3    1  128 1    
     4    1  129 1    
     5    2    3 2    
     6    2    4 am   BACKBONE|DICT|INTERRES
     7    4    5 1    
     8    4  130 1    
     9    5    6 1    
    10    5   65 1    
    11    5  131 1    
    12    6    7 1    
    13    6  132 1    
    14    6  133 1    
    15    7    8 1    
    16    8    9 1    
    17    8  134 1    
    18    8  135 1    
    19    9   10 ar   
    20    9   14 ar   
    21   10   11 ar   
    22   10  136 1    
    23   11   12 ar   
    24   11  126 1    
    25   12   13 ar   
    26   12  137 1    
    27   13   14 ar   
    28   13   15 1    
    29   14  138 1    
    30   15   16 1    
    31   15  139 1    
    32   15  140 1    
    33   16   17 1    
    34   17   18 1    
    35   17  141 1    
    36   17  142 1    
    37   18   19 1    
    38   18   67 1    
    39   18  143 1    
    40   19   20 am   BACKBONE|DICT|INTERRES
    41   19  144 1    
    42   20   21 2    
    43   20   22 1    
    44   22   23 1    
    45   22   24 1    
    46   22  145 1    
    47   23  146 1    
    48   23  147 1    
    49   23  148 1    
    50   24   25 am   BACKBONE|DICT|INTERRES
    51   24  149 1    
    52   25   26 2    
    53   25   27 1    
    54   27   28 1    
    55   27   29 1    
    56   27  150 1    
    57   28  151 1    
    58   28  152 1    
    59   28  153 1    
    60   29   30 am   BACKBONE|DICT|INTERRES
    61   29  154 1    
    62   30   31 2    
    63   30   32 1    
    64   32   33 1    
    65   32   34 1    
    66   32  155 1    
    67   33  156 1    
    68   33  157 1    
    69   33  158 1    
    70   34   35 am   BACKBONE|DICT|INTERRES
    71   34  159 1    
    72   35   36 2    
    73   35   37 1    
    74   37   38 1    
    75   37   39 1    
    76   37  160 1    
    77   38  161 1    
    78   38  162 1    
    79   38  163 1    
    80   39   40 am   BACKBONE|DICT|INTERRES
    81   39  164 1    
    82   40   41 2    
    83   40   42 1    
    84   42   43 1    
    85   42   44 1    
    86   42  165 1    
    87   43  166 1    
    88   43  167 1    
    89   43  168 1    
    90   44   45 am   BACKBONE|DICT|INTERRES
    91   44  169 1    
    92   45   46 2    
    93   45   47 1    
    94   47   48 1    
    95   47   49 1    
    96   47  170 1    
    97   48  171 1    
    98   48  172 1    
    99   48  173 1    
   100   49   50 am   BACKBONE|DICT|INTERRES
   101   49  174 1    
   102   50   51 2    
   103   50   52 1    
   104   52   53 1    
   105   52   54 1    
   106   52  175 1    
   107   53  176 1    
   108   53  177 1    
   109   53  178 1    
   110   54   55 am   BACKBONE|DICT|INTERRES
   111   54  179 1    
   112   55   56 2    
   113   55   57 1    
   114   57   58 1    
   115   57   59 1    
   116   57  180 1    
   117   58  181 1    
   118   58  182 1    
   119   58  183 1    
   120   59   60 am   BACKBONE|DICT|INTERRES
   121   59  184 1    
   122   60   61 2    
   123   60   62 1    
   124   62   63 1    
   125   62   64 1    
   126   62  185 1    
   127   63  186 1    
   128   63  187 1    
   129   63  188 1    
   130   64   65 am   BACKBONE|DICT|INTERRES
   131   64  189 1    
   132   65   66 2    
   133   67   68 2    
   134   67   69 am   BACKBONE|DICT|INTERRES
   135   69   70 1    
   136   69  190 1    
   137   70   71 1    
   138   70   72 1    
   139   70  191 1    
   140   71  192 1    
   141   71  193 1    
   142   71  194 1    
   143   72   73 2    
   144   72   74 am   BACKBONE|DICT|INTERRES
   145   74   75 1    
   146   74  195 1    
   147   75   76 1    
   148   75   77 1    
   149   75  196 1    
   150   76  197 1    
   151   76  198 1    
   152   76  199 1    
   153   77   78 2    
   154   77   79 am   BACKBONE|DICT|INTERRES
   155   79   80 1    
   156   79  200 1    
   157   80   81 1    
   158   80   82 1    
   159   80  201 1    
   160   81  202 1    
   161   81  203 1    
   162   81  204 1    
   163   82   83 2    
   164   82   84 am   BACKBONE|DICT|INTERRES
   165   84   85 1    
   166   84  205 1    
   167   85   86 1    
   168   85   87 1    
   169   85  206 1    
   170   86  207 1    
   171   86  208 1    
   172   86  209 1    
   173   87   88 2    
   174   87   89 am   BACKBONE|DICT|INTERRES
   175   89   90 1    
   176   89  210 1    
   177   90   91 1    
   178   90   92 1    
   179   90  211 1    
   180   91  212 1    
   181   91  213 1    
   182   91  214 1    
   183   92   93 2    
   184   92   94 am   BACKBONE|DICT|INTERRES
   185   94   95 1    
   186   94  215 1    
   187   95   96 1    
   188   95   97 1    
   189   95  216 1    
   190   96  217 1    
   191   96  218 1    
   192   96  219 1    
   193   97   98 2    
   194   97   99 am   BACKBONE|DICT|INTERRES
   195   99  100 1    
   196   99  220 1    
   197  100  101 1    
   198  100  102 1    
   199  100  221 1    
   200  101  222 1    
   201  101  223 1    
   202  101  224 1    
   203  102  103 2    
   204  102  104 am   BACKBONE|DICT|INTERRES
   205  104  105 1    
   206  104  225 1    
   207  105  106 1    
   208  105  107 1    
   209  105  226 1    
   210  106  227 1    
   211  106  228 1    
   212  106  229 1    
   213  107  108 2    
   214  107  109 am   BACKBONE|DICT|INTERRES
   215  109  110 1    
   216  109  230 1    
   217  110  111 1    
   218  110  112 1    
   219  110  231 1    
   220  111  232 1    
   221  111  233 1    
   222  111  234 1    
   223  112  113 2    
   224  112  114 am   BACKBONE|DICT|INTERRES
   225  114  115 1    
   226  114  235 1    
   227  115  116 1    
   228  115  117 1    
   229  115  236 1    
   230  116  237 1    
   231  116  238 1    
   232  116  239 1    
   233  117  118 2    
   234  117  119 am   BACKBONE|DICT|INTERRES
   235  119  120 1    
   236  119  240 1    
   237  120  121 1    
   238  120  124 1    
   239  120  241 1    
   240  121  122 am   BACKBONE|DICT|INTERRES
   241  121  123 2    
   242  122  242 1    
   243  122  243 1    
   244  124  125 1    
   245  124  244 1    
   246  124  245 1    
   247  125  126 1    
   248  126  246 1    
   249  126  247 1    
@<TRIPOS>SUBSTRUCTURE
     1 UNK         1 GROUP             0       ****    0 ROOT    
