@<TRIPOS>MOLECULE
3R540
247   249    1
SMALL
USER_CHARGES


@<TRIPOS>ATOM
      1 CA          0.6252  -11.9382  -41.9497 C.3       0 UNK        -0.1800 
      2 C           0.7797  -12.2366  -43.4336 C.2       0 UNK         0.5000 
      3 O           1.3760  -13.2491  -43.7898 O.2       0 UNK        -0.5000 
      4 N           0.2445  -11.3628  -44.2967 N.am      1 UNK        -0.5000 
      5 CA          0.2848  -11.4106  -45.7659 C.3       1 UNK         0.1400 
      6 C6         -0.3147  -12.7111  -46.3706 C.3       23 UNK        -0.0398 
      7 S7         -1.0024  -12.4586  -48.0397 S.3       23 UNK        -0.2404 
      8 C8          0.3499  -13.0585  -49.1024 C.3       23 UNK        -0.0205 
      9 C9          0.1250  -14.4862  -49.5779 C.ar      23 UNK        -0.0193 
     10 C10        -0.8090  -14.7416  -50.5845 C.ar      23 UNK        -0.1150 
     11 C11        -0.9932  -16.0357  -51.0809 C.ar      23 UNK        -0.0193 
     12 C12        -0.2151  -17.0803  -50.5696 C.ar      23 UNK        -0.1150 
     13 C13         0.7369  -16.8370  -49.5725 C.ar      23 UNK        -0.0193 
     14 C14         0.8896  -15.5401  -49.0701 C.ar      23 UNK        -0.1150 
     15 C15         1.6584  -17.9520  -49.0923 C.3       23 UNK        -0.0205 
     16 S16         0.9860  -18.8711  -47.6742 S.3       23 UNK        -0.2404 
     17 C17        -0.2602  -19.9243  -48.4823 C.3       23 UNK        -0.0398 
     18 CA         -0.6568  -21.1495  -47.6241 C.3       11 UNK         0.1400 
     19 N          -1.2366  -20.7795  -46.3288 N.am      11 UNK        -0.5000 
     20 C          -1.5769  -21.6428  -45.3607 C.2       10 UNK         0.5000 
     21 O          -1.3792  -22.8554  -45.4214 O.2       10 UNK        -0.5000 
     22 CA         -2.3192  -21.0651  -44.1448 C.3       10 UNK         0.1400 
     23 CB         -1.3375  -20.4886  -43.1123 C.3       10 UNK        -0.1800 
     24 N          -3.2883  -20.0451  -44.5440 N.am      10 UNK        -0.5000 
     25 C          -4.4395  -20.3090  -45.1785 C.2       9 UNK         0.5000 
     26 O          -4.8224  -21.4464  -45.4507 O.2       9 UNK        -0.5000 
     27 CA         -5.2904  -19.1009  -45.6127 C.3       9 UNK         0.1400 
     28 CB         -6.1963  -18.6370  -44.4626 C.3       9 UNK        -0.1800 
     29 N          -4.4841  -17.9721  -46.0785 N.am      9 UNK        -0.5000 
     30 C          -3.7302  -17.9886  -47.1867 C.2       8 UNK         0.5000 
     31 O          -3.6574  -18.9529  -47.9471 O.2       8 UNK        -0.5000 
     32 CA         -2.8734  -16.7359  -47.4556 C.3       8 UNK         0.1400 
     33 CB         -3.7129  -15.6590  -48.1565 C.3       8 UNK        -0.1800 
     34 N          -2.2585  -16.1538  -46.2571 N.am      8 UNK        -0.5000 
     35 C          -1.4924  -16.8169  -45.3809 C.2       7 UNK         0.5000 
     36 O          -1.2986  -18.0319  -45.4221 O.2       7 UNK        -0.5000 
     37 CA         -0.8945  -16.0003  -44.2239 C.3       7 UNK         0.1400 
     38 CB         -1.8077  -16.0681  -42.9910 C.3       7 UNK        -0.1800 
     39 N           0.4352  -16.4768  -43.8533 N.am      7 UNK        -0.5000 
     40 C           1.5192  -16.4063  -44.6364 C.2       6 UNK         0.5000 
     41 O           1.5283  -15.8932  -45.7558 O.2       6 UNK        -0.5000 
     42 CA          2.8225  -16.9416  -44.0199 C.3       6 UNK         0.1400 
     43 CB          3.9528  -17.0902  -45.0544 C.3       6 UNK        -0.1800 
     44 N           3.2622  -16.0263  -42.9723 N.am      6 UNK        -0.5000 
     45 C           2.8615  -16.0327  -41.6974 C.2       5 UNK         0.5000 
     46 O           2.1294  -16.9086  -41.2320 O.2       5 UNK        -0.5000 
     47 CA          3.3460  -14.8632  -40.8034 C.3       5 UNK         0.1400 
     48 CB          3.1304  -15.1391  -39.3044 C.3       5 UNK        -0.1800 
     49 N           4.7496  -14.4802  -41.0129 N.am      5 UNK        -0.5000 
     50 C           5.2211  -13.8118  -42.0721 C.2       4 UNK         0.5000 
     51 O           4.5157  -13.4908  -43.0296 O.2       4 UNK        -0.5000 
     52 CA          6.7282  -13.5024  -42.0967 C.3       4 UNK         0.1400 
     53 CB          7.5293  -14.7690  -42.4395 C.3       4 UNK        -0.1800 
     54 N           6.9924  -12.4952  -43.1220 N.am      4 UNK        -0.5000 
     55 C           7.0521  -11.1747  -42.9130 C.2       3 UNK         0.5000 
     56 O           7.1056  -10.6540  -41.7979 O.2       3 UNK        -0.5000 
     57 CA          7.0105  -10.2863  -44.1738 C.3       3 UNK         0.1400 
     58 CB          8.4248  -10.0719  -44.7345 C.3       3 UNK        -0.1800 
     59 N           6.1511  -10.8463  -45.2238 N.am      3 UNK        -0.5000 
     60 C           4.8150  -10.9290  -45.1390 C.2       2 UNK         0.5000 
     61 O           4.1663  -10.4245  -44.2177 O.2       2 UNK        -0.5000 
     62 CA          4.0985  -11.6935  -46.2729 C.3       2 UNK         0.1400 
     63 CB          4.7201  -13.0795  -46.5288 C.3       2 UNK        -0.1800 
     64 N           2.6875  -11.8844  -45.9488 N.am      2 UNK        -0.5000 
     65 C           1.6859  -11.0864  -46.3296 C.2       1 UNK         0.5000 
     66 O           1.8296  -10.1195  -47.0800 O.2       1 UNK        -0.5000 
     67 C          -1.6001  -22.0772  -48.4151 C.2       11 UNK         0.5000 
     68 O          -1.1631  -23.1289  -48.8830 O.2       11 UNK        -0.5000 
     69 N          -2.8825  -21.6946  -48.5051 N.am      12 UNK        -0.5000 
     70 CA         -3.9425  -22.4795  -49.1359 C.3       12 UNK         0.1400 
     71 CB         -5.2432  -21.6646  -49.1564 C.3       12 UNK        -0.1800 
     72 C          -4.1645  -23.8367  -48.4468 C.2       12 UNK         0.5000 
     73 O          -4.2866  -24.8467  -49.1379 O.2       12 UNK        -0.5000 
     74 N          -4.1806  -23.8459  -47.1054 N.am      13 UNK        -0.5000 
     75 CA         -4.3144  -25.0526  -46.2877 C.3       13 UNK         0.1400 
     76 CB         -4.5051  -24.6691  -44.8130 C.3       13 UNK        -0.1800 
     77 C          -3.1305  -26.0219  -46.4523 C.2       13 UNK         0.5000 
     78 O          -3.3540  -27.2210  -46.6192 O.2       13 UNK        -0.5000 
     79 N          -1.8996  -25.4898  -46.4511 N.am      14 UNK        -0.5000 
     80 CA         -0.6632  -26.2449  -46.6776 C.3       14 UNK         0.1400 
     81 CB          0.5472  -25.3343  -46.4222 C.3       14 UNK        -0.1800 
     82 C          -0.5879  -26.8658  -48.0856 C.2       14 UNK         0.5000 
     83 O          -0.0900  -27.9817  -48.2363 O.2       14 UNK        -0.5000 
     84 N          -1.1234  -26.1477  -49.0798 N.am      15 UNK        -0.5000 
     85 CA         -1.2734  -26.5949  -50.4640 C.3       15 UNK         0.1400 
     86 CB         -1.3073  -25.3523  -51.3642 C.3       15 UNK        -0.1800 
     87 C          -2.5203  -27.4767  -50.6975 C.2       15 UNK         0.5000 
     88 O          -2.7626  -27.8745  -51.8376 O.2       15 UNK        -0.5000 
     89 N          -3.3080  -27.7450  -49.6431 N.am      16 UNK        -0.5000 
     90 CA         -4.5475  -28.5338  -49.6277 C.3       16 UNK         0.1400 
     91 CB         -4.2328  -30.0256  -49.8616 C.3       16 UNK        -0.1800 
     92 C          -5.6350  -27.9960  -50.5852 C.2       16 UNK         0.5000 
     93 O          -6.4184  -28.7746  -51.1310 O.2       16 UNK        -0.5000 
     94 N          -5.6352  -26.6708  -50.7916 N.am      17 UNK        -0.5000 
     95 CA         -6.4652  -25.8889  -51.7132 C.3       17 UNK         0.1400 
     96 CB         -7.9490  -25.9482  -51.2982 C.3       17 UNK        -0.1800 
     97 C          -6.2594  -26.2162  -53.2105 C.2       17 UNK         0.5000 
     98 O          -7.0277  -25.7280  -54.0407 O.2       17 UNK        -0.5000 
     99 N          -5.2240  -26.9995  -53.5506 N.am      18 UNK        -0.5000 
    100 CA        -4.8489  -27.3241  -54.9308 C.3       18 UNK         0.1400 
    101 CB        -4.0271  -28.6221  -54.9366 C.3       18 UNK        -0.1800 
    102 C         -4.0646  -26.1821  -55.6063 C.2       18 UNK         0.5000 
    103 O         -3.9915  -26.1314  -56.8347 O.2       18 UNK        -0.5000 
    104 N         -3.5062  -25.2854  -54.7897 N.am      19 UNK        -0.5000 
    105 CA        -2.8066  -24.0658  -55.1605 C.3       19 UNK         0.1400 
    106 CB        -1.3376  -24.3882  -55.4913 C.3       19 UNK        -0.1800 
    107 C         -2.9263  -23.0879  -53.9808 C.2       19 UNK         0.5000 
    108 O         -3.4526  -23.4603  -52.9285 O.2       19 UNK        -0.5000 
    109 N         -2.4451  -21.8534  -54.1799 N.am      20 UNK        -0.5000 
    110 CA        -2.3191  -20.7765  -53.1847 C.3       20 UNK         0.1400 
    111 CB        -1.3078  -21.1711  -52.0898 C.3       20 UNK        -0.1800 
    112 C         -3.6452  -20.2622  -52.5803 C.2       20 UNK         0.5000 
    113 O         -3.6123  -19.4543  -51.6524 O.2       20 UNK        -0.5000 
    114 N         -4.7886  -20.6870  -53.1322 N.am      21 UNK        -0.5000 
    115 CA        -6.1387  -20.2942  -52.7283 C.3       21 UNK         0.1400 
    116 CB        -7.1159  -21.4122  -53.1348 C.3       21 UNK        -0.1800 
    117 C         -6.5199  -18.9144  -53.3039 C.2       21 UNK         0.5000 
    118 O         -7.5026  -18.7920  -54.0373 O.2       21 UNK        -0.5000 
    119 N         -5.7063  -17.9034  -52.9822 N.am      22 UNK        -0.5000 
    120 CA        -5.8472  -16.5118  -53.4350 C.3       22 UNK         0.1400 
    121 C         -6.9488  -15.6840  -52.7067 C.2       22 UNK         0.5000 
    122 N         -7.5661  -16.1833  -51.6425 N.am      22 UNK        -0.7600 
    123 O         -7.2620  -14.5736  -53.1277 O.2       22 UNK        -0.5000 
    124 C124       -4.4781  -15.7834  -53.4534 C.3       23 UNK        -0.0398 
    125 S125       -3.6580  -15.6972  -51.8216 S.3       23 UNK        -0.2404 
    126 C126       -1.9791  -16.2842  -52.2170 C.3       23 UNK        -0.0205 
    127 H127        1.6016  -11.7420  -41.5066 H         1 UNK         0.0600 
    128 H128       -0.0107  -11.0702  -41.7739 H         1 UNK         0.0600 
    129 H129        0.1827  -12.7938  -41.4395 H         1 UNK         0.0600 
    130 H130       -0.2078  -10.5408  -43.9211 H         1 UNK         0.3000 
    131 H131       -0.3623  -10.5851  -46.0678 H         1 UNK         0.0600 
    132 H132        0.4007  -13.5351  -46.3703 H         1 UNK         0.0800 
    133 H133       -1.1497  -13.0383  -45.7522 H         1 UNK         0.0800 
    134 H134        0.4182  -12.4048  -49.9731 H         1 UNK         0.0800 
    135 H135        1.3083  -12.9694  -48.5893 H         1 UNK         0.0800 
    136 H136       -1.3892  -13.9252  -50.9914 H         1 UNK         0.1150 
    137 H137       -0.3278  -18.0776  -50.9692 H         1 UNK         0.1150 
    138 H138        1.6301  -15.3459  -48.3069 H         1 UNK         0.1150 
    139 H139        1.8803  -18.6393  -49.9098 H         1 UNK         0.0800 
    140 H140        2.6175  -17.5252  -48.7948 H         1 UNK         0.0800 
    141 H141        0.1547  -20.2610  -49.4332 H         1 UNK         0.0800 
    142 H142       -1.1308  -19.3125  -48.7213 H         1 UNK         0.0800 
    143 H143        0.2509  -21.7197  -47.4151 H         1 UNK         0.0600 
    144 H144       -1.3759  -19.7860  -46.1610 H         1 UNK         0.3000 
    145 H145       -2.8635  -21.8815  -43.6656 H         1 UNK         0.0600 
    146 H146       -1.8650  -20.0864  -42.2474 H         1 UNK         0.0600 
    147 H147       -0.6615  -21.2636  -42.7493 H         1 UNK         0.0600 
    148 H148       -0.7215  -19.6923  -43.5295 H         1 UNK         0.0600 
    149 H149       -2.9890  -19.0837  -44.4560 H         1 UNK         0.3000 
    150 H150       -5.9266  -19.4246  -46.4392 H         1 UNK         0.0600 
    151 H151       -6.8238  -19.4552  -44.1065 H         1 UNK         0.0600 
    152 H152       -6.8615  -17.8350  -44.7832 H         1 UNK         0.0600 
    153 H153       -5.6165  -18.2741  -43.6130 H         1 UNK         0.0600 
    154 H154       -4.4795  -17.1427  -45.5039 H         1 UNK         0.3000 
    155 H155       -2.0653  -17.0316  -48.1276 H         1 UNK         0.0600 
    156 H156       -3.0828  -14.8569  -48.5415 H         1 UNK         0.0600 
    157 H157       -4.4496  -15.2180  -47.4844 H         1 UNK         0.0600 
    158 H158       -4.2570  -16.0791  -49.0025 H         1 UNK         0.0600 
    159 H159       -2.3852  -15.1601  -46.1392 H         1 UNK         0.3000 
    160 H160       -0.8009  -14.9595  -44.5321 H         1 UNK         0.0600 
    161 H161       -1.9156  -17.0907  -42.6262 H         1 UNK         0.0600 
    162 H162       -2.8060  -15.6936  -43.2209 H         1 UNK         0.0600 
    163 H163       -1.4136  -15.4606  -42.1759 H         1 UNK         0.0600 
    164 H164        0.5351  -16.8884  -42.9356 H         1 UNK         0.3000 
    165 H165        2.6201  -17.9274  -43.5959 H         1 UNK         0.0600 
    166 H166        4.2193  -16.1326  -45.5029 H         1 UNK         0.0600 
    167 H167        4.8509  -17.5074  -44.5989 H         1 UNK         0.0600 
    168 H168        3.6540  -17.7597  -45.8621 H         1 UNK         0.0600 
    169 H169        3.7662  -15.1992  -43.2807 H         1 UNK         0.3000 
    170 H170        2.7238  -14.0058  -41.0673 H         1 UNK         0.0600 
    171 H171        2.0805  -15.3404  -39.0873 H         1 UNK         0.0600 
    172 H172        3.7080  -16.0010  -38.9684 H         1 UNK         0.0600 
    173 H173        3.4227  -14.2810  -38.6988 H         1 UNK         0.0600 
    174 H174        5.3951  -14.7565  -40.2873 H         1 UNK         0.3000 
    175 H175        7.0331  -13.1385  -41.1134 H         1 UNK         0.0600 
    176 H176        8.5974  -14.5564  -42.4905 H         1 UNK         0.0600 
    177 H177        7.3894  -15.5411  -41.6821 H         1 UNK         0.0600 
    178 H178        7.2260  -15.1915  -43.3986 H         1 UNK         0.0600 
    179 H179        6.8832  -12.8089  -44.0746 H         1 UNK         0.3000 
    180 H180        6.6086   -9.3134  -43.8830 H         1 UNK         0.0600 
    181 H181        8.8767  -11.0093  -45.0609 H         1 UNK         0.0600 
    182 H182        9.0810   -9.6365  -43.9797 H         1 UNK         0.0600 
    183 H183        8.4127   -9.3900  -45.5851 H         1 UNK         0.0600 
    184 H184        6.6188  -11.2504  -46.0221 H         1 UNK         0.3000 
    185 H185        4.1948  -11.1011  -47.1848 H         1 UNK         0.0600 
    186 H186        4.1651  -13.6209  -47.2955 H         1 UNK         0.0600 
    187 H187        5.7500  -13.0019  -46.8773 H         1 UNK         0.0600 
    188 H188        4.7196  -13.6940  -45.6291 H         1 UNK         0.0600 
    189 H189        2.4805  -12.5862  -45.2421 H         1 UNK         0.3000 
    190 H190       -3.1533  -20.7866  -48.1353 H         1 UNK         0.3000 
    191 H191       -3.6442  -22.6712  -50.1686 H         1 UNK         0.0600 
    192 H192       -5.0898  -20.6961  -49.6309 H         1 UNK         0.0600 
    193 H193       -6.0215  -22.1862  -49.7146 H         1 UNK         0.0600 
    194 H194       -5.6217  -21.4814  -48.1503 H         1 UNK         0.0600 
    195 H195       -4.1228  -22.9642  -46.6064 H         1 UNK         0.3000 
    196 H196       -5.2149  -25.5749  -46.6174 H         1 UNK         0.0600 
    197 H197       -4.6221  -25.5569  -44.1903 H         1 UNK         0.0600 
    198 H198       -5.3975  -24.0581  -44.6773 H         1 UNK         0.0600 
    199 H199       -3.6533  -24.1084  -44.4285 H         1 UNK         0.0600 
    200 H200       -1.7938  -24.4948  -46.2660 H         1 UNK         0.3000 
    201 H201       -0.6342  -27.0619  -45.9539 H         1 UNK         0.0600 
    202 H202        0.5495  -24.9608  -45.3981 H         1 UNK         0.0600 
    203 H203        0.5503  -24.4732  -47.0915 H         1 UNK         0.0600 
    204 H204        1.4828  -25.8738  -46.5741 H         1 UNK         0.0600 
    205 H205       -1.4621  -25.2137  -48.8731 H         1 UNK         0.3000 
    206 H206       -0.4027  -27.1914  -50.7431 H         1 UNK         0.0600 
    207 H207       -0.3860  -24.7760  -51.2795 H         1 UNK         0.0600 
    208 H208       -1.4280  -25.6219  -52.4134 H         1 UNK         0.0600 
    209 H209       -2.1339  -24.6964  -51.0912 H         1 UNK         0.0600 
    210 H210       -3.0487  -27.3461  -48.7491 H         1 UNK         0.3000 
    211 H211       -4.9575  -28.4355  -48.6218 H         1 UNK         0.0600 
    212 H212       -3.8708  -30.2082  -50.8740 H         1 UNK         0.0600 
    213 H213       -5.1203  -30.6422  -49.7148 H         1 UNK         0.0600 
    214 H214       -3.4740  -30.3814  -49.1646 H         1 UNK         0.0600 
    215 H215       -4.9700  -26.1165  -50.2533 H         1 UNK         0.3000 
    216 H216       -6.1343  -24.8560  -51.5932 H         1 UNK         0.0600 
    217 H217       -8.0744  -25.6864  -50.2475 H         1 UNK         0.0600 
    218 H218       -8.3733  -26.9407  -51.4509 H         1 UNK         0.0600 
    219 H219       -8.5472  -25.2451  -51.8788 H         1 UNK         0.0600 
    220 H220       -4.6162  -27.3578  -52.8222 H         1 UNK         0.3000 
    221 H221       -5.7567  -27.4955  -55.5131 H         1 UNK         0.0600 
    222 H222       -3.0753  -28.4992  -54.4191 H         1 UNK         0.0600 
    223 H223       -4.5691  -29.4359  -54.4544 H         1 UNK         0.0600 
    224 H224       -3.8053  -28.9373  -55.9569 H         1 UNK         0.0600 
    225 H225       -3.6695  -25.3672  -53.7935 H         1 UNK         0.3000 
    226 H226       -3.2943  -23.6173  -56.0283 H         1 UNK         0.0600 
    227 H227       -1.2650  -25.1065  -56.3080 H         1 UNK         0.0600 
    228 H228       -0.7955  -23.4945  -55.8017 H         1 UNK         0.0600 
    229 H229       -0.8142  -24.8077  -54.6317 H         1 UNK         0.0600 
    230 H230       -2.0666  -21.6352  -55.0914 H         1 UNK         0.3000 
    231 H231       -1.8986  -19.9245  -53.7205 H         1 UNK         0.0600 
    232 H232       -1.1351  -20.3439  -51.4025 H         1 UNK         0.0600 
    233 H233       -0.3437  -21.4406  -52.5207 H         1 UNK         0.0600 
    234 H234       -1.6580  -22.0180  -51.5002 H         1 UNK         0.0600 
    235 H235       -4.7234  -21.3355  -53.9019 H         1 UNK         0.3000 
    236 H236       -6.1746  -20.2056  -51.6418 H         1 UNK         0.0600 
    237 H237       -8.1325  -21.1793  -52.8155 H         1 UNK         0.0600 
    238 H238       -7.1346  -21.5592  -54.2153 H         1 UNK         0.0600 
    239 H239       -6.8415  -22.3613  -52.6732 H         1 UNK         0.0600 
    240 H240       -4.9181  -18.0999  -52.3727 H         1 UNK         0.3000 
    241 H241       -6.1798  -16.5544  -54.4739 H         1 UNK         0.0600 
    242 H242       -7.3150  -17.0904  -51.2856 H         1 UNK         0.3800 
    243 H243       -8.2823  -15.6422  -51.1842 H         1 UNK         0.3800 
    244 H244       -3.8181  -16.2901  -54.1587 H         1 UNK         0.0800 
    245 H245       -4.5877  -14.7679  -53.8379 H         1 UNK         0.0800 
    246 H246       -2.0249  -17.3450  -52.4662 H         1 UNK         0.0800 
    247 H247       -1.6155  -15.7676  -53.1063 H         1 UNK         0.0800 
@<TRIPOS>BOND
     1    1    2 1    
     2    1  127 1    
     3    1  128 1    
     4    1  129 1    
     5    2    3 2    
     6    2    4 am   BACKBONE|DICT|INTERRES
     7    4    5 1    
     8    4  130 1    
     9    5    6 1    
    10    5   65 1    
    11    5  131 1    
    12    6    7 1    
    13    6  132 1    
    14    6  133 1    
    15    7    8 1    
    16    8    9 1    
    17    8  134 1    
    18    8  135 1    
    19    9   10 ar   
    20    9   14 ar   
    21   10   11 ar   
    22   10  136 1    
    23   11   12 ar   
    24   11  126 1    
    25   12   13 ar   
    26   12  137 1    
    27   13   14 ar   
    28   13   15 1    
    29   14  138 1    
    30   15   16 1    
    31   15  139 1    
    32   15  140 1    
    33   16   17 1    
    34   17   18 1    
    35   17  141 1    
    36   17  142 1    
    37   18   19 1    
    38   18   67 1    
    39   18  143 1    
    40   19   20 am   BACKBONE|DICT|INTERRES
    41   19  144 1    
    42   20   21 2    
    43   20   22 1    
    44   22   23 1    
    45   22   24 1    
    46   22  145 1    
    47   23  146 1    
    48   23  147 1    
    49   23  148 1    
    50   24   25 am   BACKBONE|DICT|INTERRES
    51   24  149 1    
    52   25   26 2    
    53   25   27 1    
    54   27   28 1    
    55   27   29 1    
    56   27  150 1    
    57   28  151 1    
    58   28  152 1    
    59   28  153 1    
    60   29   30 am   BACKBONE|DICT|INTERRES
    61   29  154 1    
    62   30   31 2    
    63   30   32 1    
    64   32   33 1    
    65   32   34 1    
    66   32  155 1    
    67   33  156 1    
    68   33  157 1    
    69   33  158 1    
    70   34   35 am   BACKBONE|DICT|INTERRES
    71   34  159 1    
    72   35   36 2    
    73   35   37 1    
    74   37   38 1    
    75   37   39 1    
    76   37  160 1    
    77   38  161 1    
    78   38  162 1    
    79   38  163 1    
    80   39   40 am   BACKBONE|DICT|INTERRES
    81   39  164 1    
    82   40   41 2    
    83   40   42 1    
    84   42   43 1    
    85   42   44 1    
    86   42  165 1    
    87   43  166 1    
    88   43  167 1    
    89   43  168 1    
    90   44   45 am   BACKBONE|DICT|INTERRES
    91   44  169 1    
    92   45   46 2    
    93   45   47 1    
    94   47   48 1    
    95   47   49 1    
    96   47  170 1    
    97   48  171 1    
    98   48  172 1    
    99   48  173 1    
   100   49   50 am   BACKBONE|DICT|INTERRES
   101   49  174 1    
   102   50   51 2    
   103   50   52 1    
   104   52   53 1    
   105   52   54 1    
   106   52  175 1    
   107   53  176 1    
   108   53  177 1    
   109   53  178 1    
   110   54   55 am   BACKBONE|DICT|INTERRES
   111   54  179 1    
   112   55   56 2    
   113   55   57 1    
   114   57   58 1    
   115   57   59 1    
   116   57  180 1    
   117   58  181 1    
   118   58  182 1    
   119   58  183 1    
   120   59   60 am   BACKBONE|DICT|INTERRES
   121   59  184 1    
   122   60   61 2    
   123   60   62 1    
   124   62   63 1    
   125   62   64 1    
   126   62  185 1    
   127   63  186 1    
   128   63  187 1    
   129   63  188 1    
   130   64   65 am   BACKBONE|DICT|INTERRES
   131   64  189 1    
   132   65   66 2    
   133   67   68 2    
   134   67   69 am   BACKBONE|DICT|INTERRES
   135   69   70 1    
   136   69  190 1    
   137   70   71 1    
   138   70   72 1    
   139   70  191 1    
   140   71  192 1    
   141   71  193 1    
   142   71  194 1    
   143   72   73 2    
   144   72   74 am   BACKBONE|DICT|INTERRES
   145   74   75 1    
   146   74  195 1    
   147   75   76 1    
   148   75   77 1    
   149   75  196 1    
   150   76  197 1    
   151   76  198 1    
   152   76  199 1    
   153   77   78 2    
   154   77   79 am   BACKBONE|DICT|INTERRES
   155   79   80 1    
   156   79  200 1    
   157   80   81 1    
   158   80   82 1    
   159   80  201 1    
   160   81  202 1    
   161   81  203 1    
   162   81  204 1    
   163   82   83 2    
   164   82   84 am   BACKBONE|DICT|INTERRES
   165   84   85 1    
   166   84  205 1    
   167   85   86 1    
   168   85   87 1    
   169   85  206 1    
   170   86  207 1    
   171   86  208 1    
   172   86  209 1    
   173   87   88 2    
   174   87   89 am   BACKBONE|DICT|INTERRES
   175   89   90 1    
   176   89  210 1    
   177   90   91 1    
   178   90   92 1    
   179   90  211 1    
   180   91  212 1    
   181   91  213 1    
   182   91  214 1    
   183   92   93 2    
   184   92   94 am   BACKBONE|DICT|INTERRES
   185   94   95 1    
   186   94  215 1    
   187   95   96 1    
   188   95   97 1    
   189   95  216 1    
   190   96  217 1    
   191   96  218 1    
   192   96  219 1    
   193   97   98 2    
   194   97   99 am   BACKBONE|DICT|INTERRES
   195   99  100 1    
   196   99  220 1    
   197  100  101 1    
   198  100  102 1    
   199  100  221 1    
   200  101  222 1    
   201  101  223 1    
   202  101  224 1    
   203  102  103 2    
   204  102  104 am   BACKBONE|DICT|INTERRES
   205  104  105 1    
   206  104  225 1    
   207  105  106 1    
   208  105  107 1    
   209  105  226 1    
   210  106  227 1    
   211  106  228 1    
   212  106  229 1    
   213  107  108 2    
   214  107  109 am   BACKBONE|DICT|INTERRES
   215  109  110 1    
   216  109  230 1    
   217  110  111 1    
   218  110  112 1    
   219  110  231 1    
   220  111  232 1    
   221  111  233 1    
   222  111  234 1    
   223  112  113 2    
   224  112  114 am   BACKBONE|DICT|INTERRES
   225  114  115 1    
   226  114  235 1    
   227  115  116 1    
   228  115  117 1    
   229  115  236 1    
   230  116  237 1    
   231  116  238 1    
   232  116  239 1    
   233  117  118 2    
   234  117  119 am   BACKBONE|DICT|INTERRES
   235  119  120 1    
   236  119  240 1    
   237  120  121 1    
   238  120  124 1    
   239  120  241 1    
   240  121  122 am   BACKBONE|DICT|INTERRES
   241  121  123 2    
   242  122  242 1    
   243  122  243 1    
   244  124  125 1    
   245  124  244 1    
   246  124  245 1    
   247  125  126 1    
   248  126  246 1    
   249  126  247 1    
@<TRIPOS>SUBSTRUCTURE
     1 UNK         1 GROUP             0       ****    0 ROOT    
