@<TRIPOS>MOLECULE
3R540
247   249    1
SMALL
USER_CHARGES


@<TRIPOS>ATOM
      1 CA          4.8532   -9.8167  -54.5791 C.3       0 UNK        -0.1800 
      2 C           4.7647  -10.7202  -53.3570 C.2       0 UNK         0.5000 
      3 O           5.7247  -10.8099  -52.5910 O.2       0 UNK        -0.5000 
      4 N           3.6222  -11.3945  -53.1772 N.am      1 UNK        -0.5000 
      5 CA          3.3271  -12.2527  -52.0271 C.3       1 UNK         0.1400 
      6 C6          2.1010  -13.1555  -52.3096 C.3       23 UNK        -0.0398 
      7 S7          1.8889  -14.5029  -51.0959 S.3       23 UNK        -0.2404 
      8 C8          0.4812  -15.3705  -51.8498 C.3       23 UNK        -0.0205 
      9 C9         -0.0670  -16.4590  -50.9409 C.ar      23 UNK        -0.0193 
     10 C10        -1.1085  -16.1731  -50.0539 C.ar      23 UNK        -0.1150 
     11 C11        -1.6658  -17.1819  -49.2623 C.ar      23 UNK        -0.0193 
     12 C12        -1.1602  -18.4811  -49.3511 C.ar      23 UNK        -0.1150 
     13 C13        -0.0972  -18.7734  -50.2113 C.ar      23 UNK        -0.0193 
     14 C14         0.4424  -17.7587  -51.0074 C.ar      23 UNK        -0.1150 
     15 C15         0.4369  -20.1928  -50.3193 C.3       23 UNK        -0.0205 
     16 S16         1.8901  -20.4884  -49.2546 S.3       23 UNK        -0.2404 
     17 C17         1.2089  -20.4060  -47.5599 C.3       23 UNK        -0.0398 
     18 CA          0.7353  -21.7781  -47.0186 C.3       11 UNK         0.1400 
     19 N           0.6826  -21.8147  -45.5557 N.am      11 UNK        -0.5000 
     20 C           0.4280  -22.9092  -44.8231 C.2       10 UNK         0.5000 
     21 O           0.2818  -24.0353  -45.2997 O.2       10 UNK        -0.5000 
     22 CA          0.2475  -22.7009  -43.3083 C.3       10 UNK         0.1400 
     23 CB          1.6060  -22.6075  -42.5984 C.3       10 UNK        -0.1800 
     24 N          -0.5593  -21.5183  -42.9997 N.am      10 UNK        -0.5000 
     25 C          -1.8472  -21.3735  -43.3452 C.2       9 UNK         0.5000 
     26 O          -2.5040  -22.2493  -43.9081 O.2       9 UNK        -0.5000 
     27 CA         -2.5004  -20.0093  -43.0582 C.3       9 UNK         0.1400 
     28 CB         -2.9379  -19.9102  -41.5895 C.3       9 UNK        -0.1800 
     29 N          -1.6304  -18.8817  -43.3972 N.am      9 UNK        -0.5000 
     30 C          -1.2052  -18.5990  -44.6379 C.2       8 UNK         0.5000 
     31 O          -1.5386  -19.2349  -45.6363 O.2       8 UNK        -0.5000 
     32 CA         -0.1918  -17.4513  -44.7855 C.3       8 UNK         0.1400 
     33 CB         -0.8964  -16.0873  -44.7443 C.3       8 UNK        -0.1800 
     34 N           0.8474  -17.4989  -43.7592 N.am      8 UNK        -0.5000 
     35 C           1.7279  -18.4959  -43.6018 C.2       7 UNK         0.5000 
     36 O           1.8035  -19.4654  -44.3550 O.2       7 UNK        -0.5000 
     37 CA          2.6354  -18.4283  -42.3619 C.3       7 UNK         0.1400 
     38 CB          3.8460  -17.5136  -42.5991 C.3       7 UNK        -0.1800 
     39 N           1.9078  -17.9822  -41.1742 N.am      7 UNK        -0.5000 
     40 C           0.9801  -18.7099  -40.5380 C.2       6 UNK         0.5000 
     41 O           0.6571  -19.8490  -40.8741 O.2       6 UNK        -0.5000 
     42 CA          0.2761  -18.0387  -39.3444 C.3       6 UNK         0.1400 
     43 CB          1.1185  -18.1831  -38.0682 C.3       6 UNK        -0.1800 
     44 N          -0.0086  -16.6219  -39.5803 N.am      6 UNK        -0.5000 
     45 C          -0.9083  -16.1734  -40.4665 C.2       5 UNK         0.5000 
     46 O          -1.6031  -16.9093  -41.1670 O.2       5 UNK        -0.5000 
     47 CA         -1.0113  -14.6443  -40.6345 C.3       5 UNK         0.1400 
     48 CB         -1.8992  -14.0380  -39.5374 C.3       5 UNK        -0.1800 
     49 N           0.2837  -13.9515  -40.6540 N.am      5 UNK        -0.5000 
     50 C           1.2738  -14.2208  -41.5146 C.2       4 UNK         0.5000 
     51 O           1.2332  -15.1500  -42.3224 O.2       4 UNK        -0.5000 
     52 CA          2.5354  -13.3399  -41.4425 C.3       4 UNK         0.1400 
     53 CB          3.4474  -13.8098  -40.2984 C.3       4 UNK        -0.1800 
     54 N           3.2828  -13.4162  -42.6996 N.am      4 UNK        -0.5000 
     55 C           2.8790  -12.8660  -43.8508 C.2       3 UNK         0.5000 
     56 O           1.9582  -12.0481  -43.9410 O.2       3 UNK        -0.5000 
     57 CA          3.5996  -13.3472  -45.1173 C.3       3 UNK         0.1400 
     58 CB          3.0574  -14.7251  -45.5538 C.3       3 UNK        -0.1800 
     59 N           3.3910  -12.3686  -46.1790 N.am      3 UNK        -0.5000 
     60 C           4.0619  -12.3213  -47.3317 C.2       2 UNK         0.5000 
     61 O           4.9802  -13.0918  -47.6271 O.2       2 UNK        -0.5000 
     62 CA          3.6408  -11.2357  -48.3290 C.3       2 UNK         0.1400 
     63 CB          4.5115   -9.9748  -48.1877 C.3       2 UNK        -0.1800 
     64 N           3.7762  -11.8002  -49.6647 N.am      2 UNK        -0.5000 
     65 C           3.1248  -11.3975  -50.7577 C.2       1 UNK         0.5000 
     66 O           2.3732  -10.4194  -50.7910 O.2       1 UNK        -0.5000 
     67 C          -0.6132  -22.1947  -47.6349 C.2       11 UNK         0.5000 
     68 O          -0.6308  -23.0611  -48.5055 O.2       11 UNK        -0.5000 
     69 N          -1.7174  -21.6038  -47.1558 N.am      12 UNK        -0.5000 
     70 CA         -3.0802  -21.9067  -47.5933 C.3       12 UNK         0.1400 
     71 CB         -4.0733  -20.9643  -46.8991 C.3       12 UNK        -0.1800 
     72 C          -3.4720  -23.3772  -47.3698 C.2       12 UNK         0.5000 
     73 O          -4.0735  -23.9785  -48.2599 O.2       12 UNK        -0.5000 
     74 N          -3.0917  -23.9385  -46.2142 N.am      13 UNK        -0.5000 
     75 CA         -3.2696  -25.3510  -45.8795 C.3       13 UNK         0.1400 
     76 CB         -2.9006  -25.5858  -44.4071 C.3       13 UNK        -0.1800 
     77 C          -2.4678  -26.2820  -46.8076 C.2       13 UNK         0.5000 
     78 O          -3.0308  -27.2460  -47.3284 O.2       13 UNK        -0.5000 
     79 N          -1.1872  -25.9543  -47.0378 N.am      14 UNK        -0.5000 
     80 CA         -0.2970  -26.6677  -47.9601 C.3       14 UNK         0.1400 
     81 CB          1.1313  -26.1200  -47.8202 C.3       14 UNK        -0.1800 
     82 C          -0.7688  -26.5980  -49.4262 C.2       14 UNK         0.5000 
     83 O          -0.6505  -27.5827  -50.1554 O.2       14 UNK        -0.5000 
     84 N          -1.3433  -25.4521  -49.8096 N.am      15 UNK        -0.5000 
     85 CA         -1.9688  -25.1825  -51.1031 C.3       15 UNK         0.1400 
     86 CB         -1.8956  -23.6699  -51.3791 C.3       15 UNK        -0.1800 
     87 C          -3.4155  -25.7129  -51.2154 C.2       15 UNK         0.5000 
     88 O          -4.1247  -25.3014  -52.1320 O.2       15 UNK        -0.5000 
     89 N          -3.8370  -26.6042  -50.3042 N.am      16 UNK        -0.5000 
     90 CA         -5.1157  -27.3236  -50.2937 C.3       16 UNK         0.1400 
     91 CB         -5.1699  -28.3346  -51.4584 C.3       16 UNK        -0.1800 
     92 C          -6.3337  -26.3785  -50.2587 C.2       16 UNK         0.5000 
     93 O          -7.2026  -26.4468  -51.1299 O.2       16 UNK        -0.5000 
     94 N          -6.3452  -25.5012  -49.2468 N.am      17 UNK        -0.5000 
     95 CA         -7.2974  -24.4092  -49.0250 C.3       17 UNK         0.1400 
     96 CB         -8.7500  -24.9171  -48.8973 C.3       17 UNK        -0.1800 
     97 C          -7.1164  -23.2807  -50.0592 C.2       17 UNK         0.5000 
     98 O          -8.0945  -22.7796  -50.6164 O.2       17 UNK        -0.5000 
     99 N          -5.8474  -22.8972  -50.2619 N.am      18 UNK        -0.5000 
    100 CA        -5.3718  -21.7749  -51.0745 C.3       18 UNK         0.1400 
    101 CB        -5.7848  -20.4384  -50.4252 C.3       18 UNK        -0.1800 
    102 C         -5.7599  -21.8644  -52.5654 C.2       18 UNK         0.5000 
    103 O         -6.1372  -20.8549  -53.1655 O.2       18 UNK        -0.5000 
    104 N         -5.6418  -23.0633  -53.1546 N.am      19 UNK        -0.5000 
    105 CA        -5.8890  -23.3102  -54.5752 C.3       19 UNK         0.1400 
    106 CB        -5.8433  -24.8205  -54.8572 C.3       19 UNK        -0.1800 
    107 C         -4.8764  -22.5407  -55.4444 C.2       19 UNK         0.5000 
    108 O         -3.6807  -22.8367  -55.3964 O.2       19 UNK        -0.5000 
    109 N         -5.3814  -21.5382  -56.1772 N.am      20 UNK        -0.5000 
    110 CA        -4.6346  -20.5675  -56.9867 C.3       20 UNK         0.1400 
    111 CB        -3.9241  -21.2621  -58.1683 C.3       20 UNK        -0.1800 
    112 C         -3.6903  -19.6616  -56.1608 C.2       20 UNK         0.5000 
    113 O         -2.6892  -19.1795  -56.6950 O.2       20 UNK        -0.5000 
    114 N         -4.0310  -19.4293  -54.8859 N.am      21 UNK        -0.5000 
    115 CA        -3.3273  -18.5306  -53.9728 C.3       21 UNK         0.1400 
    116 CB        -2.6851  -19.3550  -52.8403 C.3       21 UNK        -0.1800 
    117 C         -4.2990  -17.4321  -53.4970 C.2       21 UNK         0.5000 
    118 O         -5.0287  -16.8808  -54.3248 O.2       21 UNK        -0.5000 
    119 N         -4.2757  -17.0999  -52.1999 N.am      22 UNK        -0.5000 
    120 CA        -5.1495  -16.1016  -51.5619 C.3       22 UNK         0.1400 
    121 C         -6.6708  -16.4346  -51.6136 C.2       22 UNK         0.5000 
    122 N         -7.5298  -15.4267  -51.5292 N.am      22 UNK        -0.7600 
    123 O         -7.0868  -17.5861  -51.7017 O.2       22 UNK        -0.5000 
    124 C124       -4.6838  -15.7642  -50.1196 C.3       23 UNK        -0.0398 
    125 S125       -4.4368  -17.2171  -49.0334 S.3       23 UNK        -0.2404 
    126 C126       -2.8045  -16.8742  -48.3015 C.3       23 UNK        -0.0205 
    127 H127        5.0289   -8.7859  -54.2713 H         1 UNK         0.0600 
    128 H128        5.6796  -10.1287  -55.2177 H         1 UNK         0.0600 
    129 H129        3.9377   -9.8433  -55.1707 H         1 UNK         0.0600 
    130 H130        2.8608  -11.2522  -53.8253 H         1 UNK         0.3000 
    131 H131        4.1934  -12.9017  -51.8783 H         1 UNK         0.0600 
    132 H132        1.1842  -12.5642  -52.3526 H         1 UNK         0.0800 
    133 H133        2.2093  -13.6182  -53.2919 H         1 UNK         0.0800 
    134 H134        0.7907  -15.8018  -52.8032 H         1 UNK         0.0800 
    135 H135       -0.3077  -14.6526  -52.0802 H         1 UNK         0.0800 
    136 H136       -1.4876  -15.1635  -49.9887 H         1 UNK         0.1150 
    137 H137       -1.5963  -19.2628  -48.7454 H         1 UNK         0.1150 
    138 H138        1.2516  -17.9835  -51.6881 H         1 UNK         0.1150 
    139 H139       -0.3524  -20.9112  -50.1024 H         1 UNK         0.0800 
    140 H140        0.7267  -20.3879  -51.3529 H         1 UNK         0.0800 
    141 H141        0.4310  -19.6474  -47.4859 H         1 UNK         0.0800 
    142 H142        2.0238  -20.0382  -46.9358 H         1 UNK         0.0800 
    143 H143        1.4727  -22.5279  -47.3133 H         1 UNK         0.0600 
    144 H144        0.8454  -20.9340  -45.0744 H         1 UNK         0.3000 
    145 H145       -0.2789  -23.5732  -42.9153 H         1 UNK         0.0600 
    146 H146        1.4810  -22.5304  -41.5182 H         1 UNK         0.0600 
    147 H147        2.2097  -23.4945  -42.7940 H         1 UNK         0.0600 
    148 H148        2.1781  -21.7415  -42.9307 H         1 UNK         0.0600 
    149 H149       -0.1000  -20.7723  -42.4870 H         1 UNK         0.3000 
    150 H150       -3.3946  -19.9342  -43.6799 H         1 UNK         0.0600 
    151 H151       -3.5965  -20.7373  -41.3216 H         1 UNK         0.0600 
    152 H152       -3.4852  -18.9860  -41.4038 H         1 UNK         0.0600 
    153 H153       -2.0852  -19.9358  -40.9110 H         1 UNK         0.0600 
    154 H154       -1.3497  -18.2778  -42.6312 H         1 UNK         0.3000 
    155 H155        0.2934  -17.5556  -45.7583 H         1 UNK         0.0600 
    156 H156       -1.3881  -15.9170  -43.7863 H         1 UNK         0.0600 
    157 H157       -1.6569  -16.0156  -45.5222 H         1 UNK         0.0600 
    158 H158       -0.1896  -15.2730  -44.9030 H         1 UNK         0.0600 
    159 H159        0.8915  -16.7061  -43.1204 H         1 UNK         0.3000 
    160 H160        3.0099  -19.4368  -42.1743 H         1 UNK         0.0600 
    161 H161        4.5568  -17.5848  -41.7758 H         1 UNK         0.0600 
    162 H162        3.5517  -16.4695  -42.6927 H         1 UNK         0.0600 
    163 H163        4.3756  -17.7918  -43.5113 H         1 UNK         0.0600 
    164 H164        2.0643  -17.0315  -40.8757 H         1 UNK         0.3000 
    165 H165       -0.6728  -18.5555  -39.1854 H         1 UNK         0.0600 
    166 H166        0.5934  -17.7806  -37.2019 H         1 UNK         0.0600 
    167 H167        1.3320  -19.2322  -37.8589 H         1 UNK         0.0600 
    168 H168        2.0740  -17.6641  -38.1533 H         1 UNK         0.0600 
    169 H169        0.5264  -15.9493  -39.0510 H         1 UNK         0.3000 
    170 H170       -1.4914  -14.4583  -41.5974 H         1 UNK         0.0600 
    171 H171       -2.8751  -14.5248  -39.5112 H         1 UNK         0.0600 
    172 H172       -1.4510  -14.1472  -38.5491 H         1 UNK         0.0600 
    173 H173       -2.0729  -12.9761  -39.7123 H         1 UNK         0.0600 
    174 H174        0.3934  -13.1858  -40.0048 H         1 UNK         0.3000 
    175 H175        2.2368  -12.3048  -41.2643 H         1 UNK         0.0600 
    176 H176        3.7601  -14.8466  -40.4302 H         1 UNK         0.0600 
    177 H177        4.3454  -13.1952  -40.2336 H         1 UNK         0.0600 
    178 H178        2.9391  -13.7402  -39.3359 H         1 UNK         0.0600 
    179 H179        4.0337  -14.0895  -42.7248 H         1 UNK         0.3000 
    180 H180        4.6677  -13.4200  -44.9019 H         1 UNK         0.0600 
    181 H181        2.0082  -14.6666  -45.8445 H         1 UNK         0.0600 
    182 H182        3.1295  -15.4557  -44.7493 H         1 UNK         0.0600 
    183 H183        3.6148  -15.1272  -46.3995 H         1 UNK         0.0600 
    184 H184        2.6662  -11.6911  -45.9737 H         1 UNK         0.3000 
    185 H185        2.5939  -10.9800  -48.1510 H         1 UNK         0.0600 
    186 H186        4.4339   -9.5578  -47.1830 H         1 UNK         0.0600 
    187 H187        5.5639  -10.1918  -48.3748 H         1 UNK         0.0600 
    188 H188        4.2011   -9.1980  -48.8866 H         1 UNK         0.0600 
    189 H189        4.3607  -12.6269  -49.6978 H         1 UNK         0.3000 
    190 H190       -1.6211  -20.8683  -46.4582 H         1 UNK         0.3000 
    191 H191       -3.1287  -21.7137  -48.6664 H         1 UNK         0.0600 
    192 H192       -4.0145  -21.0456  -45.8142 H         1 UNK         0.0600 
    193 H193       -5.1000  -21.1931  -47.1866 H         1 UNK         0.0600 
    194 H194       -3.8822  -19.9250  -47.1672 H         1 UNK         0.0600 
    195 H195       -2.6498  -23.3540  -45.5100 H         1 UNK         0.3000 
    196 H196       -4.3277  -25.5905  -46.0038 H         1 UNK         0.0600 
    197 H197       -3.0436  -26.6309  -44.1301 H         1 UNK         0.0600 
    198 H198       -3.5246  -24.9849  -43.7453 H         1 UNK         0.0600 
    199 H199       -1.8602  -25.3310  -44.2048 H         1 UNK         0.0600 
    200 H200       -0.7906  -25.1537  -46.5540 H         1 UNK         0.3000 
    201 H201       -0.2881  -27.7191  -47.6659 H         1 UNK         0.0600 
    202 H202        1.4984  -26.2336  -46.8001 H         1 UNK         0.0600 
    203 H203        1.1842  -25.0619  -48.0776 H         1 UNK         0.0600 
    204 H204        1.8206  -26.6530  -48.4762 H         1 UNK         0.0600 
    205 H205       -1.3223  -24.6699  -49.1592 H         1 UNK         0.3000 
    206 H206       -1.3922  -25.6888  -51.8795 H         1 UNK         0.0600 
    207 H207       -0.8622  -23.3229  -51.3858 H         1 UNK         0.0600 
    208 H208       -2.3269  -23.4137  -52.3480 H         1 UNK         0.0600 
    209 H209       -2.4281  -23.1047  -50.6158 H         1 UNK         0.0600 
    210 H210       -3.2086  -26.8327  -49.5444 H         1 UNK         0.3000 
    211 H211       -5.1404  -27.8936  -49.3637 H         1 UNK         0.0600 
    212 H212       -5.1684  -27.8371  -52.4290 H         1 UNK         0.0600 
    213 H213       -6.0730  -28.9436  -51.4046 H         1 UNK         0.0600 
    214 H214       -4.3182  -29.0142  -51.4293 H         1 UNK         0.0600 
    215 H215       -5.5251  -25.4698  -48.6518 H         1 UNK         0.3000 
    216 H216       -7.0279  -23.9745  -48.0612 H         1 UNK         0.0600 
    217 H217       -9.4107  -24.1156  -48.5655 H         1 UNK         0.0600 
    218 H218       -8.8240  -25.7221  -48.1662 H         1 UNK         0.0600 
    219 H219       -9.1426  -25.2853  -49.8451 H         1 UNK         0.0600 
    220 H220       -5.1331  -23.3955  -49.7383 H         1 UNK         0.3000 
    221 H221       -4.2842  -21.8211  -51.0496 H         1 UNK         0.0600 
    222 H222       -6.8668  -20.3044  -50.4262 H         1 UNK         0.0600 
    223 H223       -5.4398  -20.3713  -49.3953 H         1 UNK         0.0600 
    224 H224       -5.3578  -19.5896  -50.9579 H         1 UNK         0.0600 
    225 H225       -5.2579  -23.8446  -52.6285 H         1 UNK         0.3000 
    226 H226       -6.8983  -22.9607  -54.8023 H         1 UNK         0.0600 
    227 H227       -6.5402  -25.3636  -54.2180 H         1 UNK         0.0600 
    228 H228       -6.1153  -25.0301  -55.8921 H         1 UNK         0.0600 
    229 H229       -4.8479  -25.2338  -54.6916 H         1 UNK         0.0600 
    230 H230       -6.3746  -21.3620  -56.1103 H         1 UNK         0.3000 
    231 H231       -5.3836  -19.8975  -57.4109 H         1 UNK         0.0600 
    232 H232       -4.6159  -21.8875  -58.7326 H         1 UNK         0.0600 
    233 H233       -3.0989  -21.8912  -57.8335 H         1 UNK         0.0600 
    234 H234       -3.5126  -20.5291  -58.8632 H         1 UNK         0.0600 
    235 H235       -4.8838  -19.8421  -54.5218 H         1 UNK         0.3000 
    236 H236       -2.5231  -18.0088  -54.4950 H         1 UNK         0.0600 
    237 H237       -2.0862  -18.7218  -52.1877 H         1 UNK         0.0600 
    238 H238       -3.4304  -19.8583  -52.2288 H         1 UNK         0.0600 
    239 H239       -2.0184  -20.1182  -53.2422 H         1 UNK         0.0600 
    240 H240       -3.6706  -17.6078  -51.5718 H         1 UNK         0.3000 
    241 H241       -5.0289  -15.1901  -52.1509 H         1 UNK         0.0600 
    242 H242       -8.5176  -15.6276  -51.5514 H         1 UNK         0.3800 
    243 H243       -7.2231  -14.4689  -51.4566 H         1 UNK         0.3800 
    244 H244       -3.7558  -15.1988  -50.1794 H         1 UNK         0.0800 
    245 H245       -5.3883  -15.0896  -49.6304 H         1 UNK         0.0800 
    246 H246       -2.7580  -15.8367  -47.9671 H         1 UNK         0.0800 
    247 H247       -2.6946  -17.4849  -47.4044 H         1 UNK         0.0800 
@<TRIPOS>BOND
     1    1    2 1    
     2    1  127 1    
     3    1  128 1    
     4    1  129 1    
     5    2    3 2    
     6    2    4 am   BACKBONE|DICT|INTERRES
     7    4    5 1    
     8    4  130 1    
     9    5    6 1    
    10    5   65 1    
    11    5  131 1    
    12    6    7 1    
    13    6  132 1    
    14    6  133 1    
    15    7    8 1    
    16    8    9 1    
    17    8  134 1    
    18    8  135 1    
    19    9   10 ar   
    20    9   14 ar   
    21   10   11 ar   
    22   10  136 1    
    23   11   12 ar   
    24   11  126 1    
    25   12   13 ar   
    26   12  137 1    
    27   13   14 ar   
    28   13   15 1    
    29   14  138 1    
    30   15   16 1    
    31   15  139 1    
    32   15  140 1    
    33   16   17 1    
    34   17   18 1    
    35   17  141 1    
    36   17  142 1    
    37   18   19 1    
    38   18   67 1    
    39   18  143 1    
    40   19   20 am   BACKBONE|DICT|INTERRES
    41   19  144 1    
    42   20   21 2    
    43   20   22 1    
    44   22   23 1    
    45   22   24 1    
    46   22  145 1    
    47   23  146 1    
    48   23  147 1    
    49   23  148 1    
    50   24   25 am   BACKBONE|DICT|INTERRES
    51   24  149 1    
    52   25   26 2    
    53   25   27 1    
    54   27   28 1    
    55   27   29 1    
    56   27  150 1    
    57   28  151 1    
    58   28  152 1    
    59   28  153 1    
    60   29   30 am   BACKBONE|DICT|INTERRES
    61   29  154 1    
    62   30   31 2    
    63   30   32 1    
    64   32   33 1    
    65   32   34 1    
    66   32  155 1    
    67   33  156 1    
    68   33  157 1    
    69   33  158 1    
    70   34   35 am   BACKBONE|DICT|INTERRES
    71   34  159 1    
    72   35   36 2    
    73   35   37 1    
    74   37   38 1    
    75   37   39 1    
    76   37  160 1    
    77   38  161 1    
    78   38  162 1    
    79   38  163 1    
    80   39   40 am   BACKBONE|DICT|INTERRES
    81   39  164 1    
    82   40   41 2    
    83   40   42 1    
    84   42   43 1    
    85   42   44 1    
    86   42  165 1    
    87   43  166 1    
    88   43  167 1    
    89   43  168 1    
    90   44   45 am   BACKBONE|DICT|INTERRES
    91   44  169 1    
    92   45   46 2    
    93   45   47 1    
    94   47   48 1    
    95   47   49 1    
    96   47  170 1    
    97   48  171 1    
    98   48  172 1    
    99   48  173 1    
   100   49   50 am   BACKBONE|DICT|INTERRES
   101   49  174 1    
   102   50   51 2    
   103   50   52 1    
   104   52   53 1    
   105   52   54 1    
   106   52  175 1    
   107   53  176 1    
   108   53  177 1    
   109   53  178 1    
   110   54   55 am   BACKBONE|DICT|INTERRES
   111   54  179 1    
   112   55   56 2    
   113   55   57 1    
   114   57   58 1    
   115   57   59 1    
   116   57  180 1    
   117   58  181 1    
   118   58  182 1    
   119   58  183 1    
   120   59   60 am   BACKBONE|DICT|INTERRES
   121   59  184 1    
   122   60   61 2    
   123   60   62 1    
   124   62   63 1    
   125   62   64 1    
   126   62  185 1    
   127   63  186 1    
   128   63  187 1    
   129   63  188 1    
   130   64   65 am   BACKBONE|DICT|INTERRES
   131   64  189 1    
   132   65   66 2    
   133   67   68 2    
   134   67   69 am   BACKBONE|DICT|INTERRES
   135   69   70 1    
   136   69  190 1    
   137   70   71 1    
   138   70   72 1    
   139   70  191 1    
   140   71  192 1    
   141   71  193 1    
   142   71  194 1    
   143   72   73 2    
   144   72   74 am   BACKBONE|DICT|INTERRES
   145   74   75 1    
   146   74  195 1    
   147   75   76 1    
   148   75   77 1    
   149   75  196 1    
   150   76  197 1    
   151   76  198 1    
   152   76  199 1    
   153   77   78 2    
   154   77   79 am   BACKBONE|DICT|INTERRES
   155   79   80 1    
   156   79  200 1    
   157   80   81 1    
   158   80   82 1    
   159   80  201 1    
   160   81  202 1    
   161   81  203 1    
   162   81  204 1    
   163   82   83 2    
   164   82   84 am   BACKBONE|DICT|INTERRES
   165   84   85 1    
   166   84  205 1    
   167   85   86 1    
   168   85   87 1    
   169   85  206 1    
   170   86  207 1    
   171   86  208 1    
   172   86  209 1    
   173   87   88 2    
   174   87   89 am   BACKBONE|DICT|INTERRES
   175   89   90 1    
   176   89  210 1    
   177   90   91 1    
   178   90   92 1    
   179   90  211 1    
   180   91  212 1    
   181   91  213 1    
   182   91  214 1    
   183   92   93 2    
   184   92   94 am   BACKBONE|DICT|INTERRES
   185   94   95 1    
   186   94  215 1    
   187   95   96 1    
   188   95   97 1    
   189   95  216 1    
   190   96  217 1    
   191   96  218 1    
   192   96  219 1    
   193   97   98 2    
   194   97   99 am   BACKBONE|DICT|INTERRES
   195   99  100 1    
   196   99  220 1    
   197  100  101 1    
   198  100  102 1    
   199  100  221 1    
   200  101  222 1    
   201  101  223 1    
   202  101  224 1    
   203  102  103 2    
   204  102  104 am   BACKBONE|DICT|INTERRES
   205  104  105 1    
   206  104  225 1    
   207  105  106 1    
   208  105  107 1    
   209  105  226 1    
   210  106  227 1    
   211  106  228 1    
   212  106  229 1    
   213  107  108 2    
   214  107  109 am   BACKBONE|DICT|INTERRES
   215  109  110 1    
   216  109  230 1    
   217  110  111 1    
   218  110  112 1    
   219  110  231 1    
   220  111  232 1    
   221  111  233 1    
   222  111  234 1    
   223  112  113 2    
   224  112  114 am   BACKBONE|DICT|INTERRES
   225  114  115 1    
   226  114  235 1    
   227  115  116 1    
   228  115  117 1    
   229  115  236 1    
   230  116  237 1    
   231  116  238 1    
   232  116  239 1    
   233  117  118 2    
   234  117  119 am   BACKBONE|DICT|INTERRES
   235  119  120 1    
   236  119  240 1    
   237  120  121 1    
   238  120  124 1    
   239  120  241 1    
   240  121  122 am   BACKBONE|DICT|INTERRES
   241  121  123 2    
   242  122  242 1    
   243  122  243 1    
   244  124  125 1    
   245  124  244 1    
   246  124  245 1    
   247  125  126 1    
   248  126  246 1    
   249  126  247 1    
@<TRIPOS>SUBSTRUCTURE
     1 UNK         1 GROUP             0       ****    0 ROOT    
