@<TRIPOS>MOLECULE
3R540
247   249    1
SMALL
USER_CHARGES


@<TRIPOS>ATOM
      1 CA         -0.8204  -10.3260  -44.2551 C.3       0 UNK        -0.1800 
      2 C          -0.9529  -10.9395  -45.6422 C.2       0 UNK         0.5000 
      3 O          -1.1522  -10.2131  -46.6164 O.2       0 UNK        -0.5000 
      4 N          -0.8462  -12.2711  -45.7286 N.am      1 UNK        -0.5000 
      5 CA         -0.8453  -13.0436  -46.9768 C.3       1 UNK         0.1400 
      6 C6         -1.4444  -14.4567  -46.7510 C.3       23 UNK        -0.0398 
      7 S7         -2.3702  -15.0867  -48.1880 S.3       23 UNK        -0.2404 
      8 C8         -2.5787  -16.8314  -47.7140 C.3       23 UNK        -0.0205 
      9 C9         -1.5659  -17.7242  -48.4132 C.ar      23 UNK        -0.0193 
     10 C10        -1.9246  -18.4043  -49.5785 C.ar      23 UNK        -0.1150 
     11 C11        -0.9981  -19.2049  -50.2529 C.ar      23 UNK        -0.0193 
     12 C12         0.2884  -19.3559  -49.7259 C.ar      23 UNK        -0.1150 
     13 C13         0.6505  -18.7026  -48.5440 C.ar      23 UNK        -0.0193 
     14 C14        -0.2783  -17.8824  -47.8972 C.ar      23 UNK        -0.1150 
     15 C15         2.0541  -18.8440  -47.9793 C.3       23 UNK        -0.0205 
     16 S16         2.0757  -19.7954  -46.4280 S.3       23 UNK        -0.2404 
     17 C17         2.1134  -21.5181  -47.0180 C.3       23 UNK        -0.0398 
     18 CA          0.9776  -22.4261  -46.4866 C.3       11 UNK         0.1400 
     19 N           0.7684  -22.3535  -45.0363 N.am      11 UNK        -0.5000 
     20 C           0.1475  -23.3149  -44.3366 C.2       10 UNK         0.5000 
     21 O          -0.3050  -24.3420  -44.8421 O.2       10 UNK        -0.5000 
     22 CA         -0.0353  -23.0805  -42.8311 C.3       10 UNK         0.1400 
     23 CB          1.2879  -23.2632  -42.0716 C.3       10 UNK        -0.1800 
     24 N          -0.5961  -21.7611  -42.5556 N.am      10 UNK        -0.5000 
     25 C          -1.8715  -21.4245  -42.7947 C.2       9 UNK         0.5000 
     26 O          -2.6988  -22.1889  -43.2919 O.2       9 UNK        -0.5000 
     27 CA         -2.2933  -19.9880  -42.4339 C.3       9 UNK         0.1400 
     28 CB         -2.7641  -19.9144  -40.9740 C.3       9 UNK        -0.1800 
     29 N          -1.2326  -19.0042  -42.6438 N.am      9 UNK        -0.5000 
     30 C          -0.7165  -18.7005  -43.8423 C.2       8 UNK         0.5000 
     31 O          -1.0788  -19.2215  -44.8948 O.2       8 UNK        -0.5000 
     32 CA          0.4123  -17.6564  -43.8644 C.3       8 UNK         0.1400 
     33 CB         -0.1930  -16.2450  -43.8366 C.3       8 UNK        -0.1800 
     34 N           1.3765  -17.7770  -42.7697 N.am      8 UNK        -0.5000 
     35 C           1.9822  -18.8979  -42.3434 C.2       7 UNK         0.5000 
     36 O           1.8585  -19.9952  -42.8879 O.2       7 UNK        -0.5000 
     37 CA          2.8332  -18.7940  -41.0591 C.3       7 UNK         0.1400 
     38 CB          4.3275  -18.7800  -41.4144 C.3       7 UNK        -0.1800 
     39 N           2.5347  -17.6179  -40.2362 N.am      7 UNK        -0.5000 
     40 C           1.3442  -17.3020  -39.7037 C.2       6 UNK         0.5000 
     41 O           0.3641  -18.0478  -39.7363 O.2       6 UNK        -0.5000 
     42 CA          1.2044  -15.8919  -39.0884 C.3       6 UNK         0.1400 
     43 CB          1.1901  -15.9771  -37.5546 C.3       6 UNK        -0.1800 
     44 N           2.2342  -14.9258  -39.5001 N.am      6 UNK        -0.5000 
     45 C           2.5049  -14.5395  -40.7560 C.2       5 UNK         0.5000 
     46 O           1.9260  -14.9919  -41.7469 O.2       5 UNK        -0.5000 
     47 CA          3.6649  -13.5368  -40.9153 C.3       5 UNK         0.1400 
     48 CB          5.0027  -14.1962  -40.5376 C.3       5 UNK        -0.1800 
     49 N           3.7825  -13.0367  -42.2823 N.am      5 UNK        -0.5000 
     50 C           2.9876  -12.1391  -42.8721 C.2       4 UNK         0.5000 
     51 O           2.0733  -11.5522  -42.2922 O.2       4 UNK        -0.5000 
     52 CA          3.2543  -11.8454  -44.3644 C.3       4 UNK         0.1400 
     53 CB          4.4391  -10.8776  -44.5414 C.3       4 UNK        -0.1800 
     54 N           3.4051  -13.0407  -45.2088 N.am      4 UNK        -0.5000 
     55 C           4.3506  -13.9937  -45.1803 C.2       3 UNK         0.5000 
     56 O           5.3276  -13.9638  -44.4307 O.2       3 UNK        -0.5000 
     57 CA          4.1603  -15.2179  -46.0982 C.3       3 UNK         0.1400 
     58 CB          3.8022  -16.4451  -45.2455 C.3       3 UNK        -0.1800 
     59 N           3.1242  -15.0258  -47.1184 N.am      3 UNK        -0.5000 
     60 C           3.3320  -14.4394  -48.3062 C.2       2 UNK         0.5000 
     61 O           4.4368  -14.0557  -48.6917 O.2       2 UNK        -0.5000 
     62 CA          2.0990  -14.2181  -49.2112 C.3       2 UNK         0.1400 
     63 CB          1.9471  -15.3749  -50.2107 C.3       2 UNK        -0.1800 
     64 N           0.8288  -14.0376  -48.4967 N.am      2 UNK        -0.5000 
     65 C           0.5751  -13.0799  -47.5934 C.2       1 UNK         0.5000 
     66 O           1.4283  -12.2685  -47.2282 O.2       1 UNK        -0.5000 
     67 C          -0.3356  -22.2994  -47.2833 C.2       11 UNK         0.5000 
     68 O          -0.4774  -22.9933  -48.2904 O.2       11 UNK        -0.5000 
     69 N          -1.2994  -21.5028  -46.7931 N.am      12 UNK        -0.5000 
     70 CA         -2.6545  -21.4297  -47.3452 C.3       12 UNK         0.1400 
     71 CB         -3.4758  -20.3622  -46.6089 C.3       12 UNK        -0.1800 
     72 C          -3.3871  -22.7798  -47.2852 C.2       12 UNK         0.5000 
     73 O          -3.9693  -23.1953  -48.2879 O.2       12 UNK        -0.5000 
     74 N          -3.3210  -23.4462  -46.1235 N.am      13 UNK        -0.5000 
     75 CA         -3.9104  -24.7636  -45.8933 C.3       13 UNK         0.1400 
     76 CB         -3.8777  -25.0917  -44.3932 C.3       13 UNK        -0.1800 
     77 C          -3.2224  -25.8694  -46.7111 C.2       13 UNK         0.5000 
     78 O          -3.9144  -26.6847  -47.3210 O.2       13 UNK        -0.5000 
     79 N          -1.8816  -25.8636  -46.7313 N.am      14 UNK        -0.5000 
     80 CA         -1.0570  -26.8335  -47.4550 C.3       14 UNK         0.1400 
     81 CB          0.4187  -26.6438  -47.0747 C.3       14 UNK        -0.1800 
     82 C          -1.2344  -26.7604  -48.9818 C.2       14 UNK         0.5000 
     83 O          -1.3101  -27.8031  -49.6330 O.2       14 UNK        -0.5000 
     84 N          -1.3168  -25.5375  -49.5229 N.am      15 UNK        -0.5000 
     85 CA         -1.5411  -25.2885  -50.9469 C.3       15 UNK         0.1400 
     86 CB         -1.0342  -23.8784  -51.2929 C.3       15 UNK        -0.1800 
     87 C          -3.0170  -25.4278  -51.3630 C.2       15 UNK         0.5000 
     88 O          -3.2891  -25.4729  -52.5620 O.2       15 UNK        -0.5000 
     89 N          -3.9433  -25.4190  -50.3911 N.am      16 UNK        -0.5000 
     90 CA         -5.3992  -25.3059  -50.5580 C.3       16 UNK         0.1400 
     91 CB         -5.9830  -26.5763  -51.2090 C.3       16 UNK        -0.1800 
     92 C          -5.7659  -24.0096  -51.3118 C.2       16 UNK         0.5000 
     93 O          -6.4544  -24.0440  -52.3344 O.2       16 UNK        -0.5000 
     94 N          -5.1873  -22.8956  -50.8367 N.am      17 UNK        -0.5000 
     95 CA         -5.1898  -21.5524  -51.4324 C.3       17 UNK         0.1400 
     96 CB         -6.6068  -20.9458  -51.3981 C.3       17 UNK        -0.1800 
     97 C          -4.5629  -21.4911  -52.8459 C.2       17 UNK         0.5000 
     98 O          -4.8149  -20.5346  -53.5795 O.2       17 UNK        -0.5000 
     99 N          -3.7813  -22.5205  -53.2096 N.am      18 UNK        -0.5000 
    100 CA        -3.2313  -22.8030  -54.5393 C.3       18 UNK         0.1400 
    101 CB        -2.1768  -21.7521  -54.9376 C.3       18 UNK        -0.1800 
    102 C         -4.3422  -22.9926  -55.5922 C.2       18 UNK         0.5000 
    103 O         -4.2170  -22.5044  -56.7140 O.2       18 UNK        -0.5000 
    104 N         -5.4414  -23.6522  -55.1899 N.am      19 UNK        -0.5000 
    105 CA        -6.6992  -23.7894  -55.9367 C.3       19 UNK         0.1400 
    106 CB        -6.5096  -24.6535  -57.2010 C.3       19 UNK        -0.1800 
    107 C         -7.3436  -22.4144  -56.2219 C.2       19 UNK         0.5000 
    108 O         -7.8282  -22.1626  -57.3258 O.2       19 UNK        -0.5000 
    109 N         -7.2911  -21.5467  -55.2015 N.am      20 UNK        -0.5000 
    110 CA        -7.7194  -20.1456  -55.1547 C.3       20 UNK         0.1400 
    111 CB        -9.2058  -19.9897  -55.5363 C.3       20 UNK        -0.1800 
    112 C         -6.8097  -19.1623  -55.9223 C.2       20 UNK         0.5000 
    113 O         -7.1220  -17.9703  -55.9492 O.2       20 UNK        -0.5000 
    114 N         -5.6843  -19.6269  -56.4891 N.am      21 UNK        -0.5000 
    115 CA        -4.7193  -18.7837  -57.2048 C.3       21 UNK         0.1400 
    116 CB        -3.7234  -19.6552  -57.9824 C.3       21 UNK        -0.1800 
    117 C         -3.9758  -17.7802  -56.3001 C.2       21 UNK         0.5000 
    118 O         -3.5299  -16.7475  -56.8027 O.2       21 UNK        -0.5000 
    119 N         -3.8851  -18.0655  -54.9927 N.am      22 UNK        -0.5000 
    120 CA        -3.4204  -17.1034  -53.9780 C.3       22 UNK         0.1400 
    121 C         -4.4759  -16.0139  -53.6102 C.2       22 UNK         0.5000 
    122 N         -5.7125  -16.0690  -54.0939 N.am      22 UNK        -0.7600 
    123 O         -4.1614  -15.0826  -52.8746 O.2       22 UNK        -0.5000 
    124 C124       -2.8838  -17.7989  -52.7004 C.3       23 UNK        -0.0398 
    125 S125       -1.3903  -18.8092  -52.9884 S.3       23 UNK        -0.2404 
    126 C126       -1.3925  -19.9178  -51.5387 C.3       23 UNK        -0.0205 
    127 H127       -0.6696  -11.0856  -43.4875 H         1 UNK         0.0600 
    128 H128       -1.7192   -9.7627  -44.0047 H         1 UNK         0.0600 
    129 H129        0.0303   -9.6449  -44.2268 H         1 UNK         0.0600 
    130 H130       -0.6634  -12.7978  -44.8870 H         1 UNK         0.3000 
    131 H131       -1.4786  -12.5164  -47.6935 H         1 UNK         0.0600 
    132 H132       -0.6723  -15.1717  -46.4697 H         1 UNK         0.0800 
    133 H133       -2.1530  -14.4371  -45.9212 H         1 UNK         0.0800 
    134 H134       -3.5916  -17.1425  -47.9741 H         1 UNK         0.0800 
    135 H135       -2.4989  -16.9491  -46.6321 H         1 UNK         0.0800 
    136 H136       -2.9274  -18.2988  -49.9645 H         1 UNK         0.1150 
    137 H137        1.0076  -19.9798  -50.2373 H         1 UNK         0.1150 
    138 H138        0.0015  -17.3755  -46.9865 H         1 UNK         0.1150 
    139 H139        2.7304  -19.2970  -48.7056 H         1 UNK         0.0800 
    140 H140        2.4508  -17.8480  -47.7842 H         1 UNK         0.0800 
    141 H141        2.1428  -21.5418  -48.1088 H         1 UNK         0.0800 
    142 H142        3.0699  -21.9331  -46.6981 H         1 UNK         0.0800 
    143 H143        1.3229  -23.4429  -46.6849 H         1 UNK         0.0600 
    144 H144        1.0941  -21.5175  -44.5656 H         1 UNK         0.3000 
    145 H145       -0.7363  -23.8315  -42.4599 H         1 UNK         0.0600 
    146 H146        1.1513  -23.1167  -41.0001 H         1 UNK         0.0600 
    147 H147        2.0549  -22.5668  -42.4102 H         1 UNK         0.0600 
    148 H148        1.6791  -24.2713  -42.2146 H         1 UNK         0.0600 
    149 H149        0.0505  -21.0477  -42.2441 H         1 UNK         0.3000 
    150 H150       -3.1330  -19.7195  -43.0784 H         1 UNK         0.0600 
    151 H151       -3.5661  -20.6292  -40.7849 H         1 UNK         0.0600 
    152 H152       -3.1490  -18.9233  -40.7333 H         1 UNK         0.0600 
    153 H153       -1.9533  -20.1367  -40.2786 H         1 UNK         0.0600 
    154 H154       -0.8545  -18.5530  -41.8212 H         1 UNK         0.3000 
    155 H155        0.9534  -17.7784  -44.8009 H         1 UNK         0.0600 
    156 H156       -1.0591  -16.1759  -44.4932 H         1 UNK         0.0600 
    157 H157        0.5314  -15.4951  -44.1543 H         1 UNK         0.0600 
    158 H158       -0.5340  -15.9761  -42.8360 H         1 UNK         0.0600 
    159 H159        1.5714  -16.9156  -42.2694 H         1 UNK         0.3000 
    160 H160        2.6260  -19.6820  -40.4588 H         1 UNK         0.0600 
    161 H161        4.5932  -17.8965  -41.9967 H         1 UNK         0.0600 
    162 H162        4.5971  -19.6560  -42.0061 H         1 UNK         0.0600 
    163 H163        4.9477  -18.7919  -40.5179 H         1 UNK         0.0600 
    164 H164        3.2727  -16.9352  -40.1544 H         1 UNK         0.3000 
    165 H165        0.2408  -15.4981  -39.4177 H         1 UNK         0.0600 
    166 H166        0.9860  -15.0046  -37.1062 H         1 UNK         0.0600 
    167 H167        0.4146  -16.6611  -37.2069 H         1 UNK         0.0600 
    168 H168        2.1432  -16.3354  -37.1635 H         1 UNK         0.0600 
    169 H169        2.7716  -14.5169  -38.7490 H         1 UNK         0.3000 
    170 H170        3.4825  -12.6920  -40.2481 H         1 UNK         0.0600 
    171 H171        5.2164  -15.0600  -41.1691 H         1 UNK         0.0600 
    172 H172        5.8301  -13.4942  -40.6444 H         1 UNK         0.0600 
    173 H173        5.0046  -14.5364  -39.5016 H         1 UNK         0.0600 
    174 H174        4.4841  -13.4789  -42.8704 H         1 UNK         0.3000 
    175 H175        2.3652  -11.3369  -44.7410 H         1 UNK         0.0600 
    176 H176        5.3745  -11.3028  -44.1768 H         1 UNK         0.0600 
    177 H177        4.5766  -10.6134  -45.5899 H         1 UNK         0.0600 
    178 H178        4.2680   -9.9511  -43.9921 H         1 UNK         0.0600 
    179 H179        2.6797  -13.1299  -45.9112 H         1 UNK         0.3000 
    180 H180        5.1175  -15.4142  -46.5857 H         1 UNK         0.0600 
    181 H181        2.8556  -16.3050  -44.7258 H         1 UNK         0.0600 
    182 H182        4.5627  -16.6334  -44.4865 H         1 UNK         0.0600 
    183 H183        3.7312  -17.3456  -45.8527 H         1 UNK         0.0600 
    184 H184        2.1882  -15.3151  -46.8813 H         1 UNK         0.3000 
    185 H185        2.2815  -13.3036  -49.7791 H         1 UNK         0.0600 
    186 H186        1.7172  -16.3135  -49.7079 H         1 UNK         0.0600 
    187 H187        1.1499  -15.1767  -50.9274 H         1 UNK         0.0600 
    188 H188        2.8650  -15.5245  -50.7807 H         1 UNK         0.0600 
    189 H189        0.0782  -14.6635  -48.7574 H         1 UNK         0.3000 
    190 H190       -1.0998  -20.9056  -45.9962 H         1 UNK         0.3000 
    191 H191       -2.5710  -21.1374  -48.3937 H         1 UNK         0.0600 
    192 H192       -3.0092  -19.3840  -46.6880 H         1 UNK         0.0600 
    193 H193       -3.5806  -20.5923  -45.5482 H         1 UNK         0.0600 
    194 H194       -4.4781  -20.2782  -47.0305 H         1 UNK         0.0600 
    195 H195       -2.8357  -23.0248  -45.3402 H         1 UNK         0.3000 
    196 H196       -4.9559  -24.7219  -46.2061 H         1 UNK         0.0600 
    197 H197       -4.4492  -24.3621  -43.8192 H         1 UNK         0.0600 
    198 H198       -2.8595  -25.0987  -44.0028 H         1 UNK         0.0600 
    199 H199       -4.3129  -26.0724  -44.1970 H         1 UNK         0.0600 
    200 H200       -1.3853  -25.1811  -46.1634 H         1 UNK         0.3000 
    201 H201       -1.3626  -27.8315  -47.1339 H         1 UNK         0.0600 
    202 H202        0.5686  -26.7613  -46.0014 H         1 UNK         0.0600 
    203 H203        0.7815  -25.6560  -47.3586 H         1 UNK         0.0600 
    204 H204        1.0489  -27.3810  -47.5737 H         1 UNK         0.0600 
    205 H205       -1.1951  -24.7185  -48.9332 H         1 UNK         0.3000 
    206 H206       -0.9628  -26.0089  -51.5292 H         1 UNK         0.0600 
    207 H207        0.0114  -23.7539  -51.0108 H         1 UNK         0.0600 
    208 H208       -1.6119  -23.1067  -50.7819 H         1 UNK         0.0600 
    209 H209       -1.1031  -23.6864  -52.3641 H         1 UNK         0.0600 
    210 H210       -3.6147  -25.3568  -49.4365 H         1 UNK         0.3000 
    211 H211       -5.8231  -25.2180  -49.5565 H         1 UNK         0.0600 
    212 H212       -5.6330  -26.7104  -52.2329 H         1 UNK         0.0600 
    213 H213       -7.0720  -26.5304  -51.2408 H         1 UNK         0.0600 
    214 H214       -5.7111  -27.4671  -50.6427 H         1 UNK         0.0600 
    215 H215       -4.6549  -22.9890  -49.9723 H         1 UNK         0.3000 
    216 H216       -4.5580  -20.9381  -50.7907 H         1 UNK         0.0600 
    217 H217       -6.5954  -19.9013  -51.7122 H         1 UNK         0.0600 
    218 H218       -7.0201  -20.9727  -50.3899 H         1 UNK         0.0600 
    219 H219       -7.2945  -21.4789  -52.0547 H         1 UNK         0.0600 
    220 H220       -3.6799  -23.2796  -52.5500 H         1 UNK         0.3000 
    221 H221       -2.7185  -23.7625  -54.4724 H         1 UNK         0.0600 
    222 H222       -2.6112  -20.7586  -55.0408 H         1 UNK         0.0600 
    223 H223       -1.3828  -21.6942  -54.1937 H         1 UNK         0.0600 
    224 H224       -1.7087  -22.0058  -55.8892 H         1 UNK         0.0600 
    225 H225       -5.4736  -23.9885  -54.2333 H         1 UNK         0.3000 
    226 H226       -7.3890  -24.3186  -55.2775 H         1 UNK         0.0600 
    227 H227       -6.0508  -25.6118  -56.9575 H         1 UNK         0.0600 
    228 H228       -7.4690  -24.8643  -57.6746 H         1 UNK         0.0600 
    229 H229       -5.8825  -24.1601  -57.9438 H         1 UNK         0.0600 
    230 H230       -6.8239  -21.8657  -54.3647 H         1 UNK         0.3000 
    231 H231       -7.6291  -19.8561  -54.1072 H         1 UNK         0.0600 
    232 H232       -9.5607  -18.9821  -55.3167 H         1 UNK         0.0600 
    233 H233       -9.8331  -20.6819  -54.9747 H         1 UNK         0.0600 
    234 H234       -9.3750  -20.1658  -56.5986 H         1 UNK         0.0600 
    235 H235       -5.4592  -20.6103  -56.4103 H         1 UNK         0.3000 
    236 H236       -5.2819  -18.1993  -57.9359 H         1 UNK         0.0600 
    237 H237       -3.0636  -20.2078  -57.3151 H         1 UNK         0.0600 
    238 H238       -4.2375  -20.3732  -58.6217 H         1 UNK         0.0600 
    239 H239       -3.0914  -19.0415  -58.6252 H         1 UNK         0.0600 
    240 H240       -4.2648  -18.9405  -54.6433 H         1 UNK         0.3000 
    241 H241       -2.5822  -16.5515  -54.4076 H         1 UNK         0.0600 
    242 H242       -6.3667  -15.3453  -53.8423 H         1 UNK         0.3800 
    243 H243       -6.0070  -16.8025  -54.7282 H         1 UNK         0.3800 
    244 H244       -3.6647  -18.4179  -52.2574 H         1 UNK         0.0800 
    245 H245       -2.6154  -17.0513  -51.9520 H         1 UNK         0.0800 
    246 H246       -0.7047  -20.7417  -51.7347 H         1 UNK         0.0800 
    247 H247       -2.3726  -20.3718  -51.4174 H         1 UNK         0.0800 
@<TRIPOS>BOND
     1    1    2 1    
     2    1  127 1    
     3    1  128 1    
     4    1  129 1    
     5    2    3 2    
     6    2    4 am   BACKBONE|DICT|INTERRES
     7    4    5 1    
     8    4  130 1    
     9    5    6 1    
    10    5   65 1    
    11    5  131 1    
    12    6    7 1    
    13    6  132 1    
    14    6  133 1    
    15    7    8 1    
    16    8    9 1    
    17    8  134 1    
    18    8  135 1    
    19    9   10 ar   
    20    9   14 ar   
    21   10   11 ar   
    22   10  136 1    
    23   11   12 ar   
    24   11  126 1    
    25   12   13 ar   
    26   12  137 1    
    27   13   14 ar   
    28   13   15 1    
    29   14  138 1    
    30   15   16 1    
    31   15  139 1    
    32   15  140 1    
    33   16   17 1    
    34   17   18 1    
    35   17  141 1    
    36   17  142 1    
    37   18   19 1    
    38   18   67 1    
    39   18  143 1    
    40   19   20 am   BACKBONE|DICT|INTERRES
    41   19  144 1    
    42   20   21 2    
    43   20   22 1    
    44   22   23 1    
    45   22   24 1    
    46   22  145 1    
    47   23  146 1    
    48   23  147 1    
    49   23  148 1    
    50   24   25 am   BACKBONE|DICT|INTERRES
    51   24  149 1    
    52   25   26 2    
    53   25   27 1    
    54   27   28 1    
    55   27   29 1    
    56   27  150 1    
    57   28  151 1    
    58   28  152 1    
    59   28  153 1    
    60   29   30 am   BACKBONE|DICT|INTERRES
    61   29  154 1    
    62   30   31 2    
    63   30   32 1    
    64   32   33 1    
    65   32   34 1    
    66   32  155 1    
    67   33  156 1    
    68   33  157 1    
    69   33  158 1    
    70   34   35 am   BACKBONE|DICT|INTERRES
    71   34  159 1    
    72   35   36 2    
    73   35   37 1    
    74   37   38 1    
    75   37   39 1    
    76   37  160 1    
    77   38  161 1    
    78   38  162 1    
    79   38  163 1    
    80   39   40 am   BACKBONE|DICT|INTERRES
    81   39  164 1    
    82   40   41 2    
    83   40   42 1    
    84   42   43 1    
    85   42   44 1    
    86   42  165 1    
    87   43  166 1    
    88   43  167 1    
    89   43  168 1    
    90   44   45 am   BACKBONE|DICT|INTERRES
    91   44  169 1    
    92   45   46 2    
    93   45   47 1    
    94   47   48 1    
    95   47   49 1    
    96   47  170 1    
    97   48  171 1    
    98   48  172 1    
    99   48  173 1    
   100   49   50 am   BACKBONE|DICT|INTERRES
   101   49  174 1    
   102   50   51 2    
   103   50   52 1    
   104   52   53 1    
   105   52   54 1    
   106   52  175 1    
   107   53  176 1    
   108   53  177 1    
   109   53  178 1    
   110   54   55 am   BACKBONE|DICT|INTERRES
   111   54  179 1    
   112   55   56 2    
   113   55   57 1    
   114   57   58 1    
   115   57   59 1    
   116   57  180 1    
   117   58  181 1    
   118   58  182 1    
   119   58  183 1    
   120   59   60 am   BACKBONE|DICT|INTERRES
   121   59  184 1    
   122   60   61 2    
   123   60   62 1    
   124   62   63 1    
   125   62   64 1    
   126   62  185 1    
   127   63  186 1    
   128   63  187 1    
   129   63  188 1    
   130   64   65 am   BACKBONE|DICT|INTERRES
   131   64  189 1    
   132   65   66 2    
   133   67   68 2    
   134   67   69 am   BACKBONE|DICT|INTERRES
   135   69   70 1    
   136   69  190 1    
   137   70   71 1    
   138   70   72 1    
   139   70  191 1    
   140   71  192 1    
   141   71  193 1    
   142   71  194 1    
   143   72   73 2    
   144   72   74 am   BACKBONE|DICT|INTERRES
   145   74   75 1    
   146   74  195 1    
   147   75   76 1    
   148   75   77 1    
   149   75  196 1    
   150   76  197 1    
   151   76  198 1    
   152   76  199 1    
   153   77   78 2    
   154   77   79 am   BACKBONE|DICT|INTERRES
   155   79   80 1    
   156   79  200 1    
   157   80   81 1    
   158   80   82 1    
   159   80  201 1    
   160   81  202 1    
   161   81  203 1    
   162   81  204 1    
   163   82   83 2    
   164   82   84 am   BACKBONE|DICT|INTERRES
   165   84   85 1    
   166   84  205 1    
   167   85   86 1    
   168   85   87 1    
   169   85  206 1    
   170   86  207 1    
   171   86  208 1    
   172   86  209 1    
   173   87   88 2    
   174   87   89 am   BACKBONE|DICT|INTERRES
   175   89   90 1    
   176   89  210 1    
   177   90   91 1    
   178   90   92 1    
   179   90  211 1    
   180   91  212 1    
   181   91  213 1    
   182   91  214 1    
   183   92   93 2    
   184   92   94 am   BACKBONE|DICT|INTERRES
   185   94   95 1    
   186   94  215 1    
   187   95   96 1    
   188   95   97 1    
   189   95  216 1    
   190   96  217 1    
   191   96  218 1    
   192   96  219 1    
   193   97   98 2    
   194   97   99 am   BACKBONE|DICT|INTERRES
   195   99  100 1    
   196   99  220 1    
   197  100  101 1    
   198  100  102 1    
   199  100  221 1    
   200  101  222 1    
   201  101  223 1    
   202  101  224 1    
   203  102  103 2    
   204  102  104 am   BACKBONE|DICT|INTERRES
   205  104  105 1    
   206  104  225 1    
   207  105  106 1    
   208  105  107 1    
   209  105  226 1    
   210  106  227 1    
   211  106  228 1    
   212  106  229 1    
   213  107  108 2    
   214  107  109 am   BACKBONE|DICT|INTERRES
   215  109  110 1    
   216  109  230 1    
   217  110  111 1    
   218  110  112 1    
   219  110  231 1    
   220  111  232 1    
   221  111  233 1    
   222  111  234 1    
   223  112  113 2    
   224  112  114 am   BACKBONE|DICT|INTERRES
   225  114  115 1    
   226  114  235 1    
   227  115  116 1    
   228  115  117 1    
   229  115  236 1    
   230  116  237 1    
   231  116  238 1    
   232  116  239 1    
   233  117  118 2    
   234  117  119 am   BACKBONE|DICT|INTERRES
   235  119  120 1    
   236  119  240 1    
   237  120  121 1    
   238  120  124 1    
   239  120  241 1    
   240  121  122 am   BACKBONE|DICT|INTERRES
   241  121  123 2    
   242  122  242 1    
   243  122  243 1    
   244  124  125 1    
   245  124  244 1    
   246  124  245 1    
   247  125  126 1    
   248  126  246 1    
   249  126  247 1    
@<TRIPOS>SUBSTRUCTURE
     1 UNK         1 GROUP             0       ****    0 ROOT    
