@<TRIPOS>MOLECULE
3R540
247   249    1
SMALL
USER_CHARGES


@<TRIPOS>ATOM
      1 CA          2.0360  -15.1345  -52.8785 C.3       0 UNK        -0.1800 
      2 C           2.3759  -13.8831  -52.0800 C.2       0 UNK         0.5000 
      3 O           2.0600  -12.7751  -52.5127 O.2       0 UNK        -0.5000 
      4 N           3.0281  -14.0615  -50.9242 N.am      1 UNK        -0.5000 
      5 CA          3.4096  -13.0141  -49.9692 C.3       1 UNK         0.1400 
      6 C6          4.3594  -13.5503  -48.8610 C.3       23 UNK        -0.0398 
      7 S7          3.8156  -15.1227  -48.0905 S.3       23 UNK        -0.2404 
      8 C8          4.8268  -16.3387  -48.9946 C.3       23 UNK        -0.0205 
      9 C9          4.0835  -17.6466  -49.2296 C.ar      23 UNK        -0.0193 
     10 C10         2.8835  -17.6527  -49.9498 C.ar      23 UNK        -0.1150 
     11 C11         2.2297  -18.8525  -50.2310 C.ar      23 UNK        -0.0193 
     12 C12         2.7920  -20.0544  -49.8020 C.ar      23 UNK        -0.1150 
     13 C13         3.9723  -20.0674  -49.0538 C.ar      23 UNK        -0.0193 
     14 C14         4.6140  -18.8574  -48.7692 C.ar      23 UNK        -0.1150 
     15 C15         4.5588  -21.3916  -48.5783 C.3       23 UNK        -0.0205 
     16 S16         3.8486  -21.9411  -46.9901 S.3       23 UNK        -0.2404 
     17 C17         2.0982  -22.1696  -47.4449 C.3       23 UNK        -0.0398 
     18 CA          1.3370  -23.2117  -46.5984 C.3       11 UNK         0.1400 
     19 N           1.4023  -22.9343  -45.1645 N.am      11 UNK        -0.5000 
     20 C           1.1048  -23.8038  -44.1921 C.2       10 UNK         0.5000 
     21 O           0.7603  -24.9658  -44.4113 O.2       10 UNK        -0.5000 
     22 CA          1.1521  -23.2748  -42.7425 C.3       10 UNK         0.1400 
     23 CB          1.5987  -24.3482  -41.7289 C.3       10 UNK        -0.1800 
     24 N           1.9248  -22.0358  -42.5879 N.am      10 UNK        -0.5000 
     25 C           3.2466  -21.8561  -42.7400 C.2       9 UNK         0.5000 
     26 O           4.0359  -22.7661  -42.9950 O.2       9 UNK        -0.5000 
     27 CA          3.7865  -20.4151  -42.6030 C.3       9 UNK         0.1400 
     28 CB          4.2937  -19.8993  -43.9590 C.3       9 UNK        -0.1800 
     29 N           2.8009  -19.4637  -42.0862 N.am      9 UNK        -0.5000 
     30 C           2.4044  -19.3756  -40.8099 C.2       8 UNK         0.5000 
     31 O           2.8836  -20.0476  -39.8962 O.2       8 UNK        -0.5000 
     32 CA          1.2426  -18.4058  -40.5166 C.3       8 UNK         0.1400 
     33 CB          1.7674  -16.9820  -40.2788 C.3       8 UNK        -0.1800 
     34 N           0.2311  -18.3864  -41.5785 N.am      8 UNK        -0.5000 
     35 C          -0.5274  -19.4363  -41.9260 C.2       7 UNK         0.5000 
     36 O          -0.4742  -20.5305  -41.3654 O.2       7 UNK        -0.5000 
     37 CA         -1.4621  -19.2611  -43.1341 C.3       7 UNK         0.1400 
     38 CB         -2.7492  -18.5218  -42.7424 C.3       7 UNK        -0.1800 
     39 N          -0.8095  -18.5777  -44.2503 N.am      7 UNK        -0.5000 
     40 C           0.1814  -19.1047  -44.9828 C.2       6 UNK         0.5000 
     41 O           0.5813  -20.2602  -44.8493 O.2       6 UNK        -0.5000 
     42 CA          0.8507  -18.1929  -46.0267 C.3       6 UNK         0.1400 
     43 CB          0.0634  -18.2232  -47.3419 C.3       6 UNK        -0.1800 
     44 N           0.9790  -16.8105  -45.5674 N.am      6 UNK        -0.5000 
     45 C           1.7128  -16.4238  -44.5146 C.2       5 UNK         0.5000 
     46 O           2.4077  -17.1894  -43.8479 O.2       5 UNK        -0.5000 
     47 CA          1.5920  -14.9510  -44.0882 C.3       5 UNK         0.1400 
     48 CB          2.4674  -14.0383  -44.9564 C.3       5 UNK        -0.1800 
     49 N           0.2063  -14.4849  -44.1250 N.am      5 UNK        -0.5000 
     50 C          -0.7466  -14.8893  -43.2742 C.2       4 UNK         0.5000 
     51 O          -0.5467  -15.6747  -42.3484 O.2       4 UNK        -0.5000 
     52 CA         -2.1678  -14.3533  -43.5230 C.3       4 UNK         0.1400 
     53 CB         -2.3461  -12.9719  -42.8760 C.3       4 UNK        -0.1800 
     54 N          -2.4933  -14.2677  -44.9474 N.am      4 UNK        -0.5000 
     55 C          -2.6478  -15.3284  -45.7527 C.2       3 UNK         0.5000 
     56 O          -2.5591  -16.4948  -45.3729 O.2       3 UNK        -0.5000 
     57 CA         -2.8867  -15.0292  -47.2437 C.3       3 UNK         0.1400 
     58 CB         -4.3726  -14.7561  -47.5151 C.3       3 UNK        -0.1800 
     59 N          -2.0780  -13.9086  -47.7341 N.am      3 UNK        -0.5000 
     60 C          -0.7406  -13.9278  -47.7895 C.2       2 UNK         0.5000 
     61 O          -0.0579  -14.8910  -47.4316 O.2       2 UNK        -0.5000 
     62 CA         -0.0430  -12.6529  -48.2772 C.3       2 UNK         0.1400 
     63 CB          0.1073  -11.6562  -47.1091 C.3       2 UNK        -0.1800 
     64 N           1.2529  -13.0533  -48.8157 N.am      2 UNK        -0.5000 
     65 C           2.1791  -12.2806  -49.3911 C.2       1 UNK         0.5000 
     66 O           2.0813  -11.0589  -49.5163 O.2       1 UNK        -0.5000 
     67 C          -0.1239  -23.2668  -47.0812 C.2       11 UNK         0.5000 
     68 O          -0.4514  -24.0851  -47.9398 O.2       11 UNK        -0.5000 
     69 N          -0.9839  -22.4090  -46.5102 N.am      12 UNK        -0.5000 
     70 CA         -2.4041  -22.2866  -46.8594 C.3       12 UNK         0.1400 
     71 CB         -2.9962  -21.0633  -46.1454 C.3       12 UNK        -0.1800 
     72 C          -3.2381  -23.5478  -46.5525 C.2       12 UNK         0.5000 
     73 O          -4.3181  -23.7060  -47.1181 O.2       12 UNK        -0.5000 
     74 N          -2.7224  -24.4270  -45.6816 N.am      13 UNK        -0.5000 
     75 CA         -3.2953  -25.7416  -45.3949 C.3       13 UNK         0.1400 
     76 CB         -2.7098  -26.2642  -44.0741 C.3       13 UNK        -0.1800 
     77 C          -3.0536  -26.7547  -46.5325 C.2       13 UNK         0.5000 
     78 O          -3.8741  -27.6537  -46.7202 O.2       13 UNK        -0.5000 
     79 N          -1.9402  -26.5990  -47.2631 N.am      14 UNK        -0.5000 
     80 CA         -1.5841  -27.4198  -48.4205 C.3       14 UNK         0.1400 
     81 CB         -0.0550  -27.5582  -48.4948 C.3       14 UNK        -0.1800 
     82 C          -2.1426  -26.8154  -49.7198 C.2       14 UNK         0.5000 
     83 O          -2.6660  -27.5516  -50.5573 O.2       14 UNK        -0.5000 
     84 N          -2.0247  -25.4882  -49.8538 N.am      15 UNK        -0.5000 
     85 CA         -2.5869  -24.6864  -50.9365 C.3       15 UNK         0.1400 
     86 CB         -1.6058  -23.5370  -51.2490 C.3       15 UNK        -0.1800 
     87 C          -4.0061  -24.2193  -50.5466 C.2       15 UNK         0.5000 
     88 O          -4.8418  -25.0515  -50.1884 O.2       15 UNK        -0.5000 
     89 N          -4.2603  -22.9087  -50.6171 N.am      16 UNK        -0.5000 
     90 CA         -5.4943  -22.2679  -50.1676 C.3       16 UNK         0.1400 
     91 CB         -6.5487  -22.2988  -51.2845 C.3       16 UNK        -0.1800 
     92 C          -5.2041  -20.8295  -49.7228 C.2       16 UNK         0.5000 
     93 O          -5.6700  -20.4110  -48.6640 O.2       16 UNK        -0.5000 
     94 N          -4.4285  -20.1057  -50.5425 N.am      17 UNK        -0.5000 
     95 CA         -3.8779  -18.7566  -50.3721 C.3       17 UNK         0.1400 
     96 CB         -2.9321  -18.7031  -49.1610 C.3       17 UNK        -0.1800 
     97 C          -4.9020  -17.6038  -50.3327 C.2       17 UNK         0.5000 
     98 O          -4.6027  -16.5234  -50.8401 O.2       17 UNK        -0.5000 
     99 N          -6.0724  -17.8348  -49.7279 N.am      18 UNK        -0.5000 
    100 CA        -7.1137  -16.8376  -49.4881 C.3       18 UNK         0.1400 
    101 CB        -8.1547  -17.4167  -48.5173 C.3       18 UNK        -0.1800 
    102 C         -7.7872  -16.3156  -50.7694 C.2       18 UNK         0.5000 
    103 O         -7.8972  -15.1002  -50.9387 O.2       18 UNK        -0.5000 
    104 N         -8.2418  -17.2323  -51.6344 N.am      19 UNK        -0.5000 
    105 CA        -9.0294  -16.9113  -52.8295 C.3       19 UNK         0.1400 
    106 CB       -10.4739  -16.5384  -52.4275 C.3       19 UNK        -0.1800 
    107 C         -8.9879  -18.0427  -53.8747 C.2       19 UNK         0.5000 
    108 O         -9.9520  -18.2183  -54.6224 O.2       19 UNK        -0.5000 
    109 N         -7.8847  -18.7986  -53.9168 N.am      20 UNK        -0.5000 
    110 CA        -7.6625  -19.8914  -54.8620 C.3       20 UNK         0.1400 
    111 CB        -8.4452  -21.1540  -54.4346 C.3       20 UNK        -0.1800 
    112 C         -6.1486  -20.0930  -55.0420 C.2       20 UNK         0.5000 
    113 O         -5.4377  -19.1049  -55.2408 O.2       20 UNK        -0.5000 
    114 N         -5.6793  -21.3476  -54.9783 N.am      21 UNK        -0.5000 
    115 CA        -4.2818  -21.7626  -55.1278 C.3       21 UNK         0.1400 
    116 CB        -4.1797  -23.2721  -54.8563 C.3       21 UNK        -0.1800 
    117 C         -3.3338  -20.9915  -54.1934 C.2       21 UNK         0.5000 
    118 O         -3.5383  -21.0166  -52.9784 O.2       21 UNK        -0.5000 
    119 N         -2.3357  -20.3174  -54.7769 N.am      22 UNK        -0.5000 
    120 CA        -1.3811  -19.4251  -54.0938 C.3       22 UNK         0.1400 
    121 C         -1.9701  -18.0395  -53.6761 C.2       22 UNK         0.5000 
    122 N         -3.2077  -17.7002  -54.0168 N.am      22 UNK        -0.7600 
    123 O         -1.2880  -17.2356  -53.0497 O.2       22 UNK        -0.5000 
    124 C124       -0.6297  -20.1479  -52.9382 C.3       23 UNK        -0.0398 
    125 S125        1.0678  -19.5458  -52.6449 S.3       23 UNK        -0.2404 
    126 C126        0.9000  -18.8644  -50.9656 C.3       23 UNK        -0.0205 
    127 H127        0.9876  -15.3981  -52.7371 H         1 UNK         0.0600 
    128 H128        2.6468  -15.9860  -52.5784 H         1 UNK         0.0600 
    129 H129        2.2039  -14.9622  -53.9417 H         1 UNK         0.0600 
    130 H130        3.2561  -14.9982  -50.6293 H         1 UNK         0.3000 
    131 H131        3.9719  -12.2672  -50.5339 H         1 UNK         0.0600 
    132 H132        5.3570  -13.6910  -49.2787 H         1 UNK         0.0800 
    133 H133        4.4882  -12.8073  -48.0717 H         1 UNK         0.0800 
    134 H134        5.7491  -16.5075  -48.4367 H         1 UNK         0.0800 
    135 H135        5.1258  -15.9413  -49.9651 H         1 UNK         0.0800 
    136 H136        2.4492  -16.7241  -50.2852 H         1 UNK         0.1150 
    137 H137        2.2959  -20.9796  -50.0530 H         1 UNK         0.1150 
    138 H138        5.5366  -18.8622  -48.2060 H         1 UNK         0.1150 
    139 H139        4.4021  -22.1631  -49.3337 H         1 UNK         0.0800 
    140 H140        5.6397  -21.2983  -48.4635 H         1 UNK         0.0800 
    141 H141        2.0598  -22.4859  -48.4875 H         1 UNK         0.0800 
    142 H142        1.6141  -21.1927  -47.3901 H         1 UNK         0.0800 
    143 H143        1.7856  -24.1913  -46.7772 H         1 UNK         0.0600 
    144 H144        1.5861  -21.9710  -44.9049 H         1 UNK         0.3000 
    145 H145        0.1232  -23.0091  -42.4971 H         1 UNK         0.0600 
    146 H146        1.6200  -23.9480  -40.7152 H         1 UNK         0.0600 
    147 H147        0.9105  -25.1943  -41.7278 H         1 UNK         0.0600 
    148 H148        2.5905  -24.7377  -41.9587 H         1 UNK         0.0600 
    149 H149        1.3680  -21.2181  -42.3732 H         1 UNK         0.3000 
    150 H150        4.6318  -20.4481  -41.9128 H         1 UNK         0.0600 
    151 H151        5.0586  -20.5586  -44.3710 H         1 UNK         0.0600 
    152 H152        4.7369  -18.9080  -43.8643 H         1 UNK         0.0600 
    153 H153        3.4865  -19.8353  -44.6896 H         1 UNK         0.0600 
    154 H154        2.4113  -18.8093  -42.7594 H         1 UNK         0.3000 
    155 H155        0.7543  -18.7440  -39.6004 H         1 UNK         0.0600 
    156 H156        2.5014  -16.9658  -39.4723 H         1 UNK         0.0600 
    157 H157        0.9597  -16.3062  -39.9974 H         1 UNK         0.0600 
    158 H158        2.2483  -16.5760  -41.1689 H         1 UNK         0.0600 
    159 H159        0.0928  -17.5011  -42.0572 H         1 UNK         0.3000 
    160 H160       -1.7401  -20.2613  -43.4675 H         1 UNK         0.0600 
    161 H161       -2.5479  -17.5005  -42.4204 H         1 UNK         0.0600 
    162 H162       -3.2579  -19.0307  -41.9229 H         1 UNK         0.0600 
    163 H163       -3.4458  -18.4774  -43.5798 H         1 UNK         0.0600 
    164 H164       -1.1506  -17.6506  -44.4810 H         1 UNK         0.3000 
    165 H165        1.8542  -18.5786  -46.2187 H         1 UNK         0.0600 
    166 H166        0.5446  -17.6090  -48.1025 H         1 UNK         0.0600 
    167 H167       -0.0088  -19.2379  -47.7348 H         1 UNK         0.0600 
    168 H168       -0.9499  -17.8471  -47.2037 H         1 UNK         0.0600 
    169 H169        0.4778  -16.1070  -46.1039 H         1 UNK         0.3000 
    170 H170        1.9497  -14.8753  -43.0592 H         1 UNK         0.0600 
    171 H171        3.5026  -14.3821  -44.9654 H         1 UNK         0.0600 
    172 H172        2.1198  -14.0145  -45.9884 H         1 UNK         0.0600 
    173 H173        2.4672  -13.0159  -44.5790 H         1 UNK         0.0600 
    174 H174       -0.0498  -13.8737  -44.8844 H         1 UNK         0.3000 
    175 H175       -2.8717  -15.0436  -43.0534 H         1 UNK         0.0600 
    176 H176       -2.1253  -13.0103  -41.8084 H         1 UNK         0.0600 
    177 H177       -1.6847  -12.2277  -43.3216 H         1 UNK         0.0600 
    178 H178       -3.3713  -12.6166  -42.9817 H         1 UNK         0.0600 
    179 H179       -2.5841  -13.3436  -45.3422 H         1 UNK         0.3000 
    180 H180       -2.5992  -15.9188  -47.8055 H         1 UNK         0.0600 
    181 H181       -4.9882  -15.5901  -47.1753 H         1 UNK         0.0600 
    182 H182       -4.7208  -13.8590  -47.0019 H         1 UNK         0.0600 
    183 H183       -4.5593  -14.6280  -48.5816 H         1 UNK         0.0600 
    184 H184       -2.5773  -13.0857  -48.0400 H         1 UNK         0.3000 
    185 H185       -0.6342  -12.2059  -49.0783 H         1 UNK         0.0600 
    186 H186       -0.8568  -11.4445  -46.6453 H         1 UNK         0.0600 
    187 H187        0.7676  -12.0395  -46.3319 H         1 UNK         0.0600 
    188 H188        0.5096  -10.7008  -47.4442 H         1 UNK         0.0600 
    189 H189        1.4298  -14.0476  -48.7280 H         1 UNK         0.3000 
    190 H190       -0.6249  -21.7686  -45.8116 H         1 UNK         0.3000 
    191 H191       -2.4647  -22.1124  -47.9359 H         1 UNK         0.0600 
    192 H192       -3.0387  -21.2132  -45.0674 H         1 UNK         0.0600 
    193 H193       -4.0150  -20.8723  -46.4844 H         1 UNK         0.0600 
    194 H194       -2.4167  -20.1619  -46.3439 H         1 UNK         0.0600 
    195 H195       -1.8313  -24.2180  -45.2562 H         1 UNK         0.3000 
    196 H196       -4.3746  -25.6317  -45.2691 H         1 UNK         0.0600 
    197 H197       -3.1443  -27.2292  -43.8100 H         1 UNK         0.0600 
    198 H198       -2.9164  -25.5792  -43.2516 H         1 UNK         0.0600 
    199 H199       -1.6291  -26.3977  -44.1368 H         1 UNK         0.0600 
    200 H200       -1.3417  -25.8045  -47.0780 H         1 UNK         0.3000 
    201 H201       -2.0045  -28.4212  -48.3052 H         1 UNK         0.0600 
    202 H202        0.3413  -28.0252  -47.5930 H         1 UNK         0.0600 
    203 H203        0.4367  -26.5922  -48.6141 H         1 UNK         0.0600 
    204 H204        0.2384  -28.1819  -49.3401 H         1 UNK         0.0600 
    205 H205       -1.5483  -24.9717  -49.1188 H         1 UNK         0.3000 
    206 H206       -2.6836  -25.2972  -51.8363 H         1 UNK         0.0600 
    207 H207       -0.6156  -23.9260  -51.4870 H         1 UNK         0.0600 
    208 H208       -1.9343  -22.9648  -52.1159 H         1 UNK         0.0600 
    209 H209       -1.4926  -22.8510  -50.4082 H         1 UNK         0.0600 
    210 H210       -3.5343  -22.2871  -50.9460 H         1 UNK         0.3000 
    211 H211       -5.8838  -22.8032  -49.2987 H         1 UNK         0.0600 
    212 H212       -7.4618  -21.7880  -50.9765 H         1 UNK         0.0600 
    213 H213       -6.8189  -23.3218  -51.5459 H         1 UNK         0.0600 
    214 H214       -6.1805  -21.8098  -52.1859 H         1 UNK         0.0600 
    215 H215       -4.1772  -20.5240  -51.4389 H         1 UNK         0.3000 
    216 H216       -3.2679  -18.5917  -51.2578 H         1 UNK         0.0600 
    217 H217       -2.3551  -17.7789  -49.1740 H         1 UNK         0.0600 
    218 H218       -2.2200  -19.5281  -49.1761 H         1 UNK         0.0600 
    219 H219       -3.4760  -18.7430  -48.2166 H         1 UNK         0.0600 
    220 H220       -6.1941  -18.7474  -49.2964 H         1 UNK         0.3000 
    221 H221       -6.6457  -15.9819  -48.9988 H         1 UNK         0.0600 
    222 H222       -8.6263  -18.3149  -48.9176 H         1 UNK         0.0600 
    223 H223       -7.6982  -17.6771  -47.5621 H         1 UNK         0.0600 
    224 H224       -8.9448  -16.6929  -48.3128 H         1 UNK         0.0600 
    225 H225       -8.1213  -18.2128  -51.4226 H         1 UNK         0.3000 
    226 H226       -8.5782  -16.0452  -53.3180 H         1 UNK         0.0600 
    227 H227      -10.4955  -15.6917  -51.7417 H         1 UNK         0.0600 
    228 H228      -11.0670  -16.2531  -53.2972 H         1 UNK         0.0600 
    229 H229      -10.9795  -17.3740  -51.9423 H         1 UNK         0.0600 
    230 H230       -7.0875  -18.5439  -53.3501 H         1 UNK         0.3000 
    231 H231       -8.0323  -19.5833  -55.8423 H         1 UNK         0.0600 
    232 H232       -9.5170  -20.9582  -54.4037 H         1 UNK         0.0600 
    233 H233       -8.1518  -21.4999  -53.4454 H         1 UNK         0.0600 
    234 H234       -8.3013  -21.9741  -55.1389 H         1 UNK         0.0600 
    235 H235       -6.3397  -22.0885  -54.7966 H         1 UNK         0.3000 
    236 H236       -3.9913  -21.5766  -56.1635 H         1 UNK         0.0600 
    237 H237       -3.1512  -23.6202  -54.9614 H         1 UNK         0.0600 
    238 H238       -4.5084  -23.5223  -53.8464 H         1 UNK         0.0600 
    239 H239       -4.7881  -23.8425  -55.5582 H         1 UNK         0.0600 
    240 H240       -2.2603  -20.3373  -55.7840 H         1 UNK         0.3000 
    241 H241       -0.6450  -19.1879  -54.8626 H         1 UNK         0.0600 
    242 H242       -3.8185  -18.3254  -54.5337 H         1 UNK         0.3800 
    243 H243       -3.5529  -16.7972  -53.7346 H         1 UNK         0.3800 
    244 H244       -1.2178  -20.1192  -52.0203 H         1 UNK         0.0800 
    245 H245       -0.5225  -21.2063  -53.1782 H         1 UNK         0.0800 
    246 H246        0.4746  -17.8613  -51.0239 H         1 UNK         0.0800 
    247 H247        0.1986  -19.4628  -50.3831 H         1 UNK         0.0800 
@<TRIPOS>BOND
     1    1    2 1    
     2    1  127 1    
     3    1  128 1    
     4    1  129 1    
     5    2    3 2    
     6    2    4 am   BACKBONE|DICT|INTERRES
     7    4    5 1    
     8    4  130 1    
     9    5    6 1    
    10    5   65 1    
    11    5  131 1    
    12    6    7 1    
    13    6  132 1    
    14    6  133 1    
    15    7    8 1    
    16    8    9 1    
    17    8  134 1    
    18    8  135 1    
    19    9   10 ar   
    20    9   14 ar   
    21   10   11 ar   
    22   10  136 1    
    23   11   12 ar   
    24   11  126 1    
    25   12   13 ar   
    26   12  137 1    
    27   13   14 ar   
    28   13   15 1    
    29   14  138 1    
    30   15   16 1    
    31   15  139 1    
    32   15  140 1    
    33   16   17 1    
    34   17   18 1    
    35   17  141 1    
    36   17  142 1    
    37   18   19 1    
    38   18   67 1    
    39   18  143 1    
    40   19   20 am   BACKBONE|DICT|INTERRES
    41   19  144 1    
    42   20   21 2    
    43   20   22 1    
    44   22   23 1    
    45   22   24 1    
    46   22  145 1    
    47   23  146 1    
    48   23  147 1    
    49   23  148 1    
    50   24   25 am   BACKBONE|DICT|INTERRES
    51   24  149 1    
    52   25   26 2    
    53   25   27 1    
    54   27   28 1    
    55   27   29 1    
    56   27  150 1    
    57   28  151 1    
    58   28  152 1    
    59   28  153 1    
    60   29   30 am   BACKBONE|DICT|INTERRES
    61   29  154 1    
    62   30   31 2    
    63   30   32 1    
    64   32   33 1    
    65   32   34 1    
    66   32  155 1    
    67   33  156 1    
    68   33  157 1    
    69   33  158 1    
    70   34   35 am   BACKBONE|DICT|INTERRES
    71   34  159 1    
    72   35   36 2    
    73   35   37 1    
    74   37   38 1    
    75   37   39 1    
    76   37  160 1    
    77   38  161 1    
    78   38  162 1    
    79   38  163 1    
    80   39   40 am   BACKBONE|DICT|INTERRES
    81   39  164 1    
    82   40   41 2    
    83   40   42 1    
    84   42   43 1    
    85   42   44 1    
    86   42  165 1    
    87   43  166 1    
    88   43  167 1    
    89   43  168 1    
    90   44   45 am   BACKBONE|DICT|INTERRES
    91   44  169 1    
    92   45   46 2    
    93   45   47 1    
    94   47   48 1    
    95   47   49 1    
    96   47  170 1    
    97   48  171 1    
    98   48  172 1    
    99   48  173 1    
   100   49   50 am   BACKBONE|DICT|INTERRES
   101   49  174 1    
   102   50   51 2    
   103   50   52 1    
   104   52   53 1    
   105   52   54 1    
   106   52  175 1    
   107   53  176 1    
   108   53  177 1    
   109   53  178 1    
   110   54   55 am   BACKBONE|DICT|INTERRES
   111   54  179 1    
   112   55   56 2    
   113   55   57 1    
   114   57   58 1    
   115   57   59 1    
   116   57  180 1    
   117   58  181 1    
   118   58  182 1    
   119   58  183 1    
   120   59   60 am   BACKBONE|DICT|INTERRES
   121   59  184 1    
   122   60   61 2    
   123   60   62 1    
   124   62   63 1    
   125   62   64 1    
   126   62  185 1    
   127   63  186 1    
   128   63  187 1    
   129   63  188 1    
   130   64   65 am   BACKBONE|DICT|INTERRES
   131   64  189 1    
   132   65   66 2    
   133   67   68 2    
   134   67   69 am   BACKBONE|DICT|INTERRES
   135   69   70 1    
   136   69  190 1    
   137   70   71 1    
   138   70   72 1    
   139   70  191 1    
   140   71  192 1    
   141   71  193 1    
   142   71  194 1    
   143   72   73 2    
   144   72   74 am   BACKBONE|DICT|INTERRES
   145   74   75 1    
   146   74  195 1    
   147   75   76 1    
   148   75   77 1    
   149   75  196 1    
   150   76  197 1    
   151   76  198 1    
   152   76  199 1    
   153   77   78 2    
   154   77   79 am   BACKBONE|DICT|INTERRES
   155   79   80 1    
   156   79  200 1    
   157   80   81 1    
   158   80   82 1    
   159   80  201 1    
   160   81  202 1    
   161   81  203 1    
   162   81  204 1    
   163   82   83 2    
   164   82   84 am   BACKBONE|DICT|INTERRES
   165   84   85 1    
   166   84  205 1    
   167   85   86 1    
   168   85   87 1    
   169   85  206 1    
   170   86  207 1    
   171   86  208 1    
   172   86  209 1    
   173   87   88 2    
   174   87   89 am   BACKBONE|DICT|INTERRES
   175   89   90 1    
   176   89  210 1    
   177   90   91 1    
   178   90   92 1    
   179   90  211 1    
   180   91  212 1    
   181   91  213 1    
   182   91  214 1    
   183   92   93 2    
   184   92   94 am   BACKBONE|DICT|INTERRES
   185   94   95 1    
   186   94  215 1    
   187   95   96 1    
   188   95   97 1    
   189   95  216 1    
   190   96  217 1    
   191   96  218 1    
   192   96  219 1    
   193   97   98 2    
   194   97   99 am   BACKBONE|DICT|INTERRES
   195   99  100 1    
   196   99  220 1    
   197  100  101 1    
   198  100  102 1    
   199  100  221 1    
   200  101  222 1    
   201  101  223 1    
   202  101  224 1    
   203  102  103 2    
   204  102  104 am   BACKBONE|DICT|INTERRES
   205  104  105 1    
   206  104  225 1    
   207  105  106 1    
   208  105  107 1    
   209  105  226 1    
   210  106  227 1    
   211  106  228 1    
   212  106  229 1    
   213  107  108 2    
   214  107  109 am   BACKBONE|DICT|INTERRES
   215  109  110 1    
   216  109  230 1    
   217  110  111 1    
   218  110  112 1    
   219  110  231 1    
   220  111  232 1    
   221  111  233 1    
   222  111  234 1    
   223  112  113 2    
   224  112  114 am   BACKBONE|DICT|INTERRES
   225  114  115 1    
   226  114  235 1    
   227  115  116 1    
   228  115  117 1    
   229  115  236 1    
   230  116  237 1    
   231  116  238 1    
   232  116  239 1    
   233  117  118 2    
   234  117  119 am   BACKBONE|DICT|INTERRES
   235  119  120 1    
   236  119  240 1    
   237  120  121 1    
   238  120  124 1    
   239  120  241 1    
   240  121  122 am   BACKBONE|DICT|INTERRES
   241  121  123 2    
   242  122  242 1    
   243  122  243 1    
   244  124  125 1    
   245  124  244 1    
   246  124  245 1    
   247  125  126 1    
   248  126  246 1    
   249  126  247 1    
@<TRIPOS>SUBSTRUCTURE
     1 UNK         1 GROUP             0       ****    0 ROOT    
