@<TRIPOS>MOLECULE
3R540
247   249    1
SMALL
USER_CHARGES


@<TRIPOS>ATOM
      1 CA          1.1828  -11.1005  -46.0997 C.3       0 UNK        -0.1800 
      2 C           1.3983  -11.9408  -47.3503 C.2       0 UNK         0.5000 
      3 O           2.4374  -11.8218  -47.9995 O.2       0 UNK        -0.5000 
      4 N           0.4176  -12.7879  -47.6868 N.am      1 UNK        -0.5000 
      5 CA          0.4606  -13.7264  -48.8161 C.3       1 UNK         0.1400 
      6 C6         -0.9264  -14.3395  -49.1251 C.3       23 UNK        -0.0398 
      7 S7         -2.1902  -13.0707  -49.4829 S.3       23 UNK        -0.2404 
      8 C8         -3.6319  -13.7201  -48.5806 C.3       23 UNK        -0.0205 
      9 C9         -4.1969  -14.9623  -49.2527 C.ar      23 UNK        -0.0193 
     10 C10        -5.0289  -14.8377  -50.3692 C.ar      23 UNK        -0.1150 
     11 C11        -5.5354  -15.9729  -51.0094 C.ar      23 UNK        -0.0193 
     12 C12        -5.2243  -17.2395  -50.5078 C.ar      23 UNK        -0.1150 
     13 C13        -4.3716  -17.3759  -49.4100 C.ar      23 UNK        -0.0193 
     14 C14        -3.8722  -16.2353  -48.7767 C.ar      23 UNK        -0.1150 
     15 C15        -3.9439  -18.7560  -48.9500 C.3       23 UNK        -0.0205 
     16 S16        -2.3209  -19.1759  -49.6631 S.3       23 UNK        -0.2404 
     17 C17        -1.2576  -19.1480  -48.1820 C.3       23 UNK        -0.0398 
     18 CA         -0.8706  -20.5641  -47.6893 C.3       11 UNK         0.1400 
     19 N           0.1439  -20.5023  -46.6372 N.am      11 UNK        -0.5000 
     20 C           0.8766  -21.5413  -46.2148 C.2       10 UNK         0.5000 
     21 O           0.8081  -22.6690  -46.7002 O.2       10 UNK        -0.5000 
     22 CA          1.8169  -21.2824  -45.0231 C.3       10 UNK         0.1400 
     23 CB          3.2159  -20.8803  -45.5135 C.3       10 UNK        -0.1800 
     24 N           1.2949  -20.2662  -44.1024 N.am      10 UNK        -0.5000 
     25 C           0.2308  -20.4693  -43.3127 C.2       9 UNK         0.5000 
     26 O          -0.4201  -21.5149  -43.3017 O.2       9 UNK        -0.5000 
     27 CA         -0.1985  -19.2971  -42.4110 C.3       9 UNK         0.1400 
     28 CB          0.7972  -19.1194  -41.2545 C.3       9 UNK        -0.1800 
     29 N          -0.3996  -18.0173  -43.1085 N.am      9 UNK        -0.5000 
     30 C          -1.2249  -17.8353  -44.1530 C.2       8 UNK         0.5000 
     31 O          -1.7813  -18.7621  -44.7390 O.2       8 UNK        -0.5000 
     32 CA         -1.4874  -16.3976  -44.6414 C.3       8 UNK         0.1400 
     33 CB         -2.9813  -16.1708  -44.9347 C.3       8 UNK        -0.1800 
     34 N          -1.0429  -15.3852  -43.6822 N.am      8 UNK        -0.5000 
     35 C          -0.1876  -14.3943  -43.9579 C.2       7 UNK         0.5000 
     36 O           0.3803  -14.2581  -45.0408 O.2       7 UNK        -0.5000 
     37 CA          0.1278  -13.4016  -42.8248 C.3       7 UNK         0.1400 
     38 CB         -0.8953  -12.2567  -42.8244 C.3       7 UNK        -0.1800 
     39 N           0.1911  -13.9917  -41.4847 N.am      7 UNK        -0.5000 
     40 C           0.9478  -15.0350  -41.1241 C.2       6 UNK         0.5000 
     41 O           1.6250  -15.7046  -41.9165 O.2       6 UNK        -0.5000 
     42 CA          0.9265  -15.4009  -39.6317 C.3       6 UNK         0.1400 
     43 CB         -0.4524  -15.9190  -39.1848 C.3       6 UNK        -0.1800 
     44 N           1.9408  -16.4228  -39.4394 N.am      6 UNK        -0.5000 
     45 C           2.6803  -16.6413  -38.3501 C.2       5 UNK         0.5000 
     46 O           2.4737  -16.1138  -37.2567 O.2       5 UNK        -0.5000 
     47 CA          3.8818  -17.5930  -38.5372 C.3       5 UNK         0.1400 
     48 CB          3.5154  -19.0142  -38.0827 C.3       5 UNK        -0.1800 
     49 N           4.3652  -17.6461  -39.9248 N.am      5 UNK        -0.5000 
     50 C           4.9178  -16.6175  -40.5866 C.2       4 UNK         0.5000 
     51 O           5.1563  -15.5281  -40.0620 O.2       4 UNK        -0.5000 
     52 CA          5.2332  -16.8151  -42.0819 C.3       4 UNK         0.1400 
     53 CB          4.8457  -18.2001  -42.6412 C.3       4 UNK        -0.1800 
     54 N           4.5286  -15.7938  -42.8532 N.am      4 UNK        -0.5000 
     55 C           5.0902  -14.7030  -43.3900 C.2       3 UNK         0.5000 
     56 O           6.2844  -14.4176  -43.2759 O.2       3 UNK        -0.5000 
     57 CA          4.1493  -13.8083  -44.2297 C.3       3 UNK         0.1400 
     58 CB          4.8907  -12.6835  -44.9815 C.3       3 UNK        -0.1800 
     59 N           3.3185  -14.5839  -45.1605 N.am      3 UNK        -0.5000 
     60 C           3.7445  -15.4473  -46.0989 C.2       2 UNK         0.5000 
     61 O           4.9265  -15.6630  -46.3672 O.2       2 UNK        -0.5000 
     62 CA          2.6511  -16.2110  -46.8580 C.3       2 UNK         0.1400 
     63 CB          2.0125  -17.2602  -45.9349 C.3       2 UNK        -0.1800 
     64 N           1.6237  -15.2872  -47.3274 N.am      2 UNK        -0.5000 
     65 C           1.4980  -14.8460  -48.5854 C.2       1 UNK         0.5000 
     66 O           2.1625  -15.2662  -49.5335 O.2       1 UNK        -0.5000 
     67 C          -2.0872  -21.3928  -47.2254 C.2       11 UNK         0.5000 
     68 O          -2.5476  -22.2632  -47.9646 O.2       11 UNK        -0.5000 
     69 N          -2.5528  -21.1427  -45.9941 N.am      12 UNK        -0.5000 
     70 CA         -3.6268  -21.8855  -45.3379 C.3       12 UNK         0.1400 
     71 CB         -4.0000  -21.1912  -44.0198 C.3       12 UNK        -0.1800 
     72 C          -3.2600  -23.3611  -45.1028 C.2       12 UNK         0.5000 
     73 O          -4.0806  -24.2364  -45.3783 O.2       12 UNK        -0.5000 
     74 N          -2.0198  -23.6161  -44.6592 N.am      13 UNK        -0.5000 
     75 CA         -1.4592  -24.9589  -44.4791 C.3       13 UNK         0.1400 
     76 CB         -0.0870  -24.8540  -43.7977 C.3       13 UNK        -0.1800 
     77 C          -1.3526  -25.7539  -45.7962 C.2       13 UNK         0.5000 
     78 O          -1.5887  -26.9622  -45.7985 O.2       13 UNK        -0.5000 
     79 N          -1.0386  -25.0558  -46.8954 N.am      14 UNK        -0.5000 
     80 CA         -1.0002  -25.5951  -48.2558 C.3       14 UNK         0.1400 
     81 CB         -0.0671  -24.7169  -49.1065 C.3       14 UNK        -0.1800 
     82 C          -2.3892  -25.6956  -48.9203 C.2       14 UNK         0.5000 
     83 O          -2.4658  -26.1534  -50.0610 O.2       14 UNK        -0.5000 
     84 N          -3.4493  -25.2305  -48.2392 N.am      15 UNK        -0.5000 
     85 CA         -4.8375  -25.1356  -48.7088 C.3       15 UNK         0.1400 
     86 CB         -5.4587  -26.5408  -48.8468 C.3       15 UNK        -0.1800 
     87 C          -4.9698  -24.2905  -49.9943 C.2       15 UNK         0.5000 
     88 O          -5.6913  -24.6693  -50.9192 O.2       15 UNK        -0.5000 
     89 N          -4.2063  -23.1883  -50.0518 N.am      16 UNK        -0.5000 
     90 CA         -4.0415  -22.2737  -51.1877 C.3       16 UNK         0.1400 
     91 CB         -5.3446  -21.4922  -51.4468 C.3       16 UNK        -0.1800 
     92 C          -3.4992  -22.9615  -52.4599 C.2       16 UNK         0.5000 
     93 O          -3.7700  -22.4990  -53.5706 O.2       16 UNK        -0.5000 
     94 N          -2.7723  -24.0746  -52.2705 N.am      17 UNK        -0.5000 
     95 CA         -2.2650  -24.9990  -53.2888 C.3       17 UNK         0.1400 
     96 CB         -1.2439  -24.2979  -54.2094 C.3       17 UNK        -0.1800 
     97 C          -3.3870  -25.7104  -54.0783 C.2       17 UNK         0.5000 
     98 O          -3.1469  -26.1548  -55.2017 O.2       17 UNK        -0.5000 
     99 N          -4.5990  -25.7787  -53.5003 N.am      18 UNK        -0.5000 
    100 CA        -5.8614  -26.3229  -54.0266 C.3       18 UNK         0.1400 
    101 CB        -5.7368  -27.8261  -54.3400 C.3       18 UNK        -0.1800 
    102 C         -6.4508  -25.5494  -55.2268 C.2       18 UNK         0.5000 
    103 O         -7.6714  -25.4111  -55.3186 O.2       18 UNK        -0.5000 
    104 N         -5.5847  -25.0422  -56.1106 N.am      19 UNK        -0.5000 
    105 CA        -5.9118  -24.2579  -57.3016 C.3       19 UNK         0.1400 
    106 CB        -4.7124  -24.3289  -58.2618 C.3       19 UNK        -0.1800 
    107 C         -6.2761  -22.7873  -57.0059 C.2       19 UNK         0.5000 
    108 O         -6.6781  -22.0820  -57.9326 O.2       19 UNK        -0.5000 
    109 N         -6.1131  -22.3503  -55.7471 N.am      20 UNK        -0.5000 
    110 CA        -6.2583  -20.9768  -55.2533 C.3       20 UNK         0.1400 
    111 CB        -7.6897  -20.4346  -55.4565 C.3       20 UNK        -0.1800 
    112 C         -5.1594  -20.0687  -55.8365 C.2       20 UNK         0.5000 
    113 O         -5.4482  -19.1010  -56.5438 O.2       20 UNK        -0.5000 
    114 N         -3.9037  -20.4417  -55.5515 N.am      21 UNK        -0.5000 
    115 CA        -2.6983  -19.7477  -56.0081 C.3       21 UNK         0.1400 
    116 CB        -1.4729  -20.6390  -55.7444 C.3       21 UNK        -0.1800 
    117 C         -2.5175  -18.3635  -55.3567 C.2       21 UNK         0.5000 
    118 O         -2.0676  -17.4352  -56.0295 O.2       21 UNK        -0.5000 
    119 N         -2.8857  -18.2548  -54.0711 N.am      22 UNK        -0.5000 
    120 CA        -2.8852  -17.0151  -53.2682 C.3       22 UNK         0.1400 
    121 C         -1.4774  -16.3797  -53.0413 C.2       22 UNK         0.5000 
    122 N         -0.3961  -17.1509  -53.1010 N.am      22 UNK        -0.7600 
    123 O         -1.3546  -15.1830  -52.7881 O.2       22 UNK        -0.5000 
    124 C124       -3.9519  -15.9870  -53.7535 C.3       23 UNK        -0.0398 
    125 S125       -5.6488  -16.6734  -53.7120 S.3       23 UNK        -0.2404 
    126 C126       -6.3829  -15.8303  -52.2669 C.3       23 UNK        -0.0205 
    127 H127        0.1239  -11.0287  -45.8467 H         1 UNK         0.0600 
    128 H128        1.5635  -10.0885  -46.2503 H         1 UNK         0.0600 
    129 H129        1.7106  -11.5450  -45.2544 H         1 UNK         0.0600 
    130 H130       -0.4034  -12.8450  -47.1016 H         1 UNK         0.3000 
    131 H131        0.7820  -13.1666  -49.6973 H         1 UNK         0.0600 
    132 H132       -1.2559  -14.9556  -48.2874 H         1 UNK         0.0800 
    133 H133       -0.8696  -15.0037  -49.9899 H         1 UNK         0.0800 
    134 H134       -4.4010  -12.9472  -48.5436 H         1 UNK         0.0800 
    135 H135       -3.3596  -13.9264  -47.5447 H         1 UNK         0.0800 
    136 H136       -5.2606  -13.8536  -50.7521 H         1 UNK         0.1150 
    137 H137       -5.6016  -18.1197  -51.0096 H         1 UNK         0.1150 
    138 H138       -3.2067  -16.3420  -47.9333 H         1 UNK         0.1150 
    139 H139       -3.9292  -18.8016  -47.8603 H         1 UNK         0.0800 
    140 H140       -4.6713  -19.5027  -49.2668 H         1 UNK         0.0800 
    141 H141       -1.7241  -18.5639  -47.3885 H         1 UNK         0.0800 
    142 H142       -0.3539  -18.6009  -48.4544 H         1 UNK         0.0800 
    143 H143       -0.4255  -21.0953  -48.5338 H         1 UNK         0.0600 
    144 H144        0.2134  -19.6365  -46.1258 H         1 UNK         0.3000 
    145 H145        1.9158  -22.2173  -44.4676 H         1 UNK         0.0600 
    146 H146        3.8725  -20.6212  -44.6826 H         1 UNK         0.0600 
    147 H147        3.6841  -21.7065  -46.0500 H         1 UNK         0.0600 
    148 H148        3.1823  -20.0348  -46.1995 H         1 UNK         0.0600 
    149 H149        1.7802  -19.3839  -44.0560 H         1 UNK         0.3000 
    150 H150       -1.1606  -19.5771  -41.9768 H         1 UNK         0.0600 
    151 H151        1.0726  -20.0798  -40.8162 H         1 UNK         0.0600 
    152 H152        0.3639  -18.5247  -40.4539 H         1 UNK         0.0600 
    153 H153        1.7138  -18.6316  -41.5811 H         1 UNK         0.0600 
    154 H154        0.0741  -17.2110  -42.7239 H         1 UNK         0.3000 
    155 H155       -0.9460  -16.2997  -45.5842 H         1 UNK         0.0600 
    156 H156       -3.5841  -16.2613  -44.0304 H         1 UNK         0.0600 
    157 H157       -3.3643  -16.8950  -45.6544 H         1 UNK         0.0600 
    158 H158       -3.1527  -15.1786  -45.3518 H         1 UNK         0.0600 
    159 H159       -1.4513  -15.4265  -42.7592 H         1 UNK         0.3000 
    160 H160        1.1096  -12.9751  -43.0362 H         1 UNK         0.0600 
    161 H161       -1.8919  -12.6078  -42.5537 H         1 UNK         0.0600 
    162 H162       -0.9689  -11.7930  -43.8086 H         1 UNK         0.0600 
    163 H163       -0.6119  -11.4743  -42.1201 H         1 UNK         0.0600 
    164 H164       -0.3411  -13.5157  -40.7704 H         1 UNK         0.3000 
    165 H165        1.1950  -14.5135  -39.0550 H         1 UNK         0.0600 
    166 H166       -0.4166  -16.3171  -38.1706 H         1 UNK         0.0600 
    167 H167       -1.1896  -15.1157  -39.1876 H         1 UNK         0.0600 
    168 H168       -0.8290  -16.7040  -39.8399 H         1 UNK         0.0600 
    169 H169        2.2376  -16.8468  -40.3084 H         1 UNK         0.3000 
    170 H170        4.6951  -17.2269  -37.9071 H         1 UNK         0.0600 
    171 H171        3.1774  -19.0171  -37.0455 H         1 UNK         0.0600 
    172 H172        2.7142  -19.4373  -38.6898 H         1 UNK         0.0600 
    173 H173        4.3743  -19.6827  -38.1448 H         1 UNK         0.0600 
    174 H174        4.2256  -18.5169  -40.4158 H         1 UNK         0.3000 
    175 H175        6.3136  -16.7038  -42.1930 H         1 UNK         0.0600 
    176 H176        3.7729  -18.3801  -42.5865 H         1 UNK         0.0600 
    177 H177        5.1340  -18.2840  -43.6895 H         1 UNK         0.0600 
    178 H178        5.3554  -19.0041  -42.1088 H         1 UNK         0.0600 
    179 H179        3.5218  -15.8933  -42.9098 H         1 UNK         0.3000 
    180 H180        3.4671  -13.3368  -43.5215 H         1 UNK         0.0600 
    181 H181        5.6252  -13.0811  -45.6826 H         1 UNK         0.0600 
    182 H182        5.4204  -12.0314  -44.2862 H         1 UNK         0.0600 
    183 H183        4.1964  -12.0608  -45.5453 H         1 UNK         0.0600 
    184 H184        2.3170  -14.4814  -45.0404 H         1 UNK         0.3000 
    185 H185        3.1167  -16.7317  -47.6976 H         1 UNK         0.0600 
    186 H186        2.7750  -17.9186  -45.5210 H         1 UNK         0.0600 
    187 H187        1.4994  -16.8003  -45.0912 H         1 UNK         0.0600 
    188 H188        1.2949  -17.8733  -46.4780 H         1 UNK         0.0600 
    189 H189        1.0614  -14.8403  -46.6064 H         1 UNK         0.3000 
    190 H190       -2.1465  -20.3768  -45.4601 H         1 UNK         0.3000 
    191 H191       -4.4986  -21.8597  -45.9951 H         1 UNK         0.0600 
    192 H192       -3.1565  -21.1543  -43.3298 H         1 UNK         0.0600 
    193 H193       -4.8142  -21.7155  -43.5180 H         1 UNK         0.0600 
    194 H194       -4.3302  -20.1671  -44.1954 H         1 UNK         0.0600 
    195 H195       -1.4229  -22.8346  -44.4044 H         1 UNK         0.3000 
    196 H196       -2.1275  -25.5096  -43.8140 H         1 UNK         0.0600 
    197 H197        0.3316  -25.8432  -43.6086 H         1 UNK         0.0600 
    198 H198       -0.1605  -24.3427  -42.8377 H         1 UNK         0.0600 
    199 H199        0.6268  -24.3084  -44.4147 H         1 UNK         0.0600 
    200 H200       -0.8018  -24.0751  -46.7975 H         1 UNK         0.3000 
    201 H201       -0.5824  -26.6033  -48.2249 H         1 UNK         0.0600 
    202 H202        0.9345  -24.6771  -48.6780 H         1 UNK         0.0600 
    203 H203       -0.4383  -23.6944  -49.1839 H         1 UNK         0.0600 
    204 H204        0.0317  -25.1083  -50.1198 H         1 UNK         0.0600 
    205 H205       -3.2845  -24.8506  -47.3152 H         1 UNK         0.3000 
    206 H206       -5.3893  -24.6019  -47.9340 H         1 UNK         0.0600 
    207 H207       -6.5226  -26.4766  -49.0777 H         1 UNK         0.0600 
    208 H208       -5.3620  -27.1059  -47.9198 H         1 UNK         0.0600 
    209 H209       -4.9859  -27.1175  -49.6423 H         1 UNK         0.0600 
    210 H210       -3.6268  -22.9686  -49.2417 H         1 UNK         0.3000 
    211 H211       -3.2758  -21.5616  -50.8861 H         1 UNK         0.0600 
    212 H212       -5.1554  -20.6246  -52.0791 H         1 UNK         0.0600 
    213 H213       -5.7813  -21.1255  -50.5186 H         1 UNK         0.0600 
    214 H214       -6.0947  -22.1117  -51.9402 H         1 UNK         0.0600 
    215 H215       -2.6560  -24.4021  -51.3189 H         1 UNK         0.3000 
    216 H216       -1.7351  -25.7836  -52.7464 H         1 UNK         0.0600 
    217 H217       -0.7250  -25.0217  -54.8388 H         1 UNK         0.0600 
    218 H218       -0.4854  -23.7696  -53.6310 H         1 UNK         0.0600 
    219 H219       -1.7246  -23.5780  -54.8722 H         1 UNK         0.0600 
    220 H220       -4.6966  -25.3506  -52.5849 H         1 UNK         0.3000 
    221 H221       -6.5805  -26.2191  -53.2123 H         1 UNK         0.0600 
    222 H222       -5.0535  -28.0161  -55.1681 H         1 UNK         0.0600 
    223 H223       -5.3770  -28.3810  -53.4730 H         1 UNK         0.0600 
    224 H224       -6.7053  -28.2461  -54.6161 H         1 UNK         0.0600 
    225 H225       -4.6020  -25.2583  -55.9622 H         1 UNK         0.3000 
    226 H226       -6.7742  -24.7152  -57.7920 H         1 UNK         0.0600 
    227 H227       -4.4778  -25.3611  -58.5243 H         1 UNK         0.0600 
    228 H228       -4.9198  -23.7977  -59.1921 H         1 UNK         0.0600 
    229 H229       -3.8188  -23.8836  -57.8205 H         1 UNK         0.0600 
    230 H230       -5.7296  -23.0070  -55.0808 H         1 UNK         0.3000 
    231 H231       -6.0874  -21.0196  -54.1790 H         1 UNK         0.0600 
    232 H232       -8.4303  -21.1058  -55.0207 H         1 UNK         0.0600 
    233 H233       -7.9371  -20.2991  -56.5096 H         1 UNK         0.0600 
    234 H234       -7.8039  -19.4641  -54.9718 H         1 UNK         0.0600 
    235 H235       -3.7673  -21.2520  -54.9496 H         1 UNK         0.3000 
    236 H236       -2.7830  -19.5969  -57.0877 H         1 UNK         0.0600 
    237 H237       -0.5509  -20.1434  -56.0554 H         1 UNK         0.0600 
    238 H238       -1.3740  -20.8876  -54.6852 H         1 UNK         0.0600 
    239 H239       -1.5421  -21.5722  -56.3041 H         1 UNK         0.0600 
    240 H240       -3.2443  -19.0769  -53.6098 H         1 UNK         0.3000 
    241 H241       -3.1760  -17.3294  -52.2675 H         1 UNK         0.0600 
    242 H242        0.5120  -16.7408  -52.9499 H         1 UNK         0.3800 
    243 H243       -0.4761  -18.1359  -53.3016 H         1 UNK         0.3800 
    244 H244       -3.9262  -15.0809  -53.1454 H         1 UNK         0.0800 
    245 H245       -3.7340  -15.6654  -54.7725 H         1 UNK         0.0800 
    246 H246       -7.3732  -16.2474  -52.0782 H         1 UNK         0.0800 
    247 H247       -6.5338  -14.7784  -52.5151 H         1 UNK         0.0800 
@<TRIPOS>BOND
     1    1    2 1    
     2    1  127 1    
     3    1  128 1    
     4    1  129 1    
     5    2    3 2    
     6    2    4 am   BACKBONE|DICT|INTERRES
     7    4    5 1    
     8    4  130 1    
     9    5    6 1    
    10    5   65 1    
    11    5  131 1    
    12    6    7 1    
    13    6  132 1    
    14    6  133 1    
    15    7    8 1    
    16    8    9 1    
    17    8  134 1    
    18    8  135 1    
    19    9   10 ar   
    20    9   14 ar   
    21   10   11 ar   
    22   10  136 1    
    23   11   12 ar   
    24   11  126 1    
    25   12   13 ar   
    26   12  137 1    
    27   13   14 ar   
    28   13   15 1    
    29   14  138 1    
    30   15   16 1    
    31   15  139 1    
    32   15  140 1    
    33   16   17 1    
    34   17   18 1    
    35   17  141 1    
    36   17  142 1    
    37   18   19 1    
    38   18   67 1    
    39   18  143 1    
    40   19   20 am   BACKBONE|DICT|INTERRES
    41   19  144 1    
    42   20   21 2    
    43   20   22 1    
    44   22   23 1    
    45   22   24 1    
    46   22  145 1    
    47   23  146 1    
    48   23  147 1    
    49   23  148 1    
    50   24   25 am   BACKBONE|DICT|INTERRES
    51   24  149 1    
    52   25   26 2    
    53   25   27 1    
    54   27   28 1    
    55   27   29 1    
    56   27  150 1    
    57   28  151 1    
    58   28  152 1    
    59   28  153 1    
    60   29   30 am   BACKBONE|DICT|INTERRES
    61   29  154 1    
    62   30   31 2    
    63   30   32 1    
    64   32   33 1    
    65   32   34 1    
    66   32  155 1    
    67   33  156 1    
    68   33  157 1    
    69   33  158 1    
    70   34   35 am   BACKBONE|DICT|INTERRES
    71   34  159 1    
    72   35   36 2    
    73   35   37 1    
    74   37   38 1    
    75   37   39 1    
    76   37  160 1    
    77   38  161 1    
    78   38  162 1    
    79   38  163 1    
    80   39   40 am   BACKBONE|DICT|INTERRES
    81   39  164 1    
    82   40   41 2    
    83   40   42 1    
    84   42   43 1    
    85   42   44 1    
    86   42  165 1    
    87   43  166 1    
    88   43  167 1    
    89   43  168 1    
    90   44   45 am   BACKBONE|DICT|INTERRES
    91   44  169 1    
    92   45   46 2    
    93   45   47 1    
    94   47   48 1    
    95   47   49 1    
    96   47  170 1    
    97   48  171 1    
    98   48  172 1    
    99   48  173 1    
   100   49   50 am   BACKBONE|DICT|INTERRES
   101   49  174 1    
   102   50   51 2    
   103   50   52 1    
   104   52   53 1    
   105   52   54 1    
   106   52  175 1    
   107   53  176 1    
   108   53  177 1    
   109   53  178 1    
   110   54   55 am   BACKBONE|DICT|INTERRES
   111   54  179 1    
   112   55   56 2    
   113   55   57 1    
   114   57   58 1    
   115   57   59 1    
   116   57  180 1    
   117   58  181 1    
   118   58  182 1    
   119   58  183 1    
   120   59   60 am   BACKBONE|DICT|INTERRES
   121   59  184 1    
   122   60   61 2    
   123   60   62 1    
   124   62   63 1    
   125   62   64 1    
   126   62  185 1    
   127   63  186 1    
   128   63  187 1    
   129   63  188 1    
   130   64   65 am   BACKBONE|DICT|INTERRES
   131   64  189 1    
   132   65   66 2    
   133   67   68 2    
   134   67   69 am   BACKBONE|DICT|INTERRES
   135   69   70 1    
   136   69  190 1    
   137   70   71 1    
   138   70   72 1    
   139   70  191 1    
   140   71  192 1    
   141   71  193 1    
   142   71  194 1    
   143   72   73 2    
   144   72   74 am   BACKBONE|DICT|INTERRES
   145   74   75 1    
   146   74  195 1    
   147   75   76 1    
   148   75   77 1    
   149   75  196 1    
   150   76  197 1    
   151   76  198 1    
   152   76  199 1    
   153   77   78 2    
   154   77   79 am   BACKBONE|DICT|INTERRES
   155   79   80 1    
   156   79  200 1    
   157   80   81 1    
   158   80   82 1    
   159   80  201 1    
   160   81  202 1    
   161   81  203 1    
   162   81  204 1    
   163   82   83 2    
   164   82   84 am   BACKBONE|DICT|INTERRES
   165   84   85 1    
   166   84  205 1    
   167   85   86 1    
   168   85   87 1    
   169   85  206 1    
   170   86  207 1    
   171   86  208 1    
   172   86  209 1    
   173   87   88 2    
   174   87   89 am   BACKBONE|DICT|INTERRES
   175   89   90 1    
   176   89  210 1    
   177   90   91 1    
   178   90   92 1    
   179   90  211 1    
   180   91  212 1    
   181   91  213 1    
   182   91  214 1    
   183   92   93 2    
   184   92   94 am   BACKBONE|DICT|INTERRES
   185   94   95 1    
   186   94  215 1    
   187   95   96 1    
   188   95   97 1    
   189   95  216 1    
   190   96  217 1    
   191   96  218 1    
   192   96  219 1    
   193   97   98 2    
   194   97   99 am   BACKBONE|DICT|INTERRES
   195   99  100 1    
   196   99  220 1    
   197  100  101 1    
   198  100  102 1    
   199  100  221 1    
   200  101  222 1    
   201  101  223 1    
   202  101  224 1    
   203  102  103 2    
   204  102  104 am   BACKBONE|DICT|INTERRES
   205  104  105 1    
   206  104  225 1    
   207  105  106 1    
   208  105  107 1    
   209  105  226 1    
   210  106  227 1    
   211  106  228 1    
   212  106  229 1    
   213  107  108 2    
   214  107  109 am   BACKBONE|DICT|INTERRES
   215  109  110 1    
   216  109  230 1    
   217  110  111 1    
   218  110  112 1    
   219  110  231 1    
   220  111  232 1    
   221  111  233 1    
   222  111  234 1    
   223  112  113 2    
   224  112  114 am   BACKBONE|DICT|INTERRES
   225  114  115 1    
   226  114  235 1    
   227  115  116 1    
   228  115  117 1    
   229  115  236 1    
   230  116  237 1    
   231  116  238 1    
   232  116  239 1    
   233  117  118 2    
   234  117  119 am   BACKBONE|DICT|INTERRES
   235  119  120 1    
   236  119  240 1    
   237  120  121 1    
   238  120  124 1    
   239  120  241 1    
   240  121  122 am   BACKBONE|DICT|INTERRES
   241  121  123 2    
   242  122  242 1    
   243  122  243 1    
   244  124  125 1    
   245  124  244 1    
   246  124  245 1    
   247  125  126 1    
   248  126  246 1    
   249  126  247 1    
@<TRIPOS>SUBSTRUCTURE
     1 UNK         1 GROUP             0       ****    0 ROOT    
