@<TRIPOS>MOLECULE
3R540
247   249    1
SMALL
USER_CHARGES


@<TRIPOS>ATOM
      1 CA          5.6535  -17.6033  -47.2427 C.3       0 UNK        -0.1800 
      2 C           5.4060  -16.1082  -47.3887 C.2       0 UNK         0.5000 
      3 O           6.1752  -15.4219  -48.0617 O.2       0 UNK        -0.5000 
      4 N           4.3212  -15.6187  -46.7769 N.am      1 UNK        -0.5000 
      5 CA          3.8540  -14.2282  -46.7763 C.3       1 UNK         0.1400 
      6 C6          3.5525  -13.6949  -48.2124 C.3       23 UNK        -0.0398 
      7 S7          1.9852  -12.7652  -48.3553 S.3       23 UNK        -0.2404 
      8 C8          0.7079  -13.9921  -47.9103 C.3       23 UNK        -0.0205 
      9 C9          0.5394  -15.1113  -48.9291 C.ar      23 UNK        -0.0193 
     10 C10        -0.5513  -15.1135  -49.8038 C.ar      23 UNK        -0.1150 
     11 C11        -0.7350  -16.1641  -50.7091 C.ar      23 UNK        -0.0193 
     12 C12         0.2101  -17.1928  -50.7658 C.ar      23 UNK        -0.1150 
     13 C13         1.2847  -17.2195  -49.8760 C.ar      23 UNK        -0.0193 
     14 C14         1.4319  -16.1863  -48.9514 C.ar      23 UNK        -0.1150 
     15 C15         2.2709  -18.3774  -49.8950 C.3       23 UNK        -0.0205 
     16 S16         1.9496  -19.5624  -48.5512 S.3       23 UNK        -0.2404 
     17 C17         0.2372  -20.0707  -48.9260 C.3       23 UNK        -0.0398 
     18 CA         -0.1945  -21.3278  -48.1383 C.3       11 UNK         0.1400 
     19 N          -0.0763  -21.1469  -46.6871 N.am      11 UNK        -0.5000 
     20 C          -0.0915  -22.1435  -45.7925 C.2       10 UNK         0.5000 
     21 O          -0.2301  -23.3273  -46.0947 O.2       10 UNK        -0.5000 
     22 CA          0.0276  -21.7515  -44.3074 C.3       10 UNK         0.1400 
     23 CB          1.4950  -21.4834  -43.9399 C.3       10 UNK        -0.1800 
     24 N          -0.7815  -20.5861  -43.9494 N.am      10 UNK        -0.5000 
     25 C          -2.1110  -20.4995  -44.0991 C.2       9 UNK         0.5000 
     26 O          -2.8142  -21.4208  -44.5075 O.2       9 UNK        -0.5000 
     27 CA         -2.7631  -19.1391  -43.8015 C.3       9 UNK         0.1400 
     28 CB         -3.1205  -19.0272  -42.3131 C.3       9 UNK        -0.1800 
     29 N          -1.9329  -17.9999  -44.1936 N.am      9 UNK        -0.5000 
     30 C          -1.4820  -17.7573  -45.4345 C.2       8 UNK         0.5000 
     31 O          -1.7014  -18.4880  -46.4018 O.2       8 UNK        -0.5000 
     32 CA         -0.6082  -16.5065  -45.6026 C.3       8 UNK         0.1400 
     33 CB         -1.4781  -15.2366  -45.5711 C.3       8 UNK        -0.1800 
     34 N           0.3896  -16.4516  -44.5338 N.am      8 UNK        -0.5000 
     35 C           1.6351  -16.9419  -44.6225 C.2       7 UNK         0.5000 
     36 O           2.1548  -17.2995  -45.6785 O.2       7 UNK        -0.5000 
     37 CA          2.4583  -17.0580  -43.3231 C.3       7 UNK         0.1400 
     38 CB          3.6585  -16.0965  -43.3350 C.3       7 UNK        -0.1800 
     39 N           1.6644  -16.8213  -42.1176 N.am      7 UNK        -0.5000 
     40 C           0.8289  -17.7149  -41.5679 C.2       6 UNK         0.5000 
     41 O           0.6431  -18.8428  -42.0226 O.2       6 UNK        -0.5000 
     42 CA          0.0212  -17.2469  -40.3405 C.3       6 UNK         0.1400 
     43 CB          0.7972  -17.5354  -39.0473 C.3       6 UNK        -0.1800 
     44 N          -0.3225  -15.8242  -40.3868 N.am      6 UNK        -0.5000 
     45 C          -1.0532  -15.2372  -41.3463 C.2       5 UNK         0.5000 
     46 O          -1.5797  -15.8574  -42.2701 O.2       5 UNK        -0.5000 
     47 CA         -1.1396  -13.6976  -41.3100 C.3       5 UNK         0.1400 
     48 CB         -2.3938  -13.2467  -40.5478 C.3       5 UNK        -0.1800 
     49 N           0.0469  -13.0724  -40.7118 N.am      5 UNK        -0.5000 
     50 C           1.2854  -13.1658  -41.2150 C.2       4 UNK         0.5000 
     51 O           1.5472  -13.7286  -42.2815 O.2       4 UNK        -0.5000 
     52 CA          2.4244  -12.6174  -40.3452 C.3       4 UNK         0.1400 
     53 CB          2.6197  -13.5214  -39.1081 C.3       4 UNK        -0.1800 
     54 N           3.6429  -12.5836  -41.1493 N.am      4 UNK        -0.5000 
     55 C           4.8164  -12.0506  -40.7931 C.2       3 UNK         0.5000 
     56 O           5.0113  -11.4643  -39.7273 O.2       3 UNK        -0.5000 
     57 CA          5.9727  -12.1962  -41.7988 C.3       3 UNK         0.1400 
     58 CB          6.6474  -13.5686  -41.6494 C.3       3 UNK        -0.1800 
     59 N           5.5725  -12.0108  -43.1944 N.am      3 UNK        -0.5000 
     60 C           5.1517  -10.8607  -43.7320 C.2       2 UNK         0.5000 
     61 O           4.9682   -9.8335  -43.0777 O.2       2 UNK        -0.5000 
     62 CA          4.9169  -10.8241  -45.2568 C.3       2 UNK         0.1400 
     63 CB          6.2200  -10.4685  -45.9973 C.3       2 UNK        -0.1800 
     64 N           4.2874  -12.0116  -45.8537 N.am      2 UNK        -0.5000 
     65 C           4.7472  -13.2671  -45.9586 C.2       1 UNK         0.5000 
     66 O           5.7867  -13.6641  -45.4268 O.2       1 UNK        -0.5000 
     67 C          -1.6217  -21.7478  -48.5406 C.2       11 UNK         0.5000 
     68 O          -1.7851  -22.5723  -49.4421 O.2       11 UNK        -0.5000 
     69 N          -2.6256  -21.1932  -47.8468 N.am      12 UNK        -0.5000 
     70 CA         -4.0324  -21.5559  -48.0017 C.3       12 UNK         0.1400 
     71 CB         -4.9127  -20.5212  -47.2854 C.3       12 UNK        -0.1800 
     72 C          -4.3221  -22.9820  -47.4979 C.2       12 UNK         0.5000 
     73 O          -5.0101  -23.7345  -48.1860 O.2       12 UNK        -0.5000 
     74 N          -3.7603  -23.3416  -46.3343 N.am      13 UNK        -0.5000 
     75 CA         -3.8552  -24.6705  -45.7241 C.3       13 UNK         0.1400 
     76 CB         -3.3023  -24.6205  -44.2918 C.3       13 UNK        -0.1800 
     77 C          -3.1382  -25.7589  -46.5426 C.2       13 UNK         0.5000 
     78 O          -3.6565  -26.8698  -46.6597 O.2       13 UNK        -0.5000 
     79 N          -1.9824  -25.4114  -47.1269 N.am      14 UNK        -0.5000 
     80 CA         -1.2409  -26.2467  -48.0758 C.3       14 UNK         0.1400 
     81 CB          0.1681  -25.6637  -48.2661 C.3       14 UNK        -0.1800 
     82 C          -1.9442  -26.3902  -49.4408 C.2       14 UNK         0.5000 
     83 O          -1.5969  -27.2960  -50.1994 O.2       14 UNK        -0.5000 
     84 N          -2.9084  -25.5000  -49.7198 N.am      15 UNK        -0.5000 
     85 CA         -3.7114  -25.3937  -50.9364 C.3       15 UNK         0.1400 
     86 CB         -4.6294  -26.6229  -51.0898 C.3       15 UNK        -0.1800 
     87 C          -2.8314  -25.1159  -52.1686 C.2       15 UNK         0.5000 
     88 O          -2.8922  -25.8475  -53.1591 O.2       15 UNK        -0.5000 
     89 N          -2.0220  -24.0511  -52.0713 N.am      16 UNK        -0.5000 
     90 CA         -1.0817  -23.5717  -53.0889 C.3       16 UNK         0.1400 
     91 CB         -0.4139  -22.2871  -52.5724 C.3       16 UNK        -0.1800 
     92 C          -1.6883  -23.3383  -54.4906 C.2       16 UNK         0.5000 
     93 O          -0.9799  -23.5083  -55.4837 O.2       16 UNK        -0.5000 
     94 N          -2.9780  -22.9831  -54.5493 N.am      17 UNK        -0.5000 
     95 CA         -3.7653  -22.8422  -55.7757 C.3       17 UNK         0.1400 
     96 CB         -4.1382  -21.3653  -55.9763 C.3       17 UNK        -0.1800 
     97 C          -5.0064  -23.7555  -55.7515 C.2       17 UNK         0.5000 
     98 O          -6.0241  -23.4194  -56.3608 O.2       17 UNK        -0.5000 
     99 N          -4.9104  -24.8968  -55.0527 N.am      18 UNK        -0.5000 
    100 CA        -5.9444  -25.9239  -54.9025 C.3       18 UNK         0.1400 
    101 CB        -6.1355  -26.6876  -56.2329 C.3       18 UNK        -0.1800 
    102 C         -7.2456  -25.3397  -54.3106 C.2       18 UNK         0.5000 
    103 O         -7.2140  -24.7918  -53.2070 O.2       18 UNK        -0.5000 
    104 N         -8.3540  -25.4321  -55.0577 N.am      19 UNK        -0.5000 
    105 CA        -9.6785  -24.9240  -54.6915 C.3       19 UNK         0.1400 
    106 CB       -10.6981  -25.4062  -55.7348 C.3       19 UNK        -0.1800 
    107 C         -9.7535  -23.3910  -54.5335 C.2       19 UNK         0.5000 
    108 O        -10.6603  -22.9041  -53.8578 O.2       19 UNK        -0.5000 
    109 N         -8.8014  -22.6581  -55.1291 N.am      20 UNK        -0.5000 
    110 CA        -8.6666  -21.2052  -54.9990 C.3       20 UNK         0.1400 
    111 CB        -8.0729  -20.6391  -56.2998 C.3       20 UNK        -0.1800 
    112 C         -7.8308  -20.7864  -53.7699 C.2       20 UNK         0.5000 
    113 O         -7.5202  -19.6004  -53.6396 O.2       20 UNK        -0.5000 
    114 N         -7.4659  -21.7481  -52.9053 N.am      21 UNK        -0.5000 
    115 CA        -6.6266  -21.6256  -51.7102 C.3       21 UNK         0.1400 
    116 CB        -7.2495  -20.6858  -50.6565 C.3       21 UNK        -0.1800 
    117 C         -5.1872  -21.2493  -52.0892 C.2       21 UNK         0.5000 
    118 O         -4.3529  -22.1423  -52.2195 O.2       21 UNK        -0.5000 
    119 N         -4.9380  -19.9575  -52.3169 N.am      22 UNK        -0.5000 
    120 CA        -3.6933  -19.4265  -52.8849 C.3       22 UNK         0.1400 
    121 C         -3.9224  -18.4150  -54.0479 C.2       22 UNK         0.5000 
    122 N         -5.1486  -18.1824  -54.5055 N.am      22 UNK        -0.7600 
    123 O         -2.9651  -17.8534  -54.5722 O.2       22 UNK        -0.5000 
    124 C124       -2.7183  -18.9222  -51.7909 C.3       23 UNK        -0.0398 
    125 S125       -3.2228  -17.3612  -50.9792 S.3       23 UNK        -0.2404 
    126 C126       -1.9639  -16.1955  -51.6061 C.3       23 UNK        -0.0205 
    127 H127        5.7005  -18.0738  -48.2248 H         1 UNK         0.0600 
    128 H128        4.8613  -18.0908  -46.6729 H         1 UNK         0.0600 
    129 H129        6.5998  -17.7794  -46.7313 H         1 UNK         0.0600 
    130 H130        3.7170  -16.2671  -46.2806 H         1 UNK         0.3000 
    131 H131        2.9313  -14.2771  -46.2024 H         1 UNK         0.0600 
    132 H132        4.3622  -13.0571  -48.5722 H         1 UNK         0.0800 
    133 H133        3.5186  -14.5037  -48.9407 H         1 UNK         0.0800 
    134 H134        0.9247  -14.4215  -46.9356 H         1 UNK         0.0800 
    135 H135       -0.2370  -13.4599  -47.7910 H         1 UNK         0.0800 
    136 H136       -1.2717  -14.3085  -49.7638 H         1 UNK         0.1150 
    137 H137        0.0998  -17.9951  -51.4776 H         1 UNK         0.1150 
    138 H138        2.2392  -16.2349  -48.2391 H         1 UNK         0.1150 
    139 H139        2.2379  -18.8983  -50.8531 H         1 UNK         0.0800 
    140 H140        3.2862  -17.9919  -49.7907 H         1 UNK         0.0800 
    141 H141        0.1613  -20.2539  -49.9994 H         1 UNK         0.0800 
    142 H142       -0.4270  -19.2326  -48.7057 H         1 UNK         0.0800 
    143 H143        0.4719  -22.1440  -48.4257 H         1 UNK         0.0600 
    144 H144       -0.0045  -20.1932  -46.3609 H         1 UNK         0.3000 
    145 H145       -0.3266  -22.5958  -43.7128 H         1 UNK         0.0600 
    146 H146        1.6085  -21.3204  -42.8680 H         1 UNK         0.0600 
    147 H147        1.8853  -20.6045  -44.4551 H         1 UNK         0.0600 
    148 H148        2.1274  -22.3310  -44.2073 H         1 UNK         0.0600 
    149 H149       -0.2895  -19.8035  -43.5307 H         1 UNK         0.3000 
    150 H150       -3.6871  -19.0800  -44.3796 H         1 UNK         0.0600 
    151 H151       -3.8233  -19.8093  -42.0230 H         1 UNK         0.0600 
    152 H152       -3.5870  -18.0683  -42.0863 H         1 UNK         0.0600 
    153 H153       -2.2385  -19.1317  -41.6821 H         1 UNK         0.0600 
    154 H154       -1.7437  -17.3146  -43.4678 H         1 UNK         0.3000 
    155 H155       -0.1136  -16.5698  -46.5722 H         1 UNK         0.0600 
    156 H156       -2.0605  -15.1500  -46.4891 H         1 UNK         0.0600 
    157 H157       -0.8750  -14.3346  -45.4765 H         1 UNK         0.0600 
    158 H158       -2.1845  -15.2377  -44.7410 H         1 UNK         0.0600 
    159 H159        0.0509  -16.1636  -43.6253 H         1 UNK         0.3000 
    160 H160        2.8491  -18.0769  -43.2787 H         1 UNK         0.0600 
    161 H161        3.3607  -15.0720  -43.5561 H         1 UNK         0.0600 
    162 H162        4.3868  -16.3942  -44.0893 H         1 UNK         0.0600 
    163 H163        4.1763  -16.0972  -42.3759 H         1 UNK         0.0600 
    164 H164        1.7076  -15.8863  -41.7347 H         1 UNK         0.3000 
    165 H165       -0.9100  -17.8141  -40.3138 H         1 UNK         0.0600 
    166 H166        0.2068  -17.2798  -38.1672 H         1 UNK         0.0600 
    167 H167        1.0491  -18.5941  -38.9715 H         1 UNK         0.0600 
    168 H168        1.7300  -16.9718  -39.0019 H         1 UNK         0.0600 
    169 H169        0.0659  -15.2417  -39.6605 H         1 UNK         0.3000 
    170 H170       -1.2205  -13.3501  -42.3422 H         1 UNK         0.0600 
    171 H171       -2.3599  -13.5487  -39.5003 H         1 UNK         0.0600 
    172 H172       -2.5080  -12.1631  -40.5824 H         1 UNK         0.0600 
    173 H173       -3.2935  -13.6811  -40.9860 H         1 UNK         0.0600 
    174 H174       -0.0920  -12.5940  -39.8331 H         1 UNK         0.3000 
    175 H175        2.1718  -11.6016  -40.0352 H         1 UNK         0.0600 
    176 H176        2.9022  -14.5353  -39.3944 H         1 UNK         0.0600 
    177 H177        3.3937  -13.1370  -38.4445 H         1 UNK         0.0600 
    178 H178        1.7074  -13.5892  -38.5147 H         1 UNK         0.0600 
    179 H179        3.5442  -13.0156  -42.0597 H         1 UNK         0.3000 
    180 H180        6.7125  -11.4289  -41.5611 H         1 UNK         0.0600 
    181 H181        7.5289  -13.6453  -42.2862 H         1 UNK         0.0600 
    182 H182        5.9707  -14.3809  -41.9164 H         1 UNK         0.0600 
    183 H183        6.9732  -13.7354  -40.6219 H         1 UNK         0.0600 
    184 H184        5.7249  -12.7896  -43.8316 H         1 UNK         0.3000 
    185 H185        4.2139  -10.0086  -45.4344 H         1 UNK         0.0600 
    186 H186        6.0441  -10.3405  -47.0654 H         1 UNK         0.0600 
    187 H187        6.6386   -9.5333  -45.6231 H         1 UNK         0.0600 
    188 H188        6.9820  -11.2384  -45.8727 H         1 UNK         0.0600 
    189 H189        3.3974  -11.8190  -46.2943 H         1 UNK         0.3000 
    190 H190       -2.4020  -20.5049  -47.1380 H         1 UNK         0.3000 
    191 H191       -4.2721  -21.5246  -49.0667 H         1 UNK         0.0600 
    192 H192       -4.7623  -19.5238  -47.6995 H         1 UNK         0.0600 
    193 H193       -4.6977  -20.4762  -46.2181 H         1 UNK         0.0600 
    194 H194       -5.9701  -20.7648  -47.3941 H         1 UNK         0.0600 
    195 H195       -3.2580  -22.6382  -45.7962 H         1 UNK         0.3000 
    196 H196       -4.9124  -24.9383  -45.6711 H         1 UNK         0.0600 
    197 H197       -3.8623  -23.9147  -43.6782 H         1 UNK         0.0600 
    198 H198       -2.2543  -24.3191  -44.2760 H         1 UNK         0.0600 
    199 H199       -3.3720  -25.5967  -43.8104 H         1 UNK         0.0600 
    200 H200       -1.5734  -24.5077  -46.9081 H         1 UNK         0.3000 
    201 H201       -1.1434  -27.2469  -47.6489 H         1 UNK         0.0600 
    202 H202        0.7094  -25.6229  -47.3209 H         1 UNK         0.0600 
    203 H203        0.1311  -24.6543  -48.6771 H         1 UNK         0.0600 
    204 H204        0.7575  -26.2754  -48.9502 H         1 UNK         0.0600 
    205 H205       -3.0939  -24.7882  -49.0261 H         1 UNK         0.3000 
    206 H206       -4.3524  -24.5206  -50.8072 H         1 UNK         0.0600 
    207 H207       -4.0685  -27.5276  -51.3258 H         1 UNK         0.0600 
    208 H208       -5.1940  -26.8067  -50.1756 H         1 UNK         0.0600 
    209 H209       -5.3544  -26.4655  -51.8863 H         1 UNK         0.0600 
    210 H210       -2.0504  -23.5141  -51.2093 H         1 UNK         0.3000 
    211 H211       -0.3116  -24.3376  -53.1966 H         1 UNK         0.0600 
    212 H212       -1.1501  -21.5083  -52.3722 H         1 UNK         0.0600 
    213 H213        0.2972  -21.8918  -53.2989 H         1 UNK         0.0600 
    214 H214        0.1350  -22.4728  -51.6489 H         1 UNK         0.0600 
    215 H215       -3.4793  -22.8414  -53.6731 H         1 UNK         0.3000 
    216 H216       -3.1784  -23.1582  -56.6400 H         1 UNK         0.0600 
    217 H217       -4.6148  -21.2089  -56.9445 H         1 UNK         0.0600 
    218 H218       -3.2553  -20.7270  -55.9472 H         1 UNK         0.0600 
    219 H219       -4.8340  -21.0252  -55.2097 H         1 UNK         0.0600 
    220 H220       -4.0490  -25.0820  -54.5467 H         1 UNK         0.3000 
    221 H221       -5.5672  -26.6393  -54.1722 H         1 UNK         0.0600 
    222 H222       -6.4977  -26.0427  -57.0343 H         1 UNK         0.0600 
    223 H223       -5.1933  -27.1234  -56.5659 H         1 UNK         0.0600 
    224 H224       -6.8417  -27.5110  -56.1183 H         1 UNK         0.0600 
    225 H225       -8.2795  -25.8704  -55.9642 H         1 UNK         0.3000 
    226 H226       -9.9444  -25.3605  -53.7265 H         1 UNK         0.0600 
    227 H227      -10.7203  -26.4946  -55.7925 H         1 UNK         0.0600 
    228 H228      -11.7060  -25.0759  -55.4796 H         1 UNK         0.0600 
    229 H229      -10.4683  -25.0205  -56.7289 H         1 UNK         0.0600 
    230 H230       -8.0661  -23.1299  -55.6446 H         1 UNK         0.3000 
    231 H231       -9.6564  -20.7623  -54.8720 H         1 UNK         0.0600 
    232 H232       -8.0445  -19.5491  -56.2779 H         1 UNK         0.0600 
    233 H233       -8.6701  -20.9284  -57.1646 H         1 UNK         0.0600 
    234 H234       -7.0546  -20.9877  -56.4649 H         1 UNK         0.0600 
    235 H235       -7.7155  -22.7023  -53.1388 H         1 UNK         0.3000 
    236 H236       -6.5806  -22.6223  -51.2677 H         1 UNK         0.0600 
    237 H237       -7.3870  -19.6688  -51.0226 H         1 UNK         0.0600 
    238 H238       -8.2237  -21.0548  -50.3360 H         1 UNK         0.0600 
    239 H239       -6.6186  -20.6281  -49.7700 H         1 UNK         0.0600 
    240 H240       -5.6980  -19.2969  -52.2293 H         1 UNK         0.3000 
    241 H241       -3.1816  -20.2516  -53.3825 H         1 UNK         0.0600 
    242 H242       -5.2659  -17.5295  -55.2634 H         1 UNK         0.3800 
    243 H243       -5.9636  -18.6670  -54.1405 H         1 UNK         0.3800 
    244 H244       -1.7324  -18.8085  -52.2364 H         1 UNK         0.0800 
    245 H245       -2.6021  -19.6843  -51.0188 H         1 UNK         0.0800 
    246 H246       -1.6771  -16.4504  -52.6270 H         1 UNK         0.0800 
    247 H247       -2.4120  -15.2024  -51.6612 H         1 UNK         0.0800 
@<TRIPOS>BOND
     1    1    2 1    
     2    1  127 1    
     3    1  128 1    
     4    1  129 1    
     5    2    3 2    
     6    2    4 am   BACKBONE|DICT|INTERRES
     7    4    5 1    
     8    4  130 1    
     9    5    6 1    
    10    5   65 1    
    11    5  131 1    
    12    6    7 1    
    13    6  132 1    
    14    6  133 1    
    15    7    8 1    
    16    8    9 1    
    17    8  134 1    
    18    8  135 1    
    19    9   10 ar   
    20    9   14 ar   
    21   10   11 ar   
    22   10  136 1    
    23   11   12 ar   
    24   11  126 1    
    25   12   13 ar   
    26   12  137 1    
    27   13   14 ar   
    28   13   15 1    
    29   14  138 1    
    30   15   16 1    
    31   15  139 1    
    32   15  140 1    
    33   16   17 1    
    34   17   18 1    
    35   17  141 1    
    36   17  142 1    
    37   18   19 1    
    38   18   67 1    
    39   18  143 1    
    40   19   20 am   BACKBONE|DICT|INTERRES
    41   19  144 1    
    42   20   21 2    
    43   20   22 1    
    44   22   23 1    
    45   22   24 1    
    46   22  145 1    
    47   23  146 1    
    48   23  147 1    
    49   23  148 1    
    50   24   25 am   BACKBONE|DICT|INTERRES
    51   24  149 1    
    52   25   26 2    
    53   25   27 1    
    54   27   28 1    
    55   27   29 1    
    56   27  150 1    
    57   28  151 1    
    58   28  152 1    
    59   28  153 1    
    60   29   30 am   BACKBONE|DICT|INTERRES
    61   29  154 1    
    62   30   31 2    
    63   30   32 1    
    64   32   33 1    
    65   32   34 1    
    66   32  155 1    
    67   33  156 1    
    68   33  157 1    
    69   33  158 1    
    70   34   35 am   BACKBONE|DICT|INTERRES
    71   34  159 1    
    72   35   36 2    
    73   35   37 1    
    74   37   38 1    
    75   37   39 1    
    76   37  160 1    
    77   38  161 1    
    78   38  162 1    
    79   38  163 1    
    80   39   40 am   BACKBONE|DICT|INTERRES
    81   39  164 1    
    82   40   41 2    
    83   40   42 1    
    84   42   43 1    
    85   42   44 1    
    86   42  165 1    
    87   43  166 1    
    88   43  167 1    
    89   43  168 1    
    90   44   45 am   BACKBONE|DICT|INTERRES
    91   44  169 1    
    92   45   46 2    
    93   45   47 1    
    94   47   48 1    
    95   47   49 1    
    96   47  170 1    
    97   48  171 1    
    98   48  172 1    
    99   48  173 1    
   100   49   50 am   BACKBONE|DICT|INTERRES
   101   49  174 1    
   102   50   51 2    
   103   50   52 1    
   104   52   53 1    
   105   52   54 1    
   106   52  175 1    
   107   53  176 1    
   108   53  177 1    
   109   53  178 1    
   110   54   55 am   BACKBONE|DICT|INTERRES
   111   54  179 1    
   112   55   56 2    
   113   55   57 1    
   114   57   58 1    
   115   57   59 1    
   116   57  180 1    
   117   58  181 1    
   118   58  182 1    
   119   58  183 1    
   120   59   60 am   BACKBONE|DICT|INTERRES
   121   59  184 1    
   122   60   61 2    
   123   60   62 1    
   124   62   63 1    
   125   62   64 1    
   126   62  185 1    
   127   63  186 1    
   128   63  187 1    
   129   63  188 1    
   130   64   65 am   BACKBONE|DICT|INTERRES
   131   64  189 1    
   132   65   66 2    
   133   67   68 2    
   134   67   69 am   BACKBONE|DICT|INTERRES
   135   69   70 1    
   136   69  190 1    
   137   70   71 1    
   138   70   72 1    
   139   70  191 1    
   140   71  192 1    
   141   71  193 1    
   142   71  194 1    
   143   72   73 2    
   144   72   74 am   BACKBONE|DICT|INTERRES
   145   74   75 1    
   146   74  195 1    
   147   75   76 1    
   148   75   77 1    
   149   75  196 1    
   150   76  197 1    
   151   76  198 1    
   152   76  199 1    
   153   77   78 2    
   154   77   79 am   BACKBONE|DICT|INTERRES
   155   79   80 1    
   156   79  200 1    
   157   80   81 1    
   158   80   82 1    
   159   80  201 1    
   160   81  202 1    
   161   81  203 1    
   162   81  204 1    
   163   82   83 2    
   164   82   84 am   BACKBONE|DICT|INTERRES
   165   84   85 1    
   166   84  205 1    
   167   85   86 1    
   168   85   87 1    
   169   85  206 1    
   170   86  207 1    
   171   86  208 1    
   172   86  209 1    
   173   87   88 2    
   174   87   89 am   BACKBONE|DICT|INTERRES
   175   89   90 1    
   176   89  210 1    
   177   90   91 1    
   178   90   92 1    
   179   90  211 1    
   180   91  212 1    
   181   91  213 1    
   182   91  214 1    
   183   92   93 2    
   184   92   94 am   BACKBONE|DICT|INTERRES
   185   94   95 1    
   186   94  215 1    
   187   95   96 1    
   188   95   97 1    
   189   95  216 1    
   190   96  217 1    
   191   96  218 1    
   192   96  219 1    
   193   97   98 2    
   194   97   99 am   BACKBONE|DICT|INTERRES
   195   99  100 1    
   196   99  220 1    
   197  100  101 1    
   198  100  102 1    
   199  100  221 1    
   200  101  222 1    
   201  101  223 1    
   202  101  224 1    
   203  102  103 2    
   204  102  104 am   BACKBONE|DICT|INTERRES
   205  104  105 1    
   206  104  225 1    
   207  105  106 1    
   208  105  107 1    
   209  105  226 1    
   210  106  227 1    
   211  106  228 1    
   212  106  229 1    
   213  107  108 2    
   214  107  109 am   BACKBONE|DICT|INTERRES
   215  109  110 1    
   216  109  230 1    
   217  110  111 1    
   218  110  112 1    
   219  110  231 1    
   220  111  232 1    
   221  111  233 1    
   222  111  234 1    
   223  112  113 2    
   224  112  114 am   BACKBONE|DICT|INTERRES
   225  114  115 1    
   226  114  235 1    
   227  115  116 1    
   228  115  117 1    
   229  115  236 1    
   230  116  237 1    
   231  116  238 1    
   232  116  239 1    
   233  117  118 2    
   234  117  119 am   BACKBONE|DICT|INTERRES
   235  119  120 1    
   236  119  240 1    
   237  120  121 1    
   238  120  124 1    
   239  120  241 1    
   240  121  122 am   BACKBONE|DICT|INTERRES
   241  121  123 2    
   242  122  242 1    
   243  122  243 1    
   244  124  125 1    
   245  124  244 1    
   246  124  245 1    
   247  125  126 1    
   248  126  246 1    
   249  126  247 1    
@<TRIPOS>SUBSTRUCTURE
     1 UNK         1 GROUP             0       ****    0 ROOT    
