@<TRIPOS>MOLECULE
3R540
247   249    1
SMALL
USER_CHARGES


@<TRIPOS>ATOM
      1 CA         -1.2877  -10.5399  -48.5507 C.3       0 UNK        -0.1800 
      2 C           0.1390  -10.6528  -49.0683 C.2       0 UNK         0.5000 
      3 O           0.6954   -9.6713  -49.5600 O.2       0 UNK        -0.5000 
      4 N           0.7431  -11.8406  -48.9436 N.am      1 UNK        -0.5000 
      5 CA          2.0948  -12.2007  -49.3970 C.3       1 UNK         0.1400 
      6 C6          2.2083  -13.7356  -49.6082 C.3       23 UNK        -0.0398 
      7 S7          1.8743  -14.7221  -48.1015 S.3       23 UNK        -0.2404 
      8 C8          0.2939  -15.5484  -48.4632 C.3       23 UNK        -0.0205 
      9 C9          0.4415  -16.6458  -49.5065 C.ar      23 UNK        -0.0193 
     10 C10         0.0494  -16.4129  -50.8277 C.ar      23 UNK        -0.1150 
     11 C11         0.1587  -17.4179  -51.7945 C.ar      23 UNK        -0.0193 
     12 C12         0.6797  -18.6614  -51.4259 C.ar      23 UNK        -0.1150 
     13 C13         1.0867  -18.9064  -50.1110 C.ar      23 UNK        -0.0193 
     14 C14         0.9585  -17.8965  -49.1516 C.ar      23 UNK        -0.1150 
     15 C15         1.6960  -20.2539  -49.7520 C.3       23 UNK        -0.0205 
     16 S16         0.4204  -21.5150  -49.4439 S.3       23 UNK        -0.2404 
     17 C17         0.0398  -21.2481  -47.6831 C.3       23 UNK        -0.0398 
     18 CA          0.3575  -22.4882  -46.8039 C.3       11 UNK         0.1400 
     19 N           0.7172  -22.0951  -45.4388 N.am      11 UNK        -0.5000 
     20 C           1.1790  -22.9030  -44.4740 C.2       10 UNK         0.5000 
     21 O           1.4145  -24.1006  -44.6345 O.2       10 UNK        -0.5000 
     22 CA          1.3873  -22.2638  -43.0872 C.3       10 UNK         0.1400 
     23 CB          2.7858  -21.6380  -42.9716 C.3       10 UNK        -0.1800 
     24 N           0.3710  -21.2502  -42.7955 N.am      10 UNK        -0.5000 
     25 C          -0.8950  -21.5325  -42.4560 C.2       9 UNK         0.5000 
     26 O          -1.3103  -22.6754  -42.2661 O.2       9 UNK        -0.5000 
     27 CA         -1.8707  -20.3455  -42.3355 C.3       9 UNK         0.1400 
     28 CB         -1.8243  -19.7529  -40.9194 C.3       9 UNK        -0.1800 
     29 N          -1.6177  -19.2859  -43.3139 N.am      9 UNK        -0.5000 
     30 C          -1.7295  -19.4303  -44.6425 C.2       8 UNK         0.5000 
     31 O          -2.1069  -20.4662  -45.1882 O.2       8 UNK        -0.5000 
     32 CA         -1.2812  -18.2413  -45.5133 C.3       8 UNK         0.1400 
     33 CB         -2.4230  -17.2295  -45.6762 C.3       8 UNK        -0.1800 
     34 N          -0.0865  -17.5730  -44.9906 N.am      8 UNK        -0.5000 
     35 C           1.1049  -18.1675  -44.8323 C.2       7 UNK         0.5000 
     36 O           1.3216  -19.3370  -45.1402 O.2       7 UNK        -0.5000 
     37 CA          2.2293  -17.3535  -44.1785 C.3       7 UNK         0.1400 
     38 CB          2.9834  -16.5117  -45.2112 C.3       7 UNK        -0.1800 
     39 N           1.7267  -16.4923  -43.1128 N.am      7 UNK        -0.5000 
     40 C           1.4705  -16.9146  -41.8686 C.2       6 UNK         0.5000 
     41 O           1.6788  -18.0634  -41.4771 O.2       6 UNK        -0.5000 
     42 CA          0.8485  -15.8823  -40.9113 C.3       6 UNK         0.1400 
     43 CB          1.9401  -15.0118  -40.2709 C.3       6 UNK        -0.1800 
     44 N          -0.1340  -15.0205  -41.5710 N.am      6 UNK        -0.5000 
     45 C          -1.3047  -15.4520  -42.0616 C.2       5 UNK         0.5000 
     46 O          -1.6775  -16.6239  -42.0102 O.2       5 UNK        -0.5000 
     47 CA         -2.1967  -14.4097  -42.7607 C.3       5 UNK         0.1400 
     48 CB         -3.1071  -13.7140  -41.7379 C.3       5 UNK        -0.1800 
     49 N          -1.4659  -13.3936  -43.5216 N.am      5 UNK        -0.5000 
     50 C          -0.5792  -13.6249  -44.4997 C.2       4 UNK         0.5000 
     51 O          -0.2084  -14.7500  -44.8356 O.2       4 UNK        -0.5000 
     52 CA         -0.0025  -12.4013  -45.2377 C.3       4 UNK         0.1400 
     53 CB         -0.6295  -11.0510  -44.8266 C.3       4 UNK        -0.1800 
     54 N           1.4549  -12.3219  -45.1404 N.am      4 UNK        -0.5000 
     55 C           2.2042  -12.2929  -44.0271 C.2       3 UNK         0.5000 
     56 O           1.7582  -12.4359  -42.8877 O.2       3 UNK        -0.5000 
     57 CA          3.7114  -12.0306  -44.2247 C.3       3 UNK         0.1400 
     58 CB          4.5013  -13.3457  -44.2058 C.3       3 UNK        -0.1800 
     59 N           3.9957  -11.3292  -45.4788 N.am      3 UNK        -0.5000 
     60 C           3.7550  -10.0334  -45.7126 C.2       2 UNK         0.5000 
     61 O           3.3877   -9.2405  -44.8453 O.2       2 UNK        -0.5000 
     62 CA          3.8954   -9.5538  -47.1709 C.3       2 UNK         0.1400 
     63 CB          5.3712   -9.4634  -47.6053 C.3       2 UNK        -0.1800 
     64 N           3.0862  -10.3377  -48.1165 N.am      2 UNK        -0.5000 
     65 C           3.2177  -11.6165  -48.4971 C.2       1 UNK         0.5000 
     66 O           4.1513  -12.3306  -48.1274 O.2       1 UNK        -0.5000 
     67 C          -0.8093  -23.4997  -46.8381 C.2       11 UNK         0.5000 
     68 O          -0.8208  -24.3844  -47.6932 O.2       11 UNK        -0.5000 
     69 N          -1.7654  -23.3508  -45.9085 N.am      12 UNK        -0.5000 
     70 CA         -3.0150  -24.1070  -45.7691 C.3       12 UNK         0.1400 
     71 CB         -3.9425  -23.3503  -44.8017 C.3       12 UNK        -0.1800 
     72 C          -2.8713  -25.6045  -45.4097 C.2       12 UNK         0.5000 
     73 O          -3.6273  -26.1200  -44.5834 O.2       12 UNK        -0.5000 
     74 N          -1.9495  -26.3045  -46.0768 N.am      13 UNK        -0.5000 
     75 CA         -1.8181  -27.7581  -46.0848 C.3       13 UNK         0.1400 
     76 CB         -0.3631  -28.1245  -46.4259 C.3       13 UNK        -0.1800 
     77 C          -2.8374  -28.3531  -47.0761 C.2       13 UNK         0.5000 
     78 O          -2.4653  -28.7964  -48.1647 O.2       13 UNK        -0.5000 
     79 N          -4.1206  -28.2925  -46.6933 N.am      14 UNK        -0.5000 
     80 CA         -5.2970  -28.6874  -47.4718 C.3       14 UNK         0.1400 
     81 CB         -5.3435  -30.2230  -47.6444 C.3       14 UNK        -0.1800 
     82 C          -5.3913  -27.8916  -48.7919 C.2       14 UNK         0.5000 
     83 O          -5.4620  -26.6625  -48.7482 O.2       14 UNK        -0.5000 
     84 N          -5.3706  -28.5883  -49.9358 N.am      15 UNK        -0.5000 
     85 CA         -5.4842  -28.0284  -51.2862 C.3       15 UNK         0.1400 
     86 CB         -5.6454  -29.1871  -52.2830 C.3       15 UNK        -0.1800 
     87 C          -4.3207  -27.1073  -51.7124 C.2       15 UNK         0.5000 
     88 O          -4.4541  -26.4015  -52.7119 O.2       15 UNK        -0.5000 
     89 N          -3.2095  -27.1170  -50.9631 N.am      16 UNK        -0.5000 
     90 CA         -2.0381  -26.2691  -51.1954 C.3       16 UNK         0.1400 
     91 CB         -0.8423  -26.8720  -50.4422 C.3       16 UNK        -0.1800 
     92 C          -2.2347  -24.7920  -50.7893 C.2       16 UNK         0.5000 
     93 O          -1.3563  -23.9850  -51.0909 O.2       16 UNK        -0.5000 
     94 N          -3.3458  -24.4785  -50.1015 N.am      17 UNK        -0.5000 
     95 CA         -3.6886  -23.1781  -49.5181 C.3       17 UNK         0.1400 
     96 CB         -5.1292  -23.2452  -48.9842 C.3       17 UNK        -0.1800 
     97 C          -3.5546  -21.9678  -50.4582 C.2       17 UNK         0.5000 
     98 O          -3.7853  -22.0867  -51.6630 O.2       17 UNK        -0.5000 
     99 N          -3.2710  -20.8010  -49.8605 N.am      18 UNK        -0.5000 
    100 CA        -3.1064  -19.5089  -50.5341 C.3       18 UNK         0.1400 
    101 CB        -2.8146  -18.4277  -49.4831 C.3       18 UNK        -0.1800 
    102 C         -4.3126  -19.1097  -51.4055 C.2       18 UNK         0.5000 
    103 O         -4.1271  -18.5808  -52.4992 O.2       18 UNK        -0.5000 
    104 N         -5.5244  -19.4396  -50.9363 N.am      19 UNK        -0.5000 
    105 CA        -6.7857  -19.2378  -51.6514 C.3       19 UNK         0.1400 
    106 CB        -7.9508  -19.6013  -50.7186 C.3       19 UNK        -0.1800 
    107 C         -6.8888  -20.0260  -52.9736 C.2       19 UNK         0.5000 
    108 O         -7.5538  -19.5588  -53.8983 O.2       19 UNK        -0.5000 
    109 N         -6.2214  -21.1847  -53.0531 N.am      20 UNK        -0.5000 
    110 CA        -6.1229  -21.9964  -54.2648 C.3       20 UNK         0.1400 
    111 CB        -6.0597  -23.4825  -53.8777 C.3       20 UNK        -0.1800 
    112 C         -4.8968  -21.5979  -55.1045 C.2       20 UNK         0.5000 
    113 O         -4.9898  -21.5652  -56.3319 O.2       20 UNK        -0.5000 
    114 N         -3.7741  -21.3040  -54.4331 N.am      21 UNK        -0.5000 
    115 CA        -2.4948  -20.9541  -55.0513 C.3       21 UNK         0.1400 
    116 CB        -1.3889  -20.9959  -53.9859 C.3       21 UNK        -0.1800 
    117 C         -2.5015  -19.5911  -55.7694 C.2       21 UNK         0.5000 
    118 O         -1.8820  -19.4678  -56.8271 O.2       21 UNK        -0.5000 
    119 N         -3.1876  -18.5984  -55.1927 N.am      22 UNK        -0.5000 
    120 CA        -3.2543  -17.2182  -55.7000 C.3       22 UNK         0.1400 
    121 C         -4.6268  -16.5194  -55.4758 C.2       22 UNK         0.5000 
    122 N         -5.6683  -17.2152  -55.0390 N.am      22 UNK        -0.7600 
    123 O         -4.7673  -15.3281  -55.7404 O.2       22 UNK        -0.5000 
    124 C124       -2.0396  -16.3610  -55.2463 C.3       23 UNK        -0.0398 
    125 S125       -1.8188  -16.2867  -53.4325 S.3       23 UNK        -0.2404 
    126 C126       -0.2314  -17.1631  -53.2470 C.3       23 UNK        -0.0205 
    127 H127       -1.6550  -11.4882  -48.1582 H         1 UNK         0.0600 
    128 H128       -1.9533  -10.2255  -49.3545 H         1 UNK         0.0600 
    129 H129       -1.3403   -9.7977  -47.7543 H         1 UNK         0.0600 
    130 H130        0.2337  -12.6018  -48.5214 H         1 UNK         0.3000 
    131 H131        2.2420  -11.7403  -50.3762 H         1 UNK         0.0600 
    132 H132        1.5226  -14.0391  -50.3985 H         1 UNK         0.0800 
    133 H133        3.2010  -13.9994  -49.9766 H         1 UNK         0.0800 
    134 H134       -0.0827  -15.9845  -47.5376 H         1 UNK         0.0800 
    135 H135       -0.4474  -14.8119  -48.7755 H         1 UNK         0.0800 
    136 H136       -0.3441  -15.4456  -51.1056 H         1 UNK         0.1150 
    137 H137        0.7838  -19.4420  -52.1664 H         1 UNK         0.1150 
    138 H138        1.2715  -18.0759  -48.1326 H         1 UNK         0.1150 
    139 H139        2.3234  -20.5937  -50.5773 H         1 UNK         0.0800 
    140 H140        2.3603  -20.1654  -48.8909 H         1 UNK         0.0800 
    141 H141       -1.0028  -20.9412  -47.5915 H         1 UNK         0.0800 
    142 H142        0.6210  -20.3915  -47.3469 H         1 UNK         0.0800 
    143 H143        1.2359  -22.9912  -47.2138 H         1 UNK         0.0600 
    144 H144        0.6510  -21.1035  -45.2283 H         1 UNK         0.3000 
    145 H145        1.3122  -23.0564  -42.3396 H         1 UNK         0.0600 
    146 H146        2.9440  -21.2068  -41.9829 H         1 UNK         0.0600 
    147 H147        2.9430  -20.8503  -43.7082 H         1 UNK         0.0600 
    148 H148        3.5609  -22.3893  -43.1272 H         1 UNK         0.0600 
    149 H149        0.6330  -20.2854  -42.9418 H         1 UNK         0.3000 
    150 H150       -2.8779  -20.7287  -42.5125 H         1 UNK         0.0600 
    151 H151       -2.0056  -20.5206  -40.1661 H         1 UNK         0.0600 
    152 H152       -2.5867  -18.9847  -40.7895 H         1 UNK         0.0600 
    153 H153       -0.8548  -19.3013  -40.7045 H         1 UNK         0.0600 
    154 H154       -1.3596  -18.3776  -42.9405 H         1 UNK         0.3000 
    155 H155       -1.0311  -18.6264  -46.5032 H         1 UNK         0.0600 
    156 H156       -3.2828  -17.6912  -46.1630 H         1 UNK         0.0600 
    157 H157       -2.1218  -16.3787  -46.2868 H         1 UNK         0.0600 
    158 H158       -2.7596  -16.8514  -44.7122 H         1 UNK         0.0600 
    159 H159       -0.1724  -16.5835  -44.7688 H         1 UNK         0.3000 
    160 H160        2.9395  -18.0690  -43.7579 H         1 UNK         0.0600 
    161 H161        2.4273  -15.6116  -45.4694 H         1 UNK         0.0600 
    162 H162        3.1655  -17.0696  -46.1310 H         1 UNK         0.0600 
    163 H163        3.9542  -16.2095  -44.8211 H         1 UNK         0.0600 
    164 H164        1.4544  -15.5543  -43.3737 H         1 UNK         0.3000 
    165 H165        0.3380  -16.4309  -40.1168 H         1 UNK         0.0600 
    166 H166        1.5167  -14.3212  -39.5414 H         1 UNK         0.0600 
    167 H167        2.6733  -15.6274  -39.7481 H         1 UNK         0.0600 
    168 H168        2.4768  -14.4241  -41.0168 H         1 UNK         0.0600 
    169 H169        0.1174  -14.0489  -41.6954 H         1 UNK         0.3000 
    170 H170       -2.8346  -14.9426  -43.4662 H         1 UNK         0.0600 
    171 H171       -2.5324  -13.1211  -41.0252 H         1 UNK         0.0600 
    172 H172       -3.8200  -13.0515  -42.2293 H         1 UNK         0.0600 
    173 H173       -3.6843  -14.4437  -41.1682 H         1 UNK         0.0600 
    174 H174       -1.6846  -12.4330  -43.3018 H         1 UNK         0.3000 
    175 H175       -0.2306  -12.5628  -46.2908 H         1 UNK         0.0600 
    176 H176       -0.4397  -10.8114  -43.7796 H         1 UNK         0.0600 
    177 H177       -0.2197  -10.2371  -45.4251 H         1 UNK         0.0600 
    178 H178       -1.7088  -11.0487  -44.9846 H         1 UNK         0.0600 
    179 H179        1.9455  -12.2529  -46.0186 H         1 UNK         0.3000 
    180 H180        4.0493  -11.4138  -43.3894 H         1 UNK         0.0600 
    181 H181        5.5738  -13.1568  -44.1601 H         1 UNK         0.0600 
    182 H182        4.3070  -13.9334  -45.1026 H         1 UNK         0.0600 
    183 H183        4.2399  -13.9560  -43.3400 H         1 UNK         0.0600 
    184 H184        4.2751  -11.8977  -46.2743 H         1 UNK         0.3000 
    185 H185        3.4871   -8.5426  -47.2083 H         1 UNK         0.0600 
    186 H186        5.4587   -9.0807  -48.6221 H         1 UNK         0.0600 
    187 H187        5.9239   -8.7851  -46.9542 H         1 UNK         0.0600 
    188 H188        5.8749  -10.4293  -47.5664 H         1 UNK         0.0600 
    189 H189        2.2772   -9.8505  -48.4938 H         1 UNK         0.3000 
    190 H190       -1.6677  -22.5638  -45.2776 H         1 UNK         0.3000 
    191 H191       -3.5009  -24.1010  -46.7421 H         1 UNK         0.0600 
    192 H192       -4.1134  -22.3272  -45.1368 H         1 UNK         0.0600 
    193 H193       -3.5230  -23.3091  -43.7963 H         1 UNK         0.0600 
    194 H194       -4.9201  -23.8289  -44.7328 H         1 UNK         0.0600 
    195 H195       -1.3991  -25.7951  -46.7659 H         1 UNK         0.3000 
    196 H196       -2.0393  -28.1542  -45.0914 H         1 UNK         0.0600 
    197 H197        0.3244  -27.7355  -45.6745 H         1 UNK         0.0600 
    198 H198       -0.0571  -27.7249  -47.3927 H         1 UNK         0.0600 
    199 H199       -0.2309  -29.2065  -46.4594 H         1 UNK         0.0600 
    200 H200       -4.3155  -27.8324  -45.8118 H         1 UNK         0.3000 
    201 H201       -6.1680  -28.3967  -46.8830 H         1 UNK         0.0600 
    202 H202       -5.3293  -30.7211  -46.6749 H         1 UNK         0.0600 
    203 H203       -4.4982  -30.6030  -48.2190 H         1 UNK         0.0600 
    204 H204       -6.2591  -30.5360  -48.1479 H         1 UNK         0.0600 
    205 H205       -5.2748  -29.5917  -49.8769 H         1 UNK         0.3000 
    206 H206       -6.3932  -27.4241  -51.3169 H         1 UNK         0.0600 
    207 H207       -4.7726  -29.8412  -52.2820 H         1 UNK         0.0600 
    208 H208       -6.5208  -29.7926  -52.0476 H         1 UNK         0.0600 
    209 H209       -5.7754  -28.8152  -53.3003 H         1 UNK         0.0600 
    210 H210       -3.1729  -27.7266  -50.1557 H         1 UNK         0.3000 
    211 H211       -1.8094  -26.2853  -52.2630 H         1 UNK         0.0600 
    212 H212       -0.9885  -26.8168  -49.3638 H         1 UNK         0.0600 
    213 H213        0.0778  -26.3337  -50.6727 H         1 UNK         0.0600 
    214 H214       -0.6853  -27.9170  -50.7099 H         1 UNK         0.0600 
    215 H215       -3.9992  -25.2272  -49.9145 H         1 UNK         0.3000 
    216 H216       -3.0062  -23.0168  -48.6854 H         1 UNK         0.0600 
    217 H217       -5.4133  -22.3157  -48.4893 H         1 UNK         0.0600 
    218 H218       -5.2531  -24.0453  -48.2557 H         1 UNK         0.0600 
    219 H219       -5.8438  -23.4202  -49.7899 H         1 UNK         0.0600 
    220 H220       -3.1341  -20.7923  -48.8614 H         1 UNK         0.3000 
    221 H221       -2.2348  -19.5868  -51.1839 H         1 UNK         0.0600 
    222 H222       -3.6333  -18.3221  -48.7705 H         1 UNK         0.0600 
    223 H223       -1.9080  -18.6579  -48.9239 H         1 UNK         0.0600 
    224 H224       -2.6625  -17.4569  -49.9569 H         1 UNK         0.0600 
    225 H225       -5.5821  -19.8860  -50.0335 H         1 UNK         0.3000 
    226 H226       -6.8608  -18.1765  -51.8973 H         1 UNK         0.0600 
    227 H227       -8.9107  -19.4393  -51.2109 H         1 UNK         0.0600 
    228 H228       -7.9105  -20.6480  -50.4140 H         1 UNK         0.0600 
    229 H229       -7.9421  -18.9876  -49.8177 H         1 UNK         0.0600 
    230 H230       -5.6348  -21.4702  -52.2777 H         1 UNK         0.3000 
    231 H231       -7.0137  -21.8518  -54.8800 H         1 UNK         0.0600 
    232 H232       -6.0110  -24.1151  -54.7647 H         1 UNK         0.0600 
    233 H233       -6.9430  -23.7811  -53.3133 H         1 UNK         0.0600 
    234 H234       -5.1835  -23.7084  -53.2689 H         1 UNK         0.0600 
    235 H235       -3.7732  -21.4176  -53.4229 H         1 UNK         0.3000 
    236 H236       -2.2699  -21.7190  -55.7975 H         1 UNK         0.0600 
    237 H237       -1.5396  -20.2306  -53.2265 H         1 UNK         0.0600 
    238 H238       -1.3552  -21.9633  -53.4835 H         1 UNK         0.0600 
    239 H239       -0.4089  -20.8246  -54.4326 H         1 UNK         0.0600 
    240 H240       -3.6068  -18.7416  -54.2761 H         1 UNK         0.3000 
    241 H241       -3.1984  -17.2753  -56.7885 H         1 UNK         0.0600 
    242 H242       -5.5915  -18.1977  -54.8328 H         1 UNK         0.3800 
    243 H243       -6.5538  -16.7507  -54.9166 H         1 UNK         0.3800 
    244 H244       -1.1329  -16.7590  -55.7030 H         1 UNK         0.0800 
    245 H245       -2.1217  -15.3410  -55.6248 H         1 UNK         0.0800 
    246 H246       -0.2927  -18.1067  -53.7908 H         1 UNK         0.0800 
    247 H247        0.5569  -16.5785  -53.7227 H         1 UNK         0.0800 
@<TRIPOS>BOND
     1    1    2 1    
     2    1  127 1    
     3    1  128 1    
     4    1  129 1    
     5    2    3 2    
     6    2    4 am   BACKBONE|DICT|INTERRES
     7    4    5 1    
     8    4  130 1    
     9    5    6 1    
    10    5   65 1    
    11    5  131 1    
    12    6    7 1    
    13    6  132 1    
    14    6  133 1    
    15    7    8 1    
    16    8    9 1    
    17    8  134 1    
    18    8  135 1    
    19    9   10 ar   
    20    9   14 ar   
    21   10   11 ar   
    22   10  136 1    
    23   11   12 ar   
    24   11  126 1    
    25   12   13 ar   
    26   12  137 1    
    27   13   14 ar   
    28   13   15 1    
    29   14  138 1    
    30   15   16 1    
    31   15  139 1    
    32   15  140 1    
    33   16   17 1    
    34   17   18 1    
    35   17  141 1    
    36   17  142 1    
    37   18   19 1    
    38   18   67 1    
    39   18  143 1    
    40   19   20 am   BACKBONE|DICT|INTERRES
    41   19  144 1    
    42   20   21 2    
    43   20   22 1    
    44   22   23 1    
    45   22   24 1    
    46   22  145 1    
    47   23  146 1    
    48   23  147 1    
    49   23  148 1    
    50   24   25 am   BACKBONE|DICT|INTERRES
    51   24  149 1    
    52   25   26 2    
    53   25   27 1    
    54   27   28 1    
    55   27   29 1    
    56   27  150 1    
    57   28  151 1    
    58   28  152 1    
    59   28  153 1    
    60   29   30 am   BACKBONE|DICT|INTERRES
    61   29  154 1    
    62   30   31 2    
    63   30   32 1    
    64   32   33 1    
    65   32   34 1    
    66   32  155 1    
    67   33  156 1    
    68   33  157 1    
    69   33  158 1    
    70   34   35 am   BACKBONE|DICT|INTERRES
    71   34  159 1    
    72   35   36 2    
    73   35   37 1    
    74   37   38 1    
    75   37   39 1    
    76   37  160 1    
    77   38  161 1    
    78   38  162 1    
    79   38  163 1    
    80   39   40 am   BACKBONE|DICT|INTERRES
    81   39  164 1    
    82   40   41 2    
    83   40   42 1    
    84   42   43 1    
    85   42   44 1    
    86   42  165 1    
    87   43  166 1    
    88   43  167 1    
    89   43  168 1    
    90   44   45 am   BACKBONE|DICT|INTERRES
    91   44  169 1    
    92   45   46 2    
    93   45   47 1    
    94   47   48 1    
    95   47   49 1    
    96   47  170 1    
    97   48  171 1    
    98   48  172 1    
    99   48  173 1    
   100   49   50 am   BACKBONE|DICT|INTERRES
   101   49  174 1    
   102   50   51 2    
   103   50   52 1    
   104   52   53 1    
   105   52   54 1    
   106   52  175 1    
   107   53  176 1    
   108   53  177 1    
   109   53  178 1    
   110   54   55 am   BACKBONE|DICT|INTERRES
   111   54  179 1    
   112   55   56 2    
   113   55   57 1    
   114   57   58 1    
   115   57   59 1    
   116   57  180 1    
   117   58  181 1    
   118   58  182 1    
   119   58  183 1    
   120   59   60 am   BACKBONE|DICT|INTERRES
   121   59  184 1    
   122   60   61 2    
   123   60   62 1    
   124   62   63 1    
   125   62   64 1    
   126   62  185 1    
   127   63  186 1    
   128   63  187 1    
   129   63  188 1    
   130   64   65 am   BACKBONE|DICT|INTERRES
   131   64  189 1    
   132   65   66 2    
   133   67   68 2    
   134   67   69 am   BACKBONE|DICT|INTERRES
   135   69   70 1    
   136   69  190 1    
   137   70   71 1    
   138   70   72 1    
   139   70  191 1    
   140   71  192 1    
   141   71  193 1    
   142   71  194 1    
   143   72   73 2    
   144   72   74 am   BACKBONE|DICT|INTERRES
   145   74   75 1    
   146   74  195 1    
   147   75   76 1    
   148   75   77 1    
   149   75  196 1    
   150   76  197 1    
   151   76  198 1    
   152   76  199 1    
   153   77   78 2    
   154   77   79 am   BACKBONE|DICT|INTERRES
   155   79   80 1    
   156   79  200 1    
   157   80   81 1    
   158   80   82 1    
   159   80  201 1    
   160   81  202 1    
   161   81  203 1    
   162   81  204 1    
   163   82   83 2    
   164   82   84 am   BACKBONE|DICT|INTERRES
   165   84   85 1    
   166   84  205 1    
   167   85   86 1    
   168   85   87 1    
   169   85  206 1    
   170   86  207 1    
   171   86  208 1    
   172   86  209 1    
   173   87   88 2    
   174   87   89 am   BACKBONE|DICT|INTERRES
   175   89   90 1    
   176   89  210 1    
   177   90   91 1    
   178   90   92 1    
   179   90  211 1    
   180   91  212 1    
   181   91  213 1    
   182   91  214 1    
   183   92   93 2    
   184   92   94 am   BACKBONE|DICT|INTERRES
   185   94   95 1    
   186   94  215 1    
   187   95   96 1    
   188   95   97 1    
   189   95  216 1    
   190   96  217 1    
   191   96  218 1    
   192   96  219 1    
   193   97   98 2    
   194   97   99 am   BACKBONE|DICT|INTERRES
   195   99  100 1    
   196   99  220 1    
   197  100  101 1    
   198  100  102 1    
   199  100  221 1    
   200  101  222 1    
   201  101  223 1    
   202  101  224 1    
   203  102  103 2    
   204  102  104 am   BACKBONE|DICT|INTERRES
   205  104  105 1    
   206  104  225 1    
   207  105  106 1    
   208  105  107 1    
   209  105  226 1    
   210  106  227 1    
   211  106  228 1    
   212  106  229 1    
   213  107  108 2    
   214  107  109 am   BACKBONE|DICT|INTERRES
   215  109  110 1    
   216  109  230 1    
   217  110  111 1    
   218  110  112 1    
   219  110  231 1    
   220  111  232 1    
   221  111  233 1    
   222  111  234 1    
   223  112  113 2    
   224  112  114 am   BACKBONE|DICT|INTERRES
   225  114  115 1    
   226  114  235 1    
   227  115  116 1    
   228  115  117 1    
   229  115  236 1    
   230  116  237 1    
   231  116  238 1    
   232  116  239 1    
   233  117  118 2    
   234  117  119 am   BACKBONE|DICT|INTERRES
   235  119  120 1    
   236  119  240 1    
   237  120  121 1    
   238  120  124 1    
   239  120  241 1    
   240  121  122 am   BACKBONE|DICT|INTERRES
   241  121  123 2    
   242  122  242 1    
   243  122  243 1    
   244  124  125 1    
   245  124  244 1    
   246  124  245 1    
   247  125  126 1    
   248  126  246 1    
   249  126  247 1    
@<TRIPOS>SUBSTRUCTURE
     1 UNK         1 GROUP             0       ****    0 ROOT    
