@<TRIPOS>MOLECULE
3R540
247   249    1
SMALL
USER_CHARGES


@<TRIPOS>ATOM
      1 CA         -4.0233  -18.1375  -47.5405 C.3       0 UNK        -0.1800 
      2 C          -3.7273  -16.6684  -47.8076 C.2       0 UNK         0.5000 
      3 O          -4.6474  -15.8525  -47.8675 O.2       0 UNK        -0.5000 
      4 N          -2.4432  -16.3243  -47.9550 N.am      1 UNK        -0.5000 
      5 CA         -1.9156  -14.9699  -48.1540 C.3       1 UNK         0.1400 
      6 C6         -0.5115  -15.0123  -48.8199 C.3       23 UNK        -0.0398 
      7 S7          0.6926  -16.0834  -47.9482 S.3       23 UNK        -0.2404 
      8 C8          1.6447  -16.8071  -49.3217 C.3       23 UNK        -0.0205 
      9 C9          0.8476  -17.7638  -50.2020 C.ar      23 UNK        -0.0193 
     10 C10         1.0508  -17.7505  -51.5850 C.ar      23 UNK        -0.1150 
     11 C11         0.3685  -18.6429  -52.4153 C.ar      23 UNK        -0.0193 
     12 C12        -0.5340  -19.5497  -51.8536 C.ar      23 UNK        -0.1150 
     13 C13        -0.7429  -19.5809  -50.4716 C.ar      23 UNK        -0.0193 
     14 C14        -0.0469  -18.6892  -49.6512 C.ar      23 UNK        -0.1150 
     15 C15        -1.7215  -20.5775  -49.8705 C.3       23 UNK        -0.0205 
     16 S16        -0.8872  -22.1050  -49.3451 S.3       23 UNK        -0.2404 
     17 C17        -0.2349  -21.6144  -47.7120 C.3       23 UNK        -0.0398 
     18 CA          0.1605  -22.8240  -46.8323 C.3       11 UNK         0.1400 
     19 N           0.9704  -22.4184  -45.6833 N.am      11 UNK        -0.5000 
     20 C           1.6428  -23.2615  -44.8875 C.2       10 UNK         0.5000 
     21 O           1.7237  -24.4732  -45.0880 O.2       10 UNK        -0.5000 
     22 CA          2.2958  -22.6557  -43.6304 C.3       10 UNK         0.1400 
     23 CB          3.6675  -22.0505  -43.9624 C.3       10 UNK        -0.1800 
     24 N           1.4506  -21.6478  -42.9850 N.am      10 UNK        -0.5000 
     25 C           0.2523  -21.9077  -42.4411 C.2       9 UNK         0.5000 
     26 O          -0.2399  -23.0340  -42.3841 O.2       9 UNK        -0.5000 
     27 CA         -0.5542  -20.7086  -41.9127 C.3       9 UNK         0.1400 
     28 CB         -0.0758  -20.3052  -40.5104 C.3       9 UNK        -0.1800 
     29 N          -0.5016  -19.5515  -42.8061 N.am      9 UNK        -0.5000 
     30 C          -0.9833  -19.5265  -44.0575 C.2       8 UNK         0.5000 
     31 O          -1.5648  -20.4713  -44.5887 O.2       8 UNK        -0.5000 
     32 CA         -0.7149  -18.2519  -44.8761 C.3       8 UNK         0.1400 
     33 CB         -1.6715  -17.1248  -44.4635 C.3       8 UNK        -0.1800 
     34 N           0.6696  -17.8014  -44.7447 N.am      8 UNK        -0.5000 
     35 C           1.7400  -18.5117  -45.1286 C.2       7 UNK         0.5000 
     36 O           1.6684  -19.5986  -45.7022 O.2       7 UNK        -0.5000 
     37 CA          3.1183  -17.9449  -44.7497 C.3       7 UNK         0.1400 
     38 CB          3.6293  -16.9582  -45.8090 C.3       7 UNK        -0.1800 
     39 N           3.0889  -17.2931  -43.4408 N.am      7 UNK        -0.5000 
     40 C           3.0299  -17.9497  -42.2744 C.2       6 UNK         0.5000 
     41 O           3.0360  -19.1776  -42.1830 O.2       6 UNK        -0.5000 
     42 CA          2.9082  -17.0909  -41.0007 C.3       6 UNK         0.1400 
     43 CB          4.2899  -16.5976  -40.5462 C.3       6 UNK        -0.1800 
     44 N           2.0150  -15.9427  -41.1720 N.am      6 UNK        -0.5000 
     45 C           0.6911  -16.0415  -41.3545 C.2       5 UNK         0.5000 
     46 O           0.0850  -17.1120  -41.3558 O.2       5 UNK        -0.5000 
     47 CA         -0.0858  -14.7367  -41.6223 C.3       5 UNK         0.1400 
     48 CB         -0.5621  -14.1144  -40.3019 C.3       5 UNK        -0.1800 
     49 N           0.6366  -13.7230  -42.3986 N.am      5 UNK        -0.5000 
     50 C           1.2147  -13.9160  -43.5917 C.2       4 UNK         0.5000 
     51 O           1.3110  -15.0187  -44.1310 O.2       4 UNK        -0.5000 
     52 CA          1.7135  -12.6523  -44.3079 C.3       4 UNK         0.1400 
     53 CB          2.6224  -12.9759  -45.5075 C.3       4 UNK        -0.1800 
     54 N           0.5341  -11.9457  -44.7882 N.am      4 UNK        -0.5000 
     55 C           0.0869  -10.7583  -44.3642 C.2       3 UNK         0.5000 
     56 O           0.6938  -10.0452  -43.5643 O.2       3 UNK        -0.5000 
     57 CA         -1.2859  -10.2979  -44.9045 C.3       3 UNK         0.1400 
     58 CB         -1.1039   -9.4092  -46.1442 C.3       3 UNK        -0.1800 
     59 N          -2.1814  -11.4091  -45.2425 N.am      3 UNK        -0.5000 
     60 C          -2.6782  -12.2851  -44.3583 C.2       2 UNK         0.5000 
     61 O          -2.5375  -12.1689  -43.1402 O.2       2 UNK        -0.5000 
     62 CA         -3.4413  -13.5116  -44.9056 C.3       2 UNK         0.1400 
     63 CB         -4.9568  -13.2898  -44.7870 C.3       2 UNK        -0.1800 
     64 N          -3.1416  -13.9534  -46.2764 N.am      2 UNK        -0.5000 
     65 C          -1.9391  -14.1683  -46.8293 C.2       1 UNK         0.5000 
     66 O          -0.8859  -13.8012  -46.3149 O.2       1 UNK        -0.5000 
     67 C          -1.0595  -23.6590  -46.3879 C.2       11 UNK         0.5000 
     68 O          -1.2867  -24.7344  -46.9405 O.2       11 UNK        -0.5000 
     69 N          -1.7963  -23.1900  -45.3699 N.am      12 UNK        -0.5000 
     70 CA         -2.9540  -23.8794  -44.7910 C.3       12 UNK         0.1400 
     71 CB         -3.6124  -22.9873  -43.7295 C.3       12 UNK        -0.1800 
     72 C          -2.6121  -25.2650  -44.2100 C.2       12 UNK         0.5000 
     73 O          -3.3810  -26.2077  -44.3999 O.2       12 UNK        -0.5000 
     74 N          -1.4362  -25.3851  -43.5779 N.am      13 UNK        -0.5000 
     75 CA         -0.8671  -26.6458  -43.0916 C.3       13 UNK         0.1400 
     76 CB          0.3718  -26.3441  -42.2351 C.3       13 UNK        -0.1800 
     77 C          -0.5211  -27.6450  -44.2169 C.2       13 UNK         0.5000 
     78 O          -0.4959  -28.8501  -43.9661 O.2       13 UNK        -0.5000 
     79 N          -0.3019  -27.1375  -45.4371 N.am      14 UNK        -0.5000 
     80 CA         -0.1014  -27.9079  -46.6657 C.3       14 UNK         0.1400 
     81 CB          0.9794  -27.2139  -47.5141 C.3       14 UNK        -0.1800 
     82 C          -1.4181  -28.1028  -47.4537 C.2       14 UNK         0.5000 
     83 O          -1.3676  -28.4468  -48.6349 O.2       14 UNK        -0.5000 
     84 N          -2.5653  -27.8902  -46.7895 N.am      15 UNK        -0.5000 
     85 CA         -3.9430  -28.0226  -47.2791 C.3       15 UNK         0.1400 
     86 CB         -4.2189  -29.4281  -47.8557 C.3       15 UNK        -0.1800 
     87 C          -4.4016  -26.8815  -48.2120 C.2       15 UNK         0.5000 
     88 O          -5.4078  -27.0402  -48.9062 O.2       15 UNK        -0.5000 
     89 N          -3.6997  -25.7397  -48.1643 N.am      16 UNK        -0.5000 
     90 CA         -3.9691  -24.4817  -48.8680 C.3       16 UNK         0.1400 
     91 CB         -5.3437  -23.9073  -48.4592 C.3       16 UNK        -0.1800 
     92 C          -3.7922  -24.5597  -50.3994 C.2       16 UNK         0.5000 
     93 O          -3.4414  -25.6043  -50.9531 O.2       16 UNK        -0.5000 
     94 N          -4.0183  -23.4173  -51.0525 N.am      17 UNK        -0.5000 
     95 CA         -3.9312  -23.1884  -52.4889 C.3       17 UNK         0.1400 
     96 CB         -2.4575  -23.1549  -52.9398 C.3       17 UNK        -0.1800 
     97 C          -4.6466  -21.8626  -52.7936 C.2       17 UNK         0.5000 
     98 O          -5.0044  -21.1299  -51.8645 O.2       17 UNK        -0.5000 
     99 N          -4.8415  -21.5694  -54.0845 N.am      18 UNK        -0.5000 
    100 CA        -5.4901  -20.3589  -54.5932 C.3       18 UNK         0.1400 
    101 CB        -5.9181  -20.6040  -56.0517 C.3       18 UNK        -0.1800 
    102 C         -4.5875  -19.1155  -54.4524 C.2       18 UNK         0.5000 
    103 O         -4.0939  -18.5933  -55.4531 O.2       18 UNK        -0.5000 
    104 N         -4.3892  -18.6631  -53.2076 N.am      19 UNK        -0.5000 
    105 CA        -3.5082  -17.5603  -52.8010 C.3       19 UNK         0.1400 
    106 CB        -3.5587  -17.4315  -51.2722 C.3       19 UNK        -0.1800 
    107 C         -3.8096  -16.1949  -53.4526 C.2       19 UNK         0.5000 
    108 O         -2.9381  -15.3260  -53.4756 O.2       19 UNK        -0.5000 
    109 N         -5.0322  -16.0265  -53.9716 N.am      20 UNK        -0.5000 
    110 CA        -5.4644  -14.8536  -54.7293 C.3       20 UNK         0.1400 
    111 CB        -6.9994  -14.8582  -54.8045 C.3       20 UNK        -0.1800 
    112 C         -4.8581  -14.7767  -56.1467 C.2       20 UNK         0.5000 
    113 O         -4.8675  -13.6941  -56.7347 O.2       20 UNK        -0.5000 
    114 N         -4.3681  -15.9063  -56.6778 N.am      21 UNK        -0.5000 
    115 CA        -3.8250  -16.0224  -58.0313 C.3       21 UNK         0.1400 
    116 CB        -4.7755  -16.8818  -58.8815 C.3       21 UNK        -0.1800 
    117 C         -2.4087  -16.6178  -58.0352 C.2       21 UNK         0.5000 
    118 O         -1.5420  -16.0977  -58.7389 O.2       21 UNK        -0.5000 
    119 N         -2.2016  -17.6977  -57.2688 N.am      22 UNK        -0.5000 
    120 CA        -0.9547  -18.4809  -57.1762 C.3       22 UNK         0.1400 
    121 C         -0.5240  -19.1886  -58.5002 C.2       22 UNK         0.5000 
    122 N         -1.4202  -19.4008  -59.4564 N.am      22 UNK        -0.7600 
    123 O          0.6277  -19.5855  -58.6570 O.2       22 UNK        -0.5000 
    124 C124        0.2059  -17.6985  -56.4986 C.3       23 UNK        -0.0398 
    125 S125       -0.1777  -17.2726  -54.7668 S.3       23 UNK        -0.2404 
    126 C126        0.6399  -18.6541  -53.9116 C.3       23 UNK        -0.0205 
    127 H127       -4.4788  -18.5956  -48.4183 H         1 UNK         0.0600 
    128 H128       -4.7168  -18.2345  -46.7052 H         1 UNK         0.0600 
    129 H129       -3.1192  -18.6925  -47.2904 H         1 UNK         0.0600 
    130 H130       -1.7272  -17.0313  -47.8809 H         1 UNK         0.3000 
    131 H131       -2.5797  -14.4449  -48.8438 H         1 UNK         0.0600 
    132 H132       -0.6205  -15.3698  -49.8445 H         1 UNK         0.0800 
    133 H133       -0.0904  -14.0091  -48.9043 H         1 UNK         0.0800 
    134 H134        2.4910  -17.3543  -48.9064 H         1 UNK         0.0800 
    135 H135        2.0643  -15.9938  -49.9157 H         1 UNK         0.0800 
    136 H136        1.7531  -17.0534  -52.0204 H         1 UNK         0.1150 
    137 H137       -1.0662  -20.2385  -52.4931 H         1 UNK         0.1150 
    138 H138       -0.1925  -18.7244  -48.5815 H         1 UNK         0.1150 
    139 H139       -2.2543  -20.1319  -49.0309 H         1 UNK         0.0800 
    140 H140       -2.4854  -20.8307  -50.6059 H         1 UNK         0.0800 
    141 H141       -0.9596  -20.9822  -47.1971 H         1 UNK         0.0800 
    142 H142        0.6419  -20.9901  -47.8890 H         1 UNK         0.0800 
    143 H143        0.7906  -23.4774  -47.4401 H         1 UNK         0.0600 
    144 H144        1.0107  -21.4233  -45.4829 H         1 UNK         0.3000 
    145 H145        2.4488  -23.4662  -42.9147 H         1 UNK         0.0600 
    146 H146        4.1564  -21.6657  -43.0673 H         1 UNK         0.0600 
    147 H147        4.3286  -22.8009  -44.3975 H         1 UNK         0.0600 
    148 H148        3.5857  -21.2326  -44.6777 H         1 UNK         0.0600 
    149 H149        1.8127  -20.7015  -42.9477 H         1 UNK         0.3000 
    150 H150       -1.5979  -21.0190  -41.8358 H         1 UNK         0.0600 
    151 H151       -0.1148  -21.1527  -39.8249 H         1 UNK         0.0600 
    152 H152       -0.7044  -19.5193  -40.0914 H         1 UNK         0.0600 
    153 H153        0.9512  -19.9393  -40.5238 H         1 UNK         0.0600 
    154 H154       -0.0847  -18.7065  -42.4254 H         1 UNK         0.3000 
    155 H155       -0.8855  -18.4790  -45.9302 H         1 UNK         0.0600 
    156 H156       -1.6707  -16.9636  -43.3863 H         1 UNK         0.0600 
    157 H157       -2.6957  -17.3561  -44.7568 H         1 UNK         0.0600 
    158 H158       -1.3951  -16.1849  -44.9366 H         1 UNK         0.0600 
    159 H159        0.8242  -16.8792  -44.3466 H         1 UNK         0.3000 
    160 H160        3.8217  -18.7787  -44.7042 H         1 UNK         0.0600 
    161 H161        4.6216  -16.5856  -45.5555 H         1 UNK         0.0600 
    162 H162        2.9670  -16.0994  -45.9171 H         1 UNK         0.0600 
    163 H163        3.7022  -17.4408  -46.7837 H         1 UNK         0.0600 
    164 H164        2.9680  -16.2890  -43.4435 H         1 UNK         0.3000 
    165 H165        2.4978  -17.7253  -40.2120 H         1 UNK         0.0600 
    166 H166        4.2244  -16.0573  -39.6016 H         1 UNK         0.0600 
    167 H167        4.9720  -17.4351  -40.3938 H         1 UNK         0.0600 
    168 H168        4.7443  -15.9337  -41.2827 H         1 UNK         0.0600 
    169 H169        2.4383  -15.0267  -41.1908 H         1 UNK         0.3000 
    170 H170       -0.9702  -15.0030  -42.2034 H         1 UNK         0.0600 
    171 H171       -1.1254  -14.8366  -39.7092 H         1 UNK         0.0600 
    172 H172        0.2755  -13.7711  -39.6937 H         1 UNK         0.0600 
    173 H173       -1.2190  -13.2630  -40.4828 H         1 UNK         0.0600 
    174 H174        0.5821  -12.7776  -42.0476 H         1 UNK         0.3000 
    175 H175        2.2778  -12.0500  -43.5933 H         1 UNK         0.0600 
    176 H176        2.1013  -13.5702  -46.2601 H         1 UNK         0.0600 
    177 H177        2.9748  -12.0641  -45.9896 H         1 UNK         0.0600 
    178 H178        3.5006  -13.5401  -45.1918 H         1 UNK         0.0600 
    179 H179       -0.0612  -12.5010  -45.4030 H         1 UNK         0.3000 
    180 H180       -1.7651   -9.7037  -44.1237 H         1 UNK         0.0600 
    181 H181       -0.6463   -9.9582  -46.9683 H         1 UNK         0.0600 
    182 H182       -0.4624   -8.5554  -45.9219 H         1 UNK         0.0600 
    183 H183       -2.0592   -9.0149  -46.4913 H         1 UNK         0.0600 
    184 H184       -2.3300  -11.5912  -46.2239 H         1 UNK         0.3000 
    185 H185       -3.1760  -14.3466  -44.2544 H         1 UNK         0.0600 
    186 H186       -5.2985  -12.5022  -45.4597 H         1 UNK         0.0600 
    187 H187       -5.5091  -14.1989  -45.0262 H         1 UNK         0.0600 
    188 H188       -5.2355  -13.0004  -43.7728 H         1 UNK         0.0600 
    189 H189       -3.9317  -14.3340  -46.7882 H         1 UNK         0.3000 
    190 H190       -1.5747  -22.2757  -44.9813 H         1 UNK         0.3000 
    191 H191       -3.6758  -24.0327  -45.5952 H         1 UNK         0.0600 
    192 H192       -2.9361  -22.7839  -42.8996 H         1 UNK         0.0600 
    193 H193       -4.5034  -23.4630  -43.3181 H         1 UNK         0.0600 
    194 H194       -3.9200  -22.0312  -44.1533 H         1 UNK         0.0600 
    195 H195       -0.8917  -24.5446  -43.4029 H         1 UNK         0.3000 
    196 H196       -1.6136  -27.1218  -42.4526 H         1 UNK         0.0600 
    197 H197        0.8003  -27.2613  -41.8292 H         1 UNK         0.0600 
    198 H198        0.1207  -25.7015  -41.3911 H         1 UNK         0.0600 
    199 H199        1.1494  -25.8464  -42.8145 H         1 UNK         0.0600 
    200 H200       -0.3632  -26.1339  -45.5612 H         1 UNK         0.3000 
    201 H201        0.2664  -28.9045  -46.4144 H         1 UNK         0.0600 
    202 H202        1.8937  -27.0626  -46.9399 H         1 UNK         0.0600 
    203 H203        0.6490  -26.2403  -47.8757 H         1 UNK         0.0600 
    204 H204        1.2407  -27.8149  -48.3857 H         1 UNK         0.0600 
    205 H205       -2.4957  -27.5592  -45.8347 H         1 UNK         0.3000 
    206 H206       -4.5651  -27.9239  -46.3885 H         1 UNK         0.0600 
    207 H207       -3.8799  -30.2091  -47.1752 H         1 UNK         0.0600 
    208 H208       -5.2868  -29.5808  -48.0151 H         1 UNK         0.0600 
    209 H209       -3.7256  -29.5784  -48.8161 H         1 UNK         0.0600 
    210 H210       -2.8505  -25.7274  -47.6077 H         1 UNK         0.3000 
    211 H211       -3.2128  -23.7826  -48.5141 H         1 UNK         0.0600 
    212 H212       -6.1667  -24.4780  -48.8902 H         1 UNK         0.0600 
    213 H213       -5.4577  -22.8741  -48.7882 H         1 UNK         0.0600 
    214 H214       -5.4669  -23.9099  -47.3762 H         1 UNK         0.0600 
    215 H215       -4.3479  -22.6036  -50.5471 H         1 UNK         0.3000 
    216 H216       -4.4599  -23.9888  -53.0100 H         1 UNK         0.0600 
    217 H217       -2.3685  -22.9253  -54.0020 H         1 UNK         0.0600 
    218 H218       -1.9730  -24.1182  -52.7808 H         1 UNK         0.0600 
    219 H219       -1.8866  -22.4070  -52.3916 H         1 UNK         0.0600 
    220 H220       -4.4969  -22.2107  -54.7843 H         1 UNK         0.3000 
    221 H221       -6.3946  -20.1749  -54.0094 H         1 UNK         0.0600 
    222 H222       -5.0638  -20.8270  -56.6923 H         1 UNK         0.0600 
    223 H223       -6.6169  -21.4377  -56.1226 H         1 UNK         0.0600 
    224 H224       -6.4182  -19.7271  -56.4654 H         1 UNK         0.0600 
    225 H225       -4.7948  -19.2109  -52.4559 H         1 UNK         0.3000 
    226 H226       -2.4949  -17.8393  -53.0881 H         1 UNK         0.0600 
    227 H227       -4.5386  -17.0975  -50.9291 H         1 UNK         0.0600 
    228 H228       -3.3427  -18.3809  -50.7857 H         1 UNK         0.0600 
    229 H229       -2.8202  -16.7108  -50.9185 H         1 UNK         0.0600 
    230 H230       -5.6901  -16.7876  -53.8953 H         1 UNK         0.3000 
    231 H231       -5.1512  -13.9579  -54.1886 H         1 UNK         0.0600 
    232 H232       -7.4438  -14.8458  -53.8091 H         1 UNK         0.0600 
    233 H233       -7.3737  -15.7378  -55.3299 H         1 UNK         0.0600 
    234 H234       -7.3679  -13.9784  -55.3338 H         1 UNK         0.0600 
    235 H235       -4.3613  -16.7501  -56.1145 H         1 UNK         0.3000 
    236 H236       -3.7535  -15.0394  -58.5015 H         1 UNK         0.0600 
    237 H237       -4.3910  -17.0073  -59.8945 H         1 UNK         0.0600 
    238 H238       -4.9132  -17.8758  -58.4535 H         1 UNK         0.0600 
    239 H239       -5.7574  -16.4155  -58.9625 H         1 UNK         0.0600 
    240 H240       -2.9656  -18.0512  -56.6962 H         1 UNK         0.3000 
    241 H241       -1.1993  -19.3133  -56.5155 H         1 UNK         0.0600 
    242 H242       -2.3742  -19.0995  -59.3412 H         1 UNK         0.3800 
    243 H243       -1.1396  -19.8678  -60.3045 H         1 UNK         0.3800 
    244 H244        1.1318  -18.2753  -56.5095 H         1 UNK         0.0800 
    245 H245        0.4239  -16.7809  -57.0458 H         1 UNK         0.0800 
    246 H246        1.7159  -18.6005  -54.0845 H         1 UNK         0.0800 
    247 H247        0.3046  -19.5965  -54.3477 H         1 UNK         0.0800 
@<TRIPOS>BOND
     1    1    2 1    
     2    1  127 1    
     3    1  128 1    
     4    1  129 1    
     5    2    3 2    
     6    2    4 am   BACKBONE|DICT|INTERRES
     7    4    5 1    
     8    4  130 1    
     9    5    6 1    
    10    5   65 1    
    11    5  131 1    
    12    6    7 1    
    13    6  132 1    
    14    6  133 1    
    15    7    8 1    
    16    8    9 1    
    17    8  134 1    
    18    8  135 1    
    19    9   10 ar   
    20    9   14 ar   
    21   10   11 ar   
    22   10  136 1    
    23   11   12 ar   
    24   11  126 1    
    25   12   13 ar   
    26   12  137 1    
    27   13   14 ar   
    28   13   15 1    
    29   14  138 1    
    30   15   16 1    
    31   15  139 1    
    32   15  140 1    
    33   16   17 1    
    34   17   18 1    
    35   17  141 1    
    36   17  142 1    
    37   18   19 1    
    38   18   67 1    
    39   18  143 1    
    40   19   20 am   BACKBONE|DICT|INTERRES
    41   19  144 1    
    42   20   21 2    
    43   20   22 1    
    44   22   23 1    
    45   22   24 1    
    46   22  145 1    
    47   23  146 1    
    48   23  147 1    
    49   23  148 1    
    50   24   25 am   BACKBONE|DICT|INTERRES
    51   24  149 1    
    52   25   26 2    
    53   25   27 1    
    54   27   28 1    
    55   27   29 1    
    56   27  150 1    
    57   28  151 1    
    58   28  152 1    
    59   28  153 1    
    60   29   30 am   BACKBONE|DICT|INTERRES
    61   29  154 1    
    62   30   31 2    
    63   30   32 1    
    64   32   33 1    
    65   32   34 1    
    66   32  155 1    
    67   33  156 1    
    68   33  157 1    
    69   33  158 1    
    70   34   35 am   BACKBONE|DICT|INTERRES
    71   34  159 1    
    72   35   36 2    
    73   35   37 1    
    74   37   38 1    
    75   37   39 1    
    76   37  160 1    
    77   38  161 1    
    78   38  162 1    
    79   38  163 1    
    80   39   40 am   BACKBONE|DICT|INTERRES
    81   39  164 1    
    82   40   41 2    
    83   40   42 1    
    84   42   43 1    
    85   42   44 1    
    86   42  165 1    
    87   43  166 1    
    88   43  167 1    
    89   43  168 1    
    90   44   45 am   BACKBONE|DICT|INTERRES
    91   44  169 1    
    92   45   46 2    
    93   45   47 1    
    94   47   48 1    
    95   47   49 1    
    96   47  170 1    
    97   48  171 1    
    98   48  172 1    
    99   48  173 1    
   100   49   50 am   BACKBONE|DICT|INTERRES
   101   49  174 1    
   102   50   51 2    
   103   50   52 1    
   104   52   53 1    
   105   52   54 1    
   106   52  175 1    
   107   53  176 1    
   108   53  177 1    
   109   53  178 1    
   110   54   55 am   BACKBONE|DICT|INTERRES
   111   54  179 1    
   112   55   56 2    
   113   55   57 1    
   114   57   58 1    
   115   57   59 1    
   116   57  180 1    
   117   58  181 1    
   118   58  182 1    
   119   58  183 1    
   120   59   60 am   BACKBONE|DICT|INTERRES
   121   59  184 1    
   122   60   61 2    
   123   60   62 1    
   124   62   63 1    
   125   62   64 1    
   126   62  185 1    
   127   63  186 1    
   128   63  187 1    
   129   63  188 1    
   130   64   65 am   BACKBONE|DICT|INTERRES
   131   64  189 1    
   132   65   66 2    
   133   67   68 2    
   134   67   69 am   BACKBONE|DICT|INTERRES
   135   69   70 1    
   136   69  190 1    
   137   70   71 1    
   138   70   72 1    
   139   70  191 1    
   140   71  192 1    
   141   71  193 1    
   142   71  194 1    
   143   72   73 2    
   144   72   74 am   BACKBONE|DICT|INTERRES
   145   74   75 1    
   146   74  195 1    
   147   75   76 1    
   148   75   77 1    
   149   75  196 1    
   150   76  197 1    
   151   76  198 1    
   152   76  199 1    
   153   77   78 2    
   154   77   79 am   BACKBONE|DICT|INTERRES
   155   79   80 1    
   156   79  200 1    
   157   80   81 1    
   158   80   82 1    
   159   80  201 1    
   160   81  202 1    
   161   81  203 1    
   162   81  204 1    
   163   82   83 2    
   164   82   84 am   BACKBONE|DICT|INTERRES
   165   84   85 1    
   166   84  205 1    
   167   85   86 1    
   168   85   87 1    
   169   85  206 1    
   170   86  207 1    
   171   86  208 1    
   172   86  209 1    
   173   87   88 2    
   174   87   89 am   BACKBONE|DICT|INTERRES
   175   89   90 1    
   176   89  210 1    
   177   90   91 1    
   178   90   92 1    
   179   90  211 1    
   180   91  212 1    
   181   91  213 1    
   182   91  214 1    
   183   92   93 2    
   184   92   94 am   BACKBONE|DICT|INTERRES
   185   94   95 1    
   186   94  215 1    
   187   95   96 1    
   188   95   97 1    
   189   95  216 1    
   190   96  217 1    
   191   96  218 1    
   192   96  219 1    
   193   97   98 2    
   194   97   99 am   BACKBONE|DICT|INTERRES
   195   99  100 1    
   196   99  220 1    
   197  100  101 1    
   198  100  102 1    
   199  100  221 1    
   200  101  222 1    
   201  101  223 1    
   202  101  224 1    
   203  102  103 2    
   204  102  104 am   BACKBONE|DICT|INTERRES
   205  104  105 1    
   206  104  225 1    
   207  105  106 1    
   208  105  107 1    
   209  105  226 1    
   210  106  227 1    
   211  106  228 1    
   212  106  229 1    
   213  107  108 2    
   214  107  109 am   BACKBONE|DICT|INTERRES
   215  109  110 1    
   216  109  230 1    
   217  110  111 1    
   218  110  112 1    
   219  110  231 1    
   220  111  232 1    
   221  111  233 1    
   222  111  234 1    
   223  112  113 2    
   224  112  114 am   BACKBONE|DICT|INTERRES
   225  114  115 1    
   226  114  235 1    
   227  115  116 1    
   228  115  117 1    
   229  115  236 1    
   230  116  237 1    
   231  116  238 1    
   232  116  239 1    
   233  117  118 2    
   234  117  119 am   BACKBONE|DICT|INTERRES
   235  119  120 1    
   236  119  240 1    
   237  120  121 1    
   238  120  124 1    
   239  120  241 1    
   240  121  122 am   BACKBONE|DICT|INTERRES
   241  121  123 2    
   242  122  242 1    
   243  122  243 1    
   244  124  125 1    
   245  124  244 1    
   246  124  245 1    
   247  125  126 1    
   248  126  246 1    
   249  126  247 1    
@<TRIPOS>SUBSTRUCTURE
     1 UNK         1 GROUP             0       ****    0 ROOT    
