@<TRIPOS>MOLECULE
3R540
247   249    1
SMALL
USER_CHARGES


@<TRIPOS>ATOM
      1 CA          4.6144  -12.3970  -50.7026 C.3       0 UNK        -0.1800 
      2 C           3.9085  -13.4963  -49.9214 C.2       0 UNK         0.5000 
      3 O           3.6691  -13.3401  -48.7244 O.2       0 UNK        -0.5000 
      4 N           3.5852  -14.6086  -50.5924 N.am      1 UNK        -0.5000 
      5 CA          2.8501  -15.7460  -50.0260 C.3       1 UNK         0.1400 
      6 C6          3.0862  -17.0408  -50.8446 C.3       23 UNK        -0.0398 
      7 S7          2.6230  -16.9150  -52.6117 S.3       23 UNK        -0.2404 
      8 C8          3.7844  -18.0847  -53.3863 C.3       23 UNK        -0.0205 
      9 C9          3.4527  -19.5241  -53.0252 C.ar      23 UNK        -0.0193 
     10 C10         2.4259  -20.1964  -53.6959 C.ar      23 UNK        -0.1150 
     11 C11         2.0851  -21.5045  -53.3408 C.ar      23 UNK        -0.0193 
     12 C12         2.7948  -22.1457  -52.3218 C.ar      23 UNK        -0.1150 
     13 C13         3.8259  -21.4864  -51.6467 C.ar      23 UNK        -0.0193 
     14 C14         4.1578  -20.1784  -52.0102 C.ar      23 UNK        -0.1150 
     15 C15         4.5424  -22.1786  -50.4933 C.3       23 UNK        -0.0205 
     16 S16         4.2325  -21.3832  -48.8778 S.3       23 UNK        -0.2404 
     17 C17         2.4129  -21.2495  -48.8342 C.3       23 UNK        -0.0398 
     18 CA          1.7268  -22.3434  -47.9874 C.3       11 UNK         0.1400 
     19 N           2.0067  -22.1504  -46.5599 N.am      11 UNK        -0.5000 
     20 C           1.4599  -22.7692  -45.5052 C.2       10 UNK         0.5000 
     21 O           0.5940  -23.6403  -45.5958 O.2       10 UNK        -0.5000 
     22 CA          1.9077  -22.2961  -44.1068 C.3       10 UNK         0.1400 
     23 CB          3.1235  -23.0992  -43.6091 C.3       10 UNK        -0.1800 
     24 N           2.1253  -20.8431  -44.0024 N.am      10 UNK        -0.5000 
     25 C           3.0789  -20.0857  -44.5701 C.2       9 UNK         0.5000 
     26 O           3.9938  -20.5501  -45.2495 O.2       9 UNK        -0.5000 
     27 CA          2.9671  -18.5540  -44.4310 C.3       9 UNK         0.1400 
     28 CB          2.7578  -17.9098  -45.8134 C.3       9 UNK        -0.1800 
     29 N           1.8754  -18.1330  -43.5514 N.am      9 UNK        -0.5000 
     30 C           1.9686  -17.9959  -42.2226 C.2       8 UNK         0.5000 
     31 O           3.0085  -18.1761  -41.5883 O.2       8 UNK        -0.5000 
     32 CA          0.6776  -17.6083  -41.4709 C.3       8 UNK         0.1400 
     33 CB          0.6256  -16.0892  -41.2478 C.3       8 UNK        -0.1800 
     34 N          -0.5675  -18.0353  -42.1207 N.am      8 UNK        -0.5000 
     35 C          -0.9029  -19.3015  -42.4079 C.2       7 UNK         0.5000 
     36 O          -0.1509  -20.2608  -42.2309 O.2       7 UNK        -0.5000 
     37 CA         -2.3029  -19.5167  -43.0151 C.3       7 UNK         0.1400 
     38 CB         -2.7270  -20.9998  -43.0620 C.3       7 UNK        -0.1800 
     39 N          -3.3356  -18.6906  -42.3857 N.am      7 UNK        -0.5000 
     40 C          -3.7169  -18.6836  -41.0981 C.2       6 UNK         0.5000 
     41 O          -3.2637  -19.4467  -40.2438 O.2       6 UNK        -0.5000 
     42 CA         -4.7993  -17.6487  -40.7084 C.3       6 UNK         0.1400 
     43 CB         -4.6691  -17.1694  -39.2469 C.3       6 UNK        -0.1800 
     44 N          -4.8802  -16.5103  -41.6366 N.am      6 UNK        -0.5000 
     45 C          -3.9262  -15.5994  -41.8773 C.2       5 UNK         0.5000 
     46 O          -2.8591  -15.5318  -41.2635 O.2       5 UNK        -0.5000 
     47 CA         -4.2096  -14.6199  -43.0324 C.3       5 UNK         0.1400 
     48 CB         -4.8080  -13.3114  -42.4957 C.3       5 UNK        -0.1800 
     49 N          -3.0197  -14.3071  -43.8265 N.am      5 UNK        -0.5000 
     50 C          -2.1966  -15.1890  -44.4089 C.2       4 UNK         0.5000 
     51 O          -2.3544  -16.4116  -44.3673 O.2       4 UNK        -0.5000 
     52 CA         -1.0259  -14.5848  -45.2069 C.3       4 UNK         0.1400 
     53 CB          0.0340  -15.6328  -45.5781 C.3       4 UNK        -0.1800 
     54 N          -1.5070  -13.9532  -46.4327 N.am      4 UNK        -0.5000 
     55 C          -2.0788  -12.7445  -46.5162 C.2       3 UNK         0.5000 
     56 O          -2.2334  -12.0051  -45.5421 O.2       3 UNK        -0.5000 
     57 CA         -2.6033  -12.3081  -47.9006 C.3       3 UNK         0.1400 
     58 CB         -2.4314  -10.7963  -48.1565 C.3       3 UNK        -0.1800 
     59 N          -2.0790  -13.1087  -49.0136 N.am      3 UNK        -0.5000 
     60 C          -0.8281  -13.1446  -49.4894 C.2       2 UNK         0.5000 
     61 O           0.0949  -12.4435  -49.0687 O.2       2 UNK        -0.5000 
     62 CA         -0.5913  -14.1166  -50.6606 C.3       2 UNK         0.1400 
     63 CB         -0.9302  -13.4348  -51.9955 C.3       2 UNK        -0.1800 
     64 N           0.7908  -14.5872  -50.7098 N.am      2 UNK        -0.5000 
     65 C           1.3471  -15.4337  -49.8315 C.2       1 UNK         0.5000 
     66 O           0.7350  -15.9357  -48.8880 O.2       1 UNK        -0.5000 
     67 C           0.2214  -22.3833  -48.3255 C.2       11 UNK         0.5000 
     68 O          -0.1995  -23.2273  -49.1162 O.2       11 UNK        -0.5000 
     69 N          -0.5573  -21.4962  -47.6905 N.am      12 UNK        -0.5000 
     70 CA         -2.0088  -21.3732  -47.8275 C.3       12 UNK         0.1400 
     71 CB         -2.4826  -20.2351  -46.9120 C.3       12 UNK        -0.1800 
     72 C          -2.7724  -22.6632  -47.4819 C.2       12 UNK         0.5000 
     73 O          -3.7317  -23.0051  -48.1758 O.2       12 UNK        -0.5000 
     74 N          -2.3215  -23.3449  -46.4211 N.am      13 UNK        -0.5000 
     75 CA         -2.8868  -24.5992  -45.9335 C.3       13 UNK         0.1400 
     76 CB         -2.7062  -24.6760  -44.4098 C.3       13 UNK        -0.1800 
     77 C          -2.2393  -25.8135  -46.6161 C.2       13 UNK         0.5000 
     78 O          -2.9379  -26.7882  -46.8912 O.2       13 UNK        -0.5000 
     79 N          -0.9295  -25.7308  -46.8935 N.am      14 UNK        -0.5000 
     80 CA         -0.1439  -26.7828  -47.5418 C.3       14 UNK         0.1400 
     81 CB          1.3481  -26.4244  -47.4779 C.3       14 UNK        -0.1800 
     82 C          -0.5827  -27.0474  -48.9932 C.2       14 UNK         0.5000 
     83 O          -0.7356  -28.2070  -49.3788 O.2       14 UNK        -0.5000 
     84 N          -0.8102  -25.9710  -49.7589 N.am      15 UNK        -0.5000 
     85 CA         -1.3705  -26.0315  -51.1108 C.3       15 UNK         0.1400 
     86 CB         -0.9456  -24.7727  -51.8809 C.3       15 UNK        -0.1800 
     87 C          -2.9065  -26.1541  -51.1010 C.2       15 UNK         0.5000 
     88 O          -3.4862  -26.5475  -52.1130 O.2       15 UNK        -0.5000 
     89 N          -3.5294  -25.7876  -49.9695 N.am      16 UNK        -0.5000 
     90 CA         -4.9719  -25.7444  -49.6963 C.3       16 UNK         0.1400 
     91 CB         -5.5895  -27.1559  -49.7680 C.3       16 UNK        -0.1800 
     92 C          -5.7364  -24.7129  -50.5556 C.2       16 UNK         0.5000 
     93 O          -6.9587  -24.8028  -50.6820 O.2       16 UNK        -0.5000 
     94 N          -5.0060  -23.7444  -51.1230 N.am      17 UNK        -0.5000 
     95 CA         -5.5296  -22.6923  -51.9935 C.3       17 UNK         0.1400 
     96 CB         -4.4440  -22.3262  -53.0168 C.3       17 UNK        -0.1800 
     97 C          -5.9963  -21.4468  -51.2135 C.2       17 UNK         0.5000 
     98 O          -6.6368  -20.5807  -51.8100 O.2       17 UNK        -0.5000 
     99 N          -5.6775  -21.3860  -49.9103 N.am      18 UNK        -0.5000 
    100 CA        -5.9753  -20.3147  -48.9542 C.3       18 UNK         0.1400 
    101 CB        -7.4920  -20.0375  -48.8734 C.3       18 UNK        -0.1800 
    102 C         -5.1653  -19.0247  -49.1995 C.2       18 UNK         0.5000 
    103 O         -4.4354  -18.9028  -50.1881 O.2       18 UNK        -0.5000 
    104 N         -5.2917  -18.0775  -48.2585 N.am      19 UNK        -0.5000 
    105 CA        -4.5576  -16.8068  -48.2081 C.3       19 UNK         0.1400 
    106 CB        -4.9077  -16.0775  -46.9020 C.3       19 UNK        -0.1800 
    107 C         -4.7866  -15.8813  -49.4189 C.2       19 UNK         0.5000 
    108 O         -3.9395  -15.0342  -49.6969 O.2       19 UNK        -0.5000 
    109 N         -5.9069  -16.0670  -50.1279 N.am      20 UNK        -0.5000 
    110 CA        -6.2428  -15.3575  -51.3630 C.3       20 UNK         0.1400 
    111 CB        -7.7181  -15.6276  -51.6975 C.3       20 UNK        -0.1800 
    112 C         -5.3431  -15.7314  -52.5605 C.2       20 UNK         0.5000 
    113 O         -5.2733  -14.9575  -53.5164 O.2       20 UNK        -0.5000 
    114 N         -4.6894  -16.8985  -52.4979 N.am      21 UNK        -0.5000 
    115 CA        -3.7952  -17.4190  -53.5246 C.3       21 UNK         0.1400 
    116 CB        -4.4420  -18.6626  -54.1628 C.3       21 UNK        -0.1800 
    117 C         -2.4214  -17.6876  -52.8913 C.2       21 UNK         0.5000 
    118 O         -1.6284  -16.7558  -52.7637 O.2       21 UNK        -0.5000 
    119 N         -2.1613  -18.9449  -52.5158 N.am      22 UNK        -0.5000 
    120 CA        -0.8972  -19.4066  -51.9166 C.3       22 UNK         0.1400 
    121 C         -0.6728  -18.9520  -50.4484 C.2       22 UNK         0.5000 
    122 N         -1.6595  -18.4084  -49.7530 N.am      22 UNK        -0.7600 
    123 O          0.4221  -19.0991  -49.9236 O.2       22 UNK        -0.5000 
    124 C124       -0.7321  -20.9417  -52.0574 C.3       23 UNK        -0.0398 
    125 S125       -0.6918  -21.4409  -53.8182 S.3       23 UNK        -0.2404 
    126 C126        0.9416  -22.2310  -54.0378 C.3       23 UNK        -0.0205 
    127 H127        4.7723  -12.6765  -51.7446 H         1 UNK         0.0600 
    128 H128        5.5860  -12.1840  -50.2569 H         1 UNK         0.0600 
    129 H129        4.0208  -11.4831  -50.6822 H         1 UNK         0.0600 
    130 H130        3.8180  -14.6882  -51.5724 H         1 UNK         0.3000 
    131 H131        3.2518  -15.9308  -49.0270 H         1 UNK         0.0600 
    132 H132        2.5580  -17.8819  -50.3976 H         1 UNK         0.0800 
    133 H133        4.1430  -17.3023  -50.7820 H         1 UNK         0.0800 
    134 H134        4.8071  -17.8370  -53.0980 H         1 UNK         0.0800 
    135 H135        3.7364  -17.9628  -54.4693 H         1 UNK         0.0800 
    136 H136        1.8725  -19.6920  -54.4756 H         1 UNK         0.1150 
    137 H137        2.5264  -23.1530  -52.0351 H         1 UNK         0.1150 
    138 H138        4.9458  -19.6620  -51.4803 H         1 UNK         0.1150 
    139 H139        4.2455  -23.2265  -50.4281 H         1 UNK         0.0800 
    140 H140        5.6157  -22.1774  -50.6876 H         1 UNK         0.0800 
    141 H141        2.0197  -21.2416  -49.8491 H         1 UNK         0.0800 
    142 H142        2.1753  -20.2645  -48.4295 H         1 UNK         0.0800 
    143 H143        2.1450  -23.3094  -48.2715 H         1 UNK         0.0600 
    144 H144        2.7541  -21.4946  -46.3503 H         1 UNK         0.3000 
    145 H145        1.0788  -22.5130  -43.4311 H         1 UNK         0.0600 
    146 H146        3.4140  -22.7916  -42.6046 H         1 UNK         0.0600 
    147 H147        2.8919  -24.1643  -43.5692 H         1 UNK         0.0600 
    148 H148        3.9893  -22.9819  -44.2610 H         1 UNK         0.0600 
    149 H149        1.4217  -20.3691  -43.4447 H         1 UNK         0.3000 
    150 H150        3.9174  -18.1948  -44.0306 H         1 UNK         0.0600 
    151 H151        3.5511  -18.1924  -46.5070 H         1 UNK         0.0600 
    152 H152        2.7691  -16.8221  -45.7455 H         1 UNK         0.0600 
    153 H153        1.8102  -18.2098  -46.2630 H         1 UNK         0.0600 
    154 H154        0.9786  -17.9726  -43.9845 H         1 UNK         0.3000 
    155 H155        0.7171  -18.0949  -40.4943 H         1 UNK         0.0600 
    156 H156        0.5116  -15.5470  -42.1869 H         1 UNK         0.0600 
    157 H157       -0.2072  -15.8155  -40.5999 H         1 UNK         0.0600 
    158 H158        1.5374  -15.7304  -40.7685 H         1 UNK         0.0600 
    159 H159       -1.2530  -17.3125  -42.3004 H         1 UNK         0.3000 
    160 H160       -2.2306  -19.1577  -44.0409 H         1 UNK         0.0600 
    161 H161       -2.8000  -21.4323  -42.0639 H         1 UNK         0.0600 
    162 H162       -2.0065  -21.5966  -43.6226 H         1 UNK         0.0600 
    163 H163       -3.6938  -21.1180  -43.5512 H         1 UNK         0.0600 
    164 H164       -3.7400  -17.9893  -42.9909 H         1 UNK         0.3000 
    165 H165       -5.7523  -18.1726  -40.7937 H         1 UNK         0.0600 
    166 H166       -5.4349  -16.4332  -39.0031 H         1 UNK         0.0600 
    167 H167       -4.7878  -18.0009  -38.5513 H         1 UNK         0.0600 
    168 H168       -3.6955  -16.7197  -39.0506 H         1 UNK         0.0600 
    169 H169       -5.7260  -16.4718  -42.1890 H         1 UNK         0.3000 
    170 H170       -4.9323  -15.0796  -43.7093 H         1 UNK         0.0600 
    171 H171       -4.1087  -12.7909  -41.8401 H         1 UNK         0.0600 
    172 H172       -5.0729  -12.6351  -43.3088 H         1 UNK         0.0600 
    173 H173       -5.7165  -13.5012  -41.9226 H         1 UNK         0.0600 
    174 H174       -2.8194  -13.3241  -43.9673 H         1 UNK         0.3000 
    175 H175       -0.5440  -13.8323  -44.5790 H         1 UNK         0.0600 
    176 H176        0.8667  -15.1761  -46.1137 H         1 UNK         0.0600 
    177 H177       -0.3748  -16.4227  -46.2099 H         1 UNK         0.0600 
    178 H178        0.4405  -16.0981  -44.6822 H         1 UNK         0.0600 
    179 H179       -1.4197  -14.4966  -47.2791 H         1 UNK         0.3000 
    180 H180       -3.6751  -12.5102  -47.8813 H         1 UNK         0.0600 
    181 H181       -1.3875  -10.4883  -48.0941 H         1 UNK         0.0600 
    182 H182       -2.9852  -10.2109  -47.4217 H         1 UNK         0.0600 
    183 H183       -2.8069  -10.5172  -49.1409 H         1 UNK         0.0600 
    184 H184       -2.7572  -13.7576  -49.4155 H         1 UNK         0.3000 
    185 H185       -1.2405  -14.9867  -50.5369 H         1 UNK         0.0600 
    186 H186       -1.9759  -13.1255  -52.0197 H         1 UNK         0.0600 
    187 H187       -0.3188  -12.5470  -52.1617 H         1 UNK         0.0600 
    188 H188       -0.7754  -14.1123  -52.8354 H         1 UNK         0.0600 
    189 H189        1.3770  -14.1946  -51.4300 H         1 UNK         0.3000 
    190 H190       -0.1100  -20.8396  -47.0694 H         1 UNK         0.3000 
    191 H191       -2.2352  -21.1164  -48.8640 H         1 UNK         0.0600 
    192 H192       -2.0266  -19.2826  -47.1771 H         1 UNK         0.0600 
    193 H193       -3.5628  -20.1066  -46.9570 H         1 UNK         0.0600 
    194 H194       -2.2276  -20.4458  -45.8759 H         1 UNK         0.0600 
    195 H195       -1.4756  -23.0281  -45.9654 H         1 UNK         0.3000 
    196 H196       -3.9575  -24.6239  -46.1485 H         1 UNK         0.0600 
    197 H197       -3.1046  -25.6118  -44.0157 H         1 UNK         0.0600 
    198 H198       -3.2350  -23.8643  -43.9107 H         1 UNK         0.0600 
    199 H199       -1.6553  -24.6189  -44.1230 H         1 UNK         0.0600 
    200 H200       -0.4177  -24.9104  -46.5814 H         1 UNK         0.3000 
    201 H201       -0.2940  -27.7041  -46.9752 H         1 UNK         0.0600 
    202 H202        1.6736  -26.2647  -46.4497 H         1 UNK         0.0600 
    203 H203        1.5672  -25.5201  -48.0436 H         1 UNK         0.0600 
    204 H204        1.9594  -27.2265  -47.8931 H         1 UNK         0.0600 
    205 H205       -0.6233  -25.0417  -49.3881 H         1 UNK         0.3000 
    206 H206       -0.9655  -26.9022  -51.6308 H         1 UNK         0.0600 
    207 H207        0.1377  -24.6541  -51.8717 H         1 UNK         0.0600 
    208 H208       -1.2623  -24.8238  -52.9233 H         1 UNK         0.0600 
    209 H209       -1.3838  -23.8724  -51.4507 H         1 UNK         0.0600 
    210 H210       -2.9432  -25.4861  -49.2049 H         1 UNK         0.3000 
    211 H211       -5.0685  -25.4010  -48.6655 H         1 UNK         0.0600 
    212 H212       -5.6018  -27.5433  -50.7869 H         1 UNK         0.0600 
    213 H213       -6.6190  -27.1519  -49.4085 H         1 UNK         0.0600 
    214 H214       -5.0339  -27.8588  -49.1469 H         1 UNK         0.0600 
    215 H215       -4.0135  -23.7373  -50.9423 H         1 UNK         0.3000 
    216 H216       -6.3908  -23.0789  -52.5424 H         1 UNK         0.0600 
    217 H217       -3.6151  -21.7969  -52.5502 H         1 UNK         0.0600 
    218 H218       -4.8497  -21.6853  -53.7994 H         1 UNK         0.0600 
    219 H219       -4.0427  -23.2135  -53.5075 H         1 UNK         0.0600 
    220 H220       -5.1213  -22.1446  -49.5321 H         1 UNK         0.3000 
    221 H221       -5.6605  -20.7023  -47.9848 H         1 UNK         0.0600 
    222 H222       -7.8619  -19.5191  -49.7585 H         1 UNK         0.0600 
    223 H223       -8.0563  -20.9644  -48.7689 H         1 UNK         0.0600 
    224 H224       -7.7366  -19.4171  -48.0110 H         1 UNK         0.0600 
    225 H225       -5.9136  -18.2511  -47.4824 H         1 UNK         0.3000 
    226 H226       -3.4928  -17.0413  -48.1811 H         1 UNK         0.0600 
    227 H227       -5.9708  -15.8409  -46.8453 H         1 UNK         0.0600 
    228 H228       -4.6501  -16.6820  -46.0321 H         1 UNK         0.0600 
    229 H229       -4.3579  -15.1395  -46.8157 H         1 UNK         0.0600 
    230 H230       -6.5488  -16.7855  -49.8284 H         1 UNK         0.3000 
    231 H231       -6.1215  -14.2870  -51.1843 H         1 UNK         0.0600 
    232 H232       -7.9024  -16.6888  -51.8712 H         1 UNK         0.0600 
    233 H233       -8.0201  -15.0904  -52.5975 H         1 UNK         0.0600 
    234 H234       -8.3730  -15.2995  -50.8902 H         1 UNK         0.0600 
    235 H235       -4.7726  -17.4645  -51.6603 H         1 UNK         0.3000 
    236 H236       -3.6329  -16.6827  -54.3144 H         1 UNK         0.0600 
    237 H237       -5.3333  -18.3879  -54.7270 H         1 UNK         0.0600 
    238 H238       -3.7598  -19.1572  -54.8558 H         1 UNK         0.0600 
    239 H239       -4.7462  -19.3868  -53.4084 H         1 UNK         0.0600 
    240 H240       -2.8774  -19.6431  -52.6404 H         1 UNK         0.3000 
    241 H241       -0.0860  -18.9408  -52.4801 H         1 UNK         0.0600 
    242 H242       -1.4535  -18.0743  -48.8282 H         1 UNK         0.3800 
    243 H243       -2.6037  -18.3883  -50.1225 H         1 UNK         0.3800 
    244 H244        0.1692  -21.2873  -51.5520 H         1 UNK         0.0800 
    245 H245       -1.5537  -21.4564  -51.5597 H         1 UNK         0.0800 
    246 H246        0.8755  -23.2623  -53.6912 H         1 UNK         0.0800 
    247 H247        1.1595  -22.2883  -55.1049 H         1 UNK         0.0800 
@<TRIPOS>BOND
     1    1    2 1    
     2    1  127 1    
     3    1  128 1    
     4    1  129 1    
     5    2    3 2    
     6    2    4 am   BACKBONE|DICT|INTERRES
     7    4    5 1    
     8    4  130 1    
     9    5    6 1    
    10    5   65 1    
    11    5  131 1    
    12    6    7 1    
    13    6  132 1    
    14    6  133 1    
    15    7    8 1    
    16    8    9 1    
    17    8  134 1    
    18    8  135 1    
    19    9   10 ar   
    20    9   14 ar   
    21   10   11 ar   
    22   10  136 1    
    23   11   12 ar   
    24   11  126 1    
    25   12   13 ar   
    26   12  137 1    
    27   13   14 ar   
    28   13   15 1    
    29   14  138 1    
    30   15   16 1    
    31   15  139 1    
    32   15  140 1    
    33   16   17 1    
    34   17   18 1    
    35   17  141 1    
    36   17  142 1    
    37   18   19 1    
    38   18   67 1    
    39   18  143 1    
    40   19   20 am   BACKBONE|DICT|INTERRES
    41   19  144 1    
    42   20   21 2    
    43   20   22 1    
    44   22   23 1    
    45   22   24 1    
    46   22  145 1    
    47   23  146 1    
    48   23  147 1    
    49   23  148 1    
    50   24   25 am   BACKBONE|DICT|INTERRES
    51   24  149 1    
    52   25   26 2    
    53   25   27 1    
    54   27   28 1    
    55   27   29 1    
    56   27  150 1    
    57   28  151 1    
    58   28  152 1    
    59   28  153 1    
    60   29   30 am   BACKBONE|DICT|INTERRES
    61   29  154 1    
    62   30   31 2    
    63   30   32 1    
    64   32   33 1    
    65   32   34 1    
    66   32  155 1    
    67   33  156 1    
    68   33  157 1    
    69   33  158 1    
    70   34   35 am   BACKBONE|DICT|INTERRES
    71   34  159 1    
    72   35   36 2    
    73   35   37 1    
    74   37   38 1    
    75   37   39 1    
    76   37  160 1    
    77   38  161 1    
    78   38  162 1    
    79   38  163 1    
    80   39   40 am   BACKBONE|DICT|INTERRES
    81   39  164 1    
    82   40   41 2    
    83   40   42 1    
    84   42   43 1    
    85   42   44 1    
    86   42  165 1    
    87   43  166 1    
    88   43  167 1    
    89   43  168 1    
    90   44   45 am   BACKBONE|DICT|INTERRES
    91   44  169 1    
    92   45   46 2    
    93   45   47 1    
    94   47   48 1    
    95   47   49 1    
    96   47  170 1    
    97   48  171 1    
    98   48  172 1    
    99   48  173 1    
   100   49   50 am   BACKBONE|DICT|INTERRES
   101   49  174 1    
   102   50   51 2    
   103   50   52 1    
   104   52   53 1    
   105   52   54 1    
   106   52  175 1    
   107   53  176 1    
   108   53  177 1    
   109   53  178 1    
   110   54   55 am   BACKBONE|DICT|INTERRES
   111   54  179 1    
   112   55   56 2    
   113   55   57 1    
   114   57   58 1    
   115   57   59 1    
   116   57  180 1    
   117   58  181 1    
   118   58  182 1    
   119   58  183 1    
   120   59   60 am   BACKBONE|DICT|INTERRES
   121   59  184 1    
   122   60   61 2    
   123   60   62 1    
   124   62   63 1    
   125   62   64 1    
   126   62  185 1    
   127   63  186 1    
   128   63  187 1    
   129   63  188 1    
   130   64   65 am   BACKBONE|DICT|INTERRES
   131   64  189 1    
   132   65   66 2    
   133   67   68 2    
   134   67   69 am   BACKBONE|DICT|INTERRES
   135   69   70 1    
   136   69  190 1    
   137   70   71 1    
   138   70   72 1    
   139   70  191 1    
   140   71  192 1    
   141   71  193 1    
   142   71  194 1    
   143   72   73 2    
   144   72   74 am   BACKBONE|DICT|INTERRES
   145   74   75 1    
   146   74  195 1    
   147   75   76 1    
   148   75   77 1    
   149   75  196 1    
   150   76  197 1    
   151   76  198 1    
   152   76  199 1    
   153   77   78 2    
   154   77   79 am   BACKBONE|DICT|INTERRES
   155   79   80 1    
   156   79  200 1    
   157   80   81 1    
   158   80   82 1    
   159   80  201 1    
   160   81  202 1    
   161   81  203 1    
   162   81  204 1    
   163   82   83 2    
   164   82   84 am   BACKBONE|DICT|INTERRES
   165   84   85 1    
   166   84  205 1    
   167   85   86 1    
   168   85   87 1    
   169   85  206 1    
   170   86  207 1    
   171   86  208 1    
   172   86  209 1    
   173   87   88 2    
   174   87   89 am   BACKBONE|DICT|INTERRES
   175   89   90 1    
   176   89  210 1    
   177   90   91 1    
   178   90   92 1    
   179   90  211 1    
   180   91  212 1    
   181   91  213 1    
   182   91  214 1    
   183   92   93 2    
   184   92   94 am   BACKBONE|DICT|INTERRES
   185   94   95 1    
   186   94  215 1    
   187   95   96 1    
   188   95   97 1    
   189   95  216 1    
   190   96  217 1    
   191   96  218 1    
   192   96  219 1    
   193   97   98 2    
   194   97   99 am   BACKBONE|DICT|INTERRES
   195   99  100 1    
   196   99  220 1    
   197  100  101 1    
   198  100  102 1    
   199  100  221 1    
   200  101  222 1    
   201  101  223 1    
   202  101  224 1    
   203  102  103 2    
   204  102  104 am   BACKBONE|DICT|INTERRES
   205  104  105 1    
   206  104  225 1    
   207  105  106 1    
   208  105  107 1    
   209  105  226 1    
   210  106  227 1    
   211  106  228 1    
   212  106  229 1    
   213  107  108 2    
   214  107  109 am   BACKBONE|DICT|INTERRES
   215  109  110 1    
   216  109  230 1    
   217  110  111 1    
   218  110  112 1    
   219  110  231 1    
   220  111  232 1    
   221  111  233 1    
   222  111  234 1    
   223  112  113 2    
   224  112  114 am   BACKBONE|DICT|INTERRES
   225  114  115 1    
   226  114  235 1    
   227  115  116 1    
   228  115  117 1    
   229  115  236 1    
   230  116  237 1    
   231  116  238 1    
   232  116  239 1    
   233  117  118 2    
   234  117  119 am   BACKBONE|DICT|INTERRES
   235  119  120 1    
   236  119  240 1    
   237  120  121 1    
   238  120  124 1    
   239  120  241 1    
   240  121  122 am   BACKBONE|DICT|INTERRES
   241  121  123 2    
   242  122  242 1    
   243  122  243 1    
   244  124  125 1    
   245  124  244 1    
   246  124  245 1    
   247  125  126 1    
   248  126  246 1    
   249  126  247 1    
@<TRIPOS>SUBSTRUCTURE
     1 UNK         1 GROUP             0       ****    0 ROOT    
