@<TRIPOS>MOLECULE
3R540
247   249    1
SMALL
USER_CHARGES


@<TRIPOS>ATOM
      1 CA          3.2458  -16.1774  -46.7359 C.3       0 UNK        -0.1800 
      2 C           2.7169  -14.7858  -47.0456 C.2       0 UNK         0.5000 
      3 O           3.0701  -14.2149  -48.0772 O.2       0 UNK        -0.5000 
      4 N           1.8876  -14.2323  -46.1504 N.am      1 UNK        -0.5000 
      5 CA          1.1919  -12.9367  -46.2424 C.3       1 UNK         0.1400 
      6 C6          0.3091  -12.7521  -47.5076 C.3       23 UNK        -0.0398 
      7 S7         -0.9305  -14.0798  -47.6873 S.3       23 UNK        -0.2404 
      8 C8         -0.4271  -14.8516  -49.2595 C.3       23 UNK        -0.0205 
      9 C9         -1.0392  -16.2345  -49.4509 C.ar      23 UNK        -0.0193 
     10 C10        -2.4249  -16.4188  -49.3823 C.ar      23 UNK        -0.1150 
     11 C11        -2.9842  -17.6855  -49.5720 C.ar      23 UNK        -0.0193 
     12 C12        -2.1481  -18.7728  -49.8350 C.ar      23 UNK        -0.1150 
     13 C13        -0.7642  -18.6051  -49.9193 C.ar      23 UNK        -0.0193 
     14 C14        -0.2162  -17.3317  -49.7286 C.ar      23 UNK        -0.1150 
     15 C15         0.1160  -19.8063  -50.2470 C.3       23 UNK        -0.0205 
     16 S16         1.5533  -20.0150  -49.1406 S.3       23 UNK        -0.2404 
     17 C17         0.8174  -19.9383  -47.4727 C.3       23 UNK        -0.0398 
     18 CA          0.3773  -21.3152  -46.9169 C.3       11 UNK         0.1400 
     19 N           0.4355  -21.3564  -45.4537 N.am      11 UNK        -0.5000 
     20 C           0.2315  -22.4433  -44.6968 C.2       10 UNK         0.5000 
     21 O           0.0125  -23.5651  -45.1544 O.2       10 UNK        -0.5000 
     22 CA          0.2209  -22.2297  -43.1707 C.3       10 UNK         0.1400 
     23 CB          1.6501  -22.1550  -42.6133 C.3       10 UNK        -0.1800 
     24 N          -0.5257  -21.0331  -42.7765 N.am      10 UNK        -0.5000 
     25 C          -1.8434  -20.8711  -42.9664 C.2       9 UNK         0.5000 
     26 O          -2.5759  -21.7366  -43.4446 O.2       9 UNK        -0.5000 
     27 CA         -2.4350  -19.4940  -42.6162 C.3       9 UNK         0.1400 
     28 CB         -2.6750  -19.3625  -41.1050 C.3       9 UNK        -0.1800 
     29 N          -1.5988  -18.3878  -43.0806 N.am      9 UNK        -0.5000 
     30 C          -1.3041  -18.1439  -44.3657 C.2       8 UNK         0.5000 
     31 O          -1.7319  -18.8075  -45.3078 O.2       8 UNK        -0.5000 
     32 CA         -0.3270  -16.9896  -44.6382 C.3       8 UNK         0.1400 
     33 CB         -1.0638  -15.6493  -44.5067 C.3       8 UNK        -0.1800 
     34 N           0.8375  -17.0203  -43.7470 N.am      8 UNK        -0.5000 
     35 C           1.7081  -18.0399  -43.6656 C.2       7 UNK         0.5000 
     36 O           1.6606  -19.0347  -44.3839 O.2       7 UNK        -0.5000 
     37 CA          2.7816  -17.9677  -42.5672 C.3       7 UNK         0.1400 
     38 CB          3.9914  -17.1372  -43.0197 C.3       7 UNK        -0.1800 
     39 N           2.2429  -17.4276  -41.3221 N.am      7 UNK        -0.5000 
     40 C           1.3495  -18.0624  -40.5495 C.2       6 UNK         0.5000 
     41 O           0.9375  -19.2016  -40.7712 O.2       6 UNK        -0.5000 
     42 CA          0.7852  -17.2566  -39.3651 C.3       6 UNK         0.1400 
     43 CB          1.7278  -17.3362  -38.1552 C.3       6 UNK        -0.1800 
     44 N           0.5627  -15.8518  -39.7181 N.am      6 UNK        -0.5000 
     45 C          -0.3570  -15.4352  -40.6009 C.2       5 UNK         0.5000 
     46 O          -1.1652  -16.1899  -41.1403 O.2       5 UNK        -0.5000 
     47 CA         -0.3340  -13.9414  -40.9819 C.3       5 UNK         0.1400 
     48 CB         -1.2375  -13.1311  -40.0412 C.3       5 UNK        -0.1800 
     49 N           1.0199  -13.3799  -40.9608 N.am      5 UNK        -0.5000 
     50 C           1.9772  -13.6760  -41.8493 C.2       4 UNK         0.5000 
     51 O           1.7994  -14.3922  -42.8403 O.2       4 UNK        -0.5000 
     52 CA          3.3823  -13.1471  -41.5280 C.3       4 UNK         0.1400 
     53 CB          4.0025  -13.9925  -40.3934 C.3       4 UNK        -0.1800 
     54 N           4.2052  -13.2149  -42.7332 N.am      4 UNK        -0.5000 
     55 C           5.4604  -12.7657  -42.8630 C.2       3 UNK         0.5000 
     56 O           6.0822  -12.1853  -41.9724 O.2       3 UNK        -0.5000 
     57 CA          6.1298  -12.9912  -44.2299 C.3       3 UNK         0.1400 
     58 CB          6.3541  -14.4877  -44.5042 C.3       3 UNK        -0.1800 
     59 N           5.3470  -12.4124  -45.3182 N.am      3 UNK        -0.5000 
     60 C           5.2366  -11.1006  -45.5733 C.2       2 UNK         0.5000 
     61 O           5.8345  -10.2244  -44.9480 O.2       2 UNK        -0.5000 
     62 CA          4.2892  -10.7041  -46.7216 C.3       2 UNK         0.1400 
     63 CB          5.0554  -10.6141  -48.0499 C.3       2 UNK        -0.1800 
     64 N           3.1861  -11.6535  -46.8688 N.am      2 UNK        -0.5000 
     65 C           2.1464  -11.7472  -46.0317 C.2       1 UNK         0.5000 
     66 O           1.9498  -10.9677  -45.0989 O.2       1 UNK        -0.5000 
     67 C          -1.0160  -21.7166  -47.4402 C.2       11 UNK         0.5000 
     68 O          -1.1045  -22.5579  -48.3305 O.2       11 UNK        -0.5000 
     69 N          -2.0755  -21.1498  -46.8467 N.am      12 UNK        -0.5000 
     70 CA         -3.4700  -21.4516  -47.1662 C.3       12 UNK         0.1400 
     71 CB         -4.3870  -20.4483  -46.4515 C.3       12 UNK        -0.1800 
     72 C          -3.8682  -22.8996  -46.8248 C.2       12 UNK         0.5000 
     73 O          -4.6021  -23.5187  -47.5944 O.2       12 UNK        -0.5000 
     74 N          -3.3588  -23.4293  -45.7025 N.am      13 UNK        -0.5000 
     75 CA         -3.5521  -24.8190  -45.2797 C.3       13 UNK         0.1400 
     76 CB         -3.0572  -24.9968  -43.8364 C.3       13 UNK        -0.1800 
     77 C          -2.8685  -25.8281  -46.2220 C.2       13 UNK         0.5000 
     78 O          -3.4527  -26.8689  -46.5253 O.2       13 UNK        -0.5000 
     79 N          -1.6612  -25.4885  -46.6941 N.am      14 UNK        -0.5000 
     80 CA         -0.9185  -26.2440  -47.7070 C.3       14 UNK         0.1400 
     81 CB          0.5565  -25.8159  -47.6534 C.3       14 UNK        -0.1800 
     82 C          -1.4740  -26.0571  -49.1351 C.2       14 UNK         0.5000 
     83 O          -1.1319  -26.8368  -50.0256 O.2       14 UNK        -0.5000 
     84 N          -2.2819  -25.0077  -49.3319 N.am      15 UNK        -0.5000 
     85 CA         -2.8446  -24.4625  -50.5691 C.3       15 UNK         0.1400 
     86 CB         -3.7235  -25.4862  -51.3111 C.3       15 UNK        -0.1800 
     87 C          -1.7825  -23.8404  -51.4929 C.2       15 UNK         0.5000 
     88 O          -1.9431  -22.6899  -51.8979 O.2       15 UNK        -0.5000 
     89 N          -0.7318  -24.6097  -51.8185 N.am      16 UNK        -0.5000 
     90 CA          0.4467  -24.2471  -52.6227 C.3       16 UNK         0.1400 
     91 CB          1.3004  -23.2118  -51.8624 C.3       16 UNK        -0.1800 
     92 C           0.1384  -23.7891  -54.0693 C.2       16 UNK         0.5000 
     93 O           1.0141  -23.2366  -54.7373 O.2       16 UNK        -0.5000 
     94 N          -1.0922  -24.0339  -54.5262 N.am      17 UNK        -0.5000 
     95 CA         -1.7182  -23.5849  -55.7631 C.3       17 UNK         0.1400 
     96 CB         -1.7912  -22.0410  -55.8067 C.3       17 UNK        -0.1800 
     97 C          -3.1273  -24.2037  -55.7971 C.2       17 UNK         0.5000 
     98 O          -3.4790  -24.9846  -54.9058 O.2       17 UNK        -0.5000 
     99 N          -3.9212  -23.8371  -56.8101 N.am      18 UNK        -0.5000 
    100 CA        -5.3444  -24.1649  -56.8996 C.3       18 UNK         0.1400 
    101 CB        -5.8670  -23.7256  -58.2763 C.3       18 UNK        -0.1800 
    102 C         -6.1565  -23.4776  -55.7852 C.2       18 UNK         0.5000 
    103 O         -5.7905  -22.3839  -55.3454 O.2       18 UNK        -0.5000 
    104 N         -7.2752  -24.0987  -55.3887 N.am      19 UNK        -0.5000 
    105 CA        -8.1920  -23.5922  -54.3603 C.3       19 UNK         0.1400 
    106 CB        -9.2649  -24.6520  -54.0706 C.3       19 UNK        -0.1800 
    107 C         -8.8457  -22.2452  -54.7270 C.2       19 UNK         0.5000 
    108 O         -9.1100  -21.4353  -53.8386 O.2       19 UNK        -0.5000 
    109 N         -9.0319  -22.0012  -56.0323 N.am      20 UNK        -0.5000 
    110 CA        -9.4925  -20.7293  -56.5973 C.3       20 UNK         0.1400 
    111 CB        -9.8005  -20.9343  -58.0885 C.3       20 UNK        -0.1800 
    112 C         -8.4878  -19.5718  -56.4099 C.2       20 UNK         0.5000 
    113 O         -8.8926  -18.4095  -56.4424 O.2       20 UNK        -0.5000 
    114 N         -7.2090  -19.9099  -56.2006 N.am      21 UNK        -0.5000 
    115 CA        -6.1125  -18.9908  -55.8993 C.3       21 UNK         0.1400 
    116 CB        -4.9466  -19.3053  -56.8551 C.3       21 UNK        -0.1800 
    117 C         -5.6775  -19.0998  -54.4212 C.2       21 UNK         0.5000 
    118 O         -4.5888  -18.6340  -54.0883 O.2       21 UNK        -0.5000 
    119 N         -6.5188  -19.7306  -53.5850 N.am      22 UNK        -0.5000 
    120 CA        -6.3328  -20.0596  -52.1589 C.3       22 UNK         0.1400 
    121 C         -5.1013  -20.9486  -51.8059 C.2       22 UNK         0.5000 
    122 N         -4.4599  -21.6066  -52.7622 N.am      22 UNK        -0.7600 
    123 O         -4.7514  -21.0886  -50.6388 O.2       22 UNK        -0.5000 
    124 C124       -6.5690  -18.8557  -51.1947 C.3       23 UNK        -0.0398 
    125 S125       -5.2546  -17.5843  -51.1325 S.3       23 UNK        -0.2404 
    126 C126       -4.4897  -17.8856  -49.5071 C.3       23 UNK        -0.0205 
    127 H127        2.9817  -16.4904  -45.7285 H         1 UNK         0.0600 
    128 H128        4.3320  -16.1981  -46.8238 H         1 UNK         0.0600 
    129 H129        2.8298  -16.9007  -47.4375 H         1 UNK         0.0600 
    130 H130        1.6863  -14.7413  -45.3004 H         1 UNK         0.3000 
    131 H131        0.5172  -12.9134  -45.3862 H         1 UNK         0.0600 
    132 H132       -0.2334  -11.8069  -47.4499 H         1 UNK         0.0800 
    133 H133        0.9192  -12.6891  -48.4095 H         1 UNK         0.0800 
    134 H134        0.6610  -14.9160  -49.2947 H         1 UNK         0.0800 
    135 H135       -0.7275  -14.2086  -50.0875 H         1 UNK         0.0800 
    136 H136       -3.0692  -15.5737  -49.1846 H         1 UNK         0.1150 
    137 H137       -2.5798  -19.7517  -49.9914 H         1 UNK         0.1150 
    138 H138        0.8541  -17.1975  -49.7999 H         1 UNK         0.1150 
    139 H139       -0.4700  -20.7266  -50.2336 H         1 UNK         0.0800 
    140 H140        0.4787  -19.6986  -51.2698 H         1 UNK         0.0800 
    141 H141        0.0138  -19.2023  -47.4250 H         1 UNK         0.0800 
    142 H142        1.6106  -19.5312  -46.8475 H         1 UNK         0.0800 
    143 H143        1.0867  -22.0681  -47.2674 H         1 UNK         0.0600 
    144 H144        0.6619  -20.4799  -44.9899 H         1 UNK         0.3000 
    145 H145       -0.2722  -23.0929  -42.7190 H         1 UNK         0.0600 
    146 H146        1.6446  -22.0595  -41.5273 H         1 UNK         0.0600 
    147 H147        2.2112  -23.0574  -42.8588 H         1 UNK         0.0600 
    148 H148        2.1999  -21.3063  -43.0196 H         1 UNK         0.0600 
    149 H149        0.0024  -20.2823  -42.3459 H         1 UNK         0.3000 
    150 H150       -3.3999  -19.4113  -43.1204 H         1 UNK         0.0600 
    151 H151       -3.3263  -20.1590  -40.7431 H         1 UNK         0.0600 
    152 H152       -3.1551  -18.4138  -40.8640 H         1 UNK         0.0600 
    153 H153       -1.7442  -19.4174  -40.5406 H         1 UNK         0.0600 
    154 H154       -1.2433  -17.7540  -42.3716 H         1 UNK         0.3000 
    155 H155        0.0379  -17.0829  -45.6635 H         1 UNK         0.0600 
    156 H156       -1.5865  -15.5548  -43.5572 H         1 UNK         0.0600 
    157 H157       -1.8165  -15.5501  -45.2889 H         1 UNK         0.0600 
    158 H158       -0.3845  -14.8064  -44.5920 H         1 UNK         0.0600 
    159 H159        0.9759  -16.2150  -43.1476 H         1 UNK         0.3000 
    160 H160        3.1274  -18.9852  -42.3727 H         1 UNK         0.0600 
    161 H161        3.7174  -16.1075  -43.2417 H         1 UNK         0.0600 
    162 H162        4.4369  -17.5596  -43.9212 H         1 UNK         0.0600 
    163 H163        4.7672  -17.1195  -42.2543 H         1 UNK         0.0600 
    164 H164        2.5072  -16.4859  -41.0807 H         1 UNK         0.3000 
    165 H165       -0.1736  -17.6984  -39.0849 H         1 UNK         0.0600 
    166 H166        1.3041  -16.8232  -37.2916 H         1 UNK         0.0600 
    167 H167        1.9002  -18.3731  -37.8635 H         1 UNK         0.0600 
    168 H168        2.6996  -16.8890  -38.3683 H         1 UNK         0.0600 
    169 H169        1.1749  -15.1701  -39.2964 H         1 UNK         0.3000 
    170 H170       -0.7281  -13.8484  -41.9958 H         1 UNK         0.0600 
    171 H171       -2.2585  -13.5150  -40.0553 H         1 UNK         0.0600 
    172 H172       -0.8861  -13.1702  -39.0094 H         1 UNK         0.0600 
    173 H173       -1.2812  -12.0842  -40.3421 H         1 UNK         0.0600 
    174 H174        1.2432  -12.7771  -40.1816 H         1 UNK         0.3000 
    175 H175        3.2997  -12.1042  -41.2161 H         1 UNK         0.0600 
    176 H176        4.1786  -15.0211  -40.7087 H         1 UNK         0.0600 
    177 H177        4.9552  -13.5828  -40.0597 H         1 UNK         0.0600 
    178 H178        3.3556  -14.0227  -39.5161 H         1 UNK         0.0600 
    179 H179        3.7407  -13.6523  -43.5173 H         1 UNK         0.3000 
    180 H180        7.1072  -12.5041  -44.2081 H         1 UNK         0.0600 
    181 H181        6.8921  -14.9608  -43.6816 H         1 UNK         0.0600 
    182 H182        6.9476  -14.6352  -45.4066 H         1 UNK         0.0600 
    183 H183        5.4146  -15.0242  -44.6348 H         1 UNK         0.0600 
    184 H184        4.8245  -13.0518  -45.8965 H         1 UNK         0.3000 
    185 H185        3.8777   -9.7184  -46.4941 H         1 UNK         0.0600 
    186 H186        4.4045  -10.2793  -48.8578 H         1 UNK         0.0600 
    187 H187        5.8780   -9.9013  -47.9789 H         1 UNK         0.0600 
    188 H188        5.4784  -11.5776  -48.3374 H         1 UNK         0.0600 
    189 H189        3.2817  -12.3737  -47.5801 H         1 UNK         0.3000 
    190 H190       -1.9188  -20.4252  -46.1486 H         1 UNK         0.3000 
    191 H191       -3.5954  -21.3195  -48.2422 H         1 UNK         0.0600 
    192 H192       -4.2978  -20.5244  -45.3673 H         1 UNK         0.0600 
    193 H193       -5.4320  -20.6213  -46.7112 H         1 UNK         0.0600 
    194 H194       -4.1455  -19.4236  -46.7344 H         1 UNK         0.0600 
    195 H195       -2.8187  -22.8350  -45.0808 H         1 UNK         0.3000 
    196 H196       -4.6241  -25.0264  -45.2953 H         1 UNK         0.0600 
    197 H197       -3.2064  -26.0221  -43.4956 H         1 UNK         0.0600 
    198 H198       -3.5992  -24.3448  -43.1513 H         1 UNK         0.0600 
    199 H199       -1.9950  -24.7709  -43.7427 H         1 UNK         0.0600 
    200 H200       -1.2197  -24.6431  -46.3445 H         1 UNK         0.3000 
    201 H201       -0.9771  -27.3071  -47.4652 H         1 UNK         0.0600 
    202 H202        0.9815  -25.9875  -46.6642 H         1 UNK         0.0600 
    203 H203        0.6750  -24.7572  -47.8886 H         1 UNK         0.0600 
    204 H204        1.1562  -26.3807  -48.3683 H         1 UNK         0.0600 
    205 H205       -2.4055  -24.3984  -48.5334 H         1 UNK         0.3000 
    206 H206       -3.4963  -23.6469  -50.2509 H         1 UNK         0.0600 
    207 H207       -4.4975  -25.8863  -50.6562 H         1 UNK         0.0600 
    208 H208       -4.2254  -25.0183  -52.1591 H         1 UNK         0.0600 
    209 H209       -3.1442  -26.3240  -51.6993 H         1 UNK         0.0600 
    210 H210       -0.7204  -25.5438  -51.4183 H         1 UNK         0.3000 
    211 H211        1.0375  -25.1591  -52.7156 H         1 UNK         0.0600 
    212 H212        0.7995  -22.2455  -51.8059 H         1 UNK         0.0600 
    213 H213        2.2603  -23.0535  -52.3549 H         1 UNK         0.0600 
    214 H214        1.5085  -23.5398  -50.8438 H         1 UNK         0.0600 
    215 H215       -1.7369  -24.5375  -53.9284 H         1 UNK         0.3000 
    216 H216       -1.1458  -23.9620  -56.6121 H         1 UNK         0.0600 
    217 H217       -2.2529  -21.6866  -56.7284 H         1 UNK         0.0600 
    218 H218       -0.8020  -21.5868  -55.7617 H         1 UNK         0.0600 
    219 H219       -2.3752  -21.6456  -54.9741 H         1 UNK         0.0600 
    220 H220       -3.5715  -23.1785  -57.4897 H         1 UNK         0.3000 
    221 H221       -5.4565  -25.2470  -56.8043 H         1 UNK         0.0600 
    222 H222       -5.7773  -22.6472  -58.4159 H         1 UNK         0.0600 
    223 H223       -5.3182  -24.2149  -59.0812 H         1 UNK         0.0600 
    224 H224       -6.9192  -23.9856  -58.3990 H         1 UNK         0.0600 
    225 H225       -7.5148  -24.9881  -55.8031 H         1 UNK         0.3000 
    226 H226       -7.6116  -23.4342  -53.4485 H         1 UNK         0.0600 
    227 H227       -8.8163  -25.5830  -53.7234 H         1 UNK         0.0600 
    228 H228       -9.9489  -24.3126  -53.2915 H         1 UNK         0.0600 
    229 H229       -9.8608  -24.8749  -54.9565 H         1 UNK         0.0600 
    230 H230       -8.7880  -22.7258  -56.6911 H         1 UNK         0.3000 
    231 H231      -10.4172  -20.4476  -56.0894 H         1 UNK         0.0600 
    232 H232      -10.5640  -21.6989  -58.2327 H         1 UNK         0.0600 
    233 H233       -8.9120  -21.2361  -58.6448 H         1 UNK         0.0600 
    234 H234      -10.1744  -20.0147  -58.5407 H         1 UNK         0.0600 
    235 H235       -6.9656  -20.8922  -56.1411 H         1 UNK         0.3000 
    236 H236       -6.4223  -17.9576  -56.0670 H         1 UNK         0.0600 
    237 H237       -4.1250  -18.6008  -56.7211 H         1 UNK         0.0600 
    238 H238       -4.5503  -20.3077  -56.6886 H         1 UNK         0.0600 
    239 H239       -5.2619  -19.2387  -57.8964 H         1 UNK         0.0600 
    240 H240       -7.3778  -20.0890  -53.9809 H         1 UNK         0.3000 
    241 H241       -7.1643  -20.7370  -51.9624 H         1 UNK         0.0600 
    242 H242       -3.6116  -22.1058  -52.5140 H         1 UNK         0.3800 
    243 H243       -4.7893  -21.5919  -53.7195 H         1 UNK         0.3800 
    244 H244       -7.4930  -18.3512  -51.4790 H         1 UNK         0.0800 
    245 H245       -6.7541  -19.2269  -50.1858 H         1 UNK         0.0800 
    246 H246       -4.7044  -18.8979  -49.1640 H         1 UNK         0.0800 
    247 H247       -4.9303  -17.2135  -48.7695 H         1 UNK         0.0800 
@<TRIPOS>BOND
     1    1    2 1    
     2    1  127 1    
     3    1  128 1    
     4    1  129 1    
     5    2    3 2    
     6    2    4 am   BACKBONE|DICT|INTERRES
     7    4    5 1    
     8    4  130 1    
     9    5    6 1    
    10    5   65 1    
    11    5  131 1    
    12    6    7 1    
    13    6  132 1    
    14    6  133 1    
    15    7    8 1    
    16    8    9 1    
    17    8  134 1    
    18    8  135 1    
    19    9   10 ar   
    20    9   14 ar   
    21   10   11 ar   
    22   10  136 1    
    23   11   12 ar   
    24   11  126 1    
    25   12   13 ar   
    26   12  137 1    
    27   13   14 ar   
    28   13   15 1    
    29   14  138 1    
    30   15   16 1    
    31   15  139 1    
    32   15  140 1    
    33   16   17 1    
    34   17   18 1    
    35   17  141 1    
    36   17  142 1    
    37   18   19 1    
    38   18   67 1    
    39   18  143 1    
    40   19   20 am   BACKBONE|DICT|INTERRES
    41   19  144 1    
    42   20   21 2    
    43   20   22 1    
    44   22   23 1    
    45   22   24 1    
    46   22  145 1    
    47   23  146 1    
    48   23  147 1    
    49   23  148 1    
    50   24   25 am   BACKBONE|DICT|INTERRES
    51   24  149 1    
    52   25   26 2    
    53   25   27 1    
    54   27   28 1    
    55   27   29 1    
    56   27  150 1    
    57   28  151 1    
    58   28  152 1    
    59   28  153 1    
    60   29   30 am   BACKBONE|DICT|INTERRES
    61   29  154 1    
    62   30   31 2    
    63   30   32 1    
    64   32   33 1    
    65   32   34 1    
    66   32  155 1    
    67   33  156 1    
    68   33  157 1    
    69   33  158 1    
    70   34   35 am   BACKBONE|DICT|INTERRES
    71   34  159 1    
    72   35   36 2    
    73   35   37 1    
    74   37   38 1    
    75   37   39 1    
    76   37  160 1    
    77   38  161 1    
    78   38  162 1    
    79   38  163 1    
    80   39   40 am   BACKBONE|DICT|INTERRES
    81   39  164 1    
    82   40   41 2    
    83   40   42 1    
    84   42   43 1    
    85   42   44 1    
    86   42  165 1    
    87   43  166 1    
    88   43  167 1    
    89   43  168 1    
    90   44   45 am   BACKBONE|DICT|INTERRES
    91   44  169 1    
    92   45   46 2    
    93   45   47 1    
    94   47   48 1    
    95   47   49 1    
    96   47  170 1    
    97   48  171 1    
    98   48  172 1    
    99   48  173 1    
   100   49   50 am   BACKBONE|DICT|INTERRES
   101   49  174 1    
   102   50   51 2    
   103   50   52 1    
   104   52   53 1    
   105   52   54 1    
   106   52  175 1    
   107   53  176 1    
   108   53  177 1    
   109   53  178 1    
   110   54   55 am   BACKBONE|DICT|INTERRES
   111   54  179 1    
   112   55   56 2    
   113   55   57 1    
   114   57   58 1    
   115   57   59 1    
   116   57  180 1    
   117   58  181 1    
   118   58  182 1    
   119   58  183 1    
   120   59   60 am   BACKBONE|DICT|INTERRES
   121   59  184 1    
   122   60   61 2    
   123   60   62 1    
   124   62   63 1    
   125   62   64 1    
   126   62  185 1    
   127   63  186 1    
   128   63  187 1    
   129   63  188 1    
   130   64   65 am   BACKBONE|DICT|INTERRES
   131   64  189 1    
   132   65   66 2    
   133   67   68 2    
   134   67   69 am   BACKBONE|DICT|INTERRES
   135   69   70 1    
   136   69  190 1    
   137   70   71 1    
   138   70   72 1    
   139   70  191 1    
   140   71  192 1    
   141   71  193 1    
   142   71  194 1    
   143   72   73 2    
   144   72   74 am   BACKBONE|DICT|INTERRES
   145   74   75 1    
   146   74  195 1    
   147   75   76 1    
   148   75   77 1    
   149   75  196 1    
   150   76  197 1    
   151   76  198 1    
   152   76  199 1    
   153   77   78 2    
   154   77   79 am   BACKBONE|DICT|INTERRES
   155   79   80 1    
   156   79  200 1    
   157   80   81 1    
   158   80   82 1    
   159   80  201 1    
   160   81  202 1    
   161   81  203 1    
   162   81  204 1    
   163   82   83 2    
   164   82   84 am   BACKBONE|DICT|INTERRES
   165   84   85 1    
   166   84  205 1    
   167   85   86 1    
   168   85   87 1    
   169   85  206 1    
   170   86  207 1    
   171   86  208 1    
   172   86  209 1    
   173   87   88 2    
   174   87   89 am   BACKBONE|DICT|INTERRES
   175   89   90 1    
   176   89  210 1    
   177   90   91 1    
   178   90   92 1    
   179   90  211 1    
   180   91  212 1    
   181   91  213 1    
   182   91  214 1    
   183   92   93 2    
   184   92   94 am   BACKBONE|DICT|INTERRES
   185   94   95 1    
   186   94  215 1    
   187   95   96 1    
   188   95   97 1    
   189   95  216 1    
   190   96  217 1    
   191   96  218 1    
   192   96  219 1    
   193   97   98 2    
   194   97   99 am   BACKBONE|DICT|INTERRES
   195   99  100 1    
   196   99  220 1    
   197  100  101 1    
   198  100  102 1    
   199  100  221 1    
   200  101  222 1    
   201  101  223 1    
   202  101  224 1    
   203  102  103 2    
   204  102  104 am   BACKBONE|DICT|INTERRES
   205  104  105 1    
   206  104  225 1    
   207  105  106 1    
   208  105  107 1    
   209  105  226 1    
   210  106  227 1    
   211  106  228 1    
   212  106  229 1    
   213  107  108 2    
   214  107  109 am   BACKBONE|DICT|INTERRES
   215  109  110 1    
   216  109  230 1    
   217  110  111 1    
   218  110  112 1    
   219  110  231 1    
   220  111  232 1    
   221  111  233 1    
   222  111  234 1    
   223  112  113 2    
   224  112  114 am   BACKBONE|DICT|INTERRES
   225  114  115 1    
   226  114  235 1    
   227  115  116 1    
   228  115  117 1    
   229  115  236 1    
   230  116  237 1    
   231  116  238 1    
   232  116  239 1    
   233  117  118 2    
   234  117  119 am   BACKBONE|DICT|INTERRES
   235  119  120 1    
   236  119  240 1    
   237  120  121 1    
   238  120  124 1    
   239  120  241 1    
   240  121  122 am   BACKBONE|DICT|INTERRES
   241  121  123 2    
   242  122  242 1    
   243  122  243 1    
   244  124  125 1    
   245  124  244 1    
   246  124  245 1    
   247  125  126 1    
   248  126  246 1    
   249  126  247 1    
@<TRIPOS>SUBSTRUCTURE
     1 UNK         1 GROUP             0       ****    0 ROOT    
