@<TRIPOS>MOLECULE
3R540
247   249    1
SMALL
USER_CHARGES


@<TRIPOS>ATOM
      1 CA         -6.0888  -12.8054  -48.2884 C.3       0 UNK        -0.1800 
      2 C          -4.7376  -12.9955  -48.9629 C.2       0 UNK         0.5000 
      3 O          -4.5203  -12.4745  -50.0570 O.2       0 UNK        -0.5000 
      4 N          -3.8342  -13.7472  -48.3214 N.am      1 UNK        -0.5000 
      5 CA         -2.4660  -13.9841  -48.7881 C.3       1 UNK         0.1400 
      6 C6         -1.8130  -15.1787  -48.0492 C.3       23 UNK        -0.0398 
      7 S7         -0.5749  -16.0357  -49.0819 S.3       23 UNK        -0.2404 
      8 C8         -1.0699  -17.7564  -48.7795 C.3       23 UNK        -0.0205 
      9 C9         -0.2482  -18.7587  -49.5733 C.ar      23 UNK        -0.0193 
     10 C10        -0.8035  -19.4159  -50.6755 C.ar      23 UNK        -0.1150 
     11 C11        -0.0656  -20.3671  -51.3827 C.ar      23 UNK        -0.0193 
     12 C12         1.2304  -20.6779  -50.9673 C.ar      23 UNK        -0.1150 
     13 C13         1.7916  -20.0420  -49.8583 C.ar      23 UNK        -0.0193 
     14 C14         1.0529  -19.0727  -49.1722 C.ar      23 UNK        -0.1150 
     15 C15         3.1901  -20.4230  -49.4007 C.3       23 UNK        -0.0205 
     16 S16         3.2053  -22.0402  -48.5608 S.3       23 UNK        -0.2404 
     17 C17         2.3551  -21.6332  -47.0009 C.3       23 UNK        -0.0398 
     18 CA          1.3250  -22.6901  -46.5392 C.3       11 UNK         0.1400 
     19 N           0.9795  -22.4873  -45.1300 N.am      11 UNK        -0.5000 
     20 C           0.2854  -23.3437  -44.3704 C.2       10 UNK         0.5000 
     21 O          -0.1001  -24.4441  -44.7637 O.2       10 UNK        -0.5000 
     22 CA         -0.0742  -22.8704  -42.9479 C.3       10 UNK         0.1400 
     23 CB          1.1023  -23.0836  -41.9842 C.3       10 UNK        -0.1800 
     24 N          -0.4892  -21.4659  -42.9121 N.am      10 UNK        -0.5000 
     25 C          -1.5963  -20.9916  -43.5013 C.2       9 UNK         0.5000 
     26 O          -2.4212  -21.7065  -44.0698 O.2       9 UNK        -0.5000 
     27 CA         -1.7839  -19.4609  -43.5115 C.3       9 UNK         0.1400 
     28 CB         -2.3993  -18.9673  -42.1941 C.3       9 UNK        -0.1800 
     29 N          -0.5371  -18.7395  -43.7792 N.am      9 UNK        -0.5000 
     30 C           0.1664  -18.8506  -44.9145 C.2       8 UNK         0.5000 
     31 O          -0.1896  -19.5334  -45.8698 O.2       8 UNK        -0.5000 
     32 CA          1.5237  -18.1361  -44.9760 C.3       8 UNK         0.1400 
     33 CB          1.3518  -16.6602  -45.3623 C.3       8 UNK        -0.1800 
     34 N           2.2465  -18.2564  -43.7109 N.am      8 UNK        -0.5000 
     35 C           2.7838  -19.4008  -43.2616 C.2       7 UNK         0.5000 
     36 O           2.7695  -20.4535  -43.8980 O.2       7 UNK        -0.5000 
     37 CA          3.3965  -19.3797  -41.8485 C.3       7 UNK         0.1400 
     38 CB          4.8571  -18.9085  -41.9012 C.3       7 UNK        -0.1800 
     39 N           2.6467  -18.5271  -40.9264 N.am      7 UNK        -0.5000 
     40 C           1.3911  -18.7647  -40.5198 C.2       6 UNK         0.5000 
     41 O           0.7637  -19.7838  -40.8081 O.2       6 UNK        -0.5000 
     42 CA          0.7038  -17.6426  -39.7139 C.3       6 UNK         0.1400 
     43 CB          0.9417  -17.8350  -38.2092 C.3       6 UNK        -0.1800 
     44 N           1.1466  -16.2997  -40.1104 N.am      6 UNK        -0.5000 
     45 C           0.9839  -15.7815  -41.3359 C.2       5 UNK         0.5000 
     46 O           0.3879  -16.3706  -42.2392 O.2       5 UNK        -0.5000 
     47 CA          1.6913  -14.4384  -41.6065 C.3       5 UNK         0.1400 
     48 CB          3.2119  -14.6543  -41.6972 C.3       5 UNK        -0.1800 
     49 N           1.2620  -13.7704  -42.8365 N.am      5 UNK        -0.5000 
     50 C           0.0487  -13.2694  -43.0865 C.2       4 UNK         0.5000 
     51 O          -0.8928  -13.3575  -42.2967 O.2       4 UNK        -0.5000 
     52 CA         -0.1680  -12.5069  -44.4158 C.3       4 UNK         0.1400 
     53 CB         -0.1620  -10.9874  -44.1635 C.3       4 UNK        -0.1800 
     54 N           0.7124  -12.8230  -45.5549 N.am      4 UNK        -0.5000 
     55 C           2.0431  -12.6949  -45.6814 C.2       3 UNK         0.5000 
     56 O           2.8024  -12.4379  -44.7478 O.2       3 UNK        -0.5000 
     57 CA          2.6315  -12.8608  -47.0990 C.3       3 UNK         0.1400 
     58 CB          3.2242  -14.2617  -47.3075 C.3       3 UNK        -0.1800 
     59 N           1.6613  -12.5953  -48.1631 N.am      3 UNK        -0.5000 
     60 C           1.2590  -11.3721  -48.5369 C.2       2 UNK         0.5000 
     61 O           1.6948  -10.3286  -48.0497 O.2       2 UNK        -0.5000 
     62 CA          0.1762  -11.3050  -49.6322 C.3       2 UNK         0.1400 
     63 CB          0.8210  -11.2030  -51.0231 C.3       2 UNK        -0.1800 
     64 N          -0.7406  -12.4484  -49.6159 N.am      2 UNK        -0.5000 
     65 C          -1.6098  -12.7120  -48.6319 C.2       1 UNK         0.5000 
     66 O          -1.7179  -12.0292  -47.6110 O.2       1 UNK        -0.5000 
     67 C           0.0648  -22.7539  -47.4361 C.2       11 UNK         0.5000 
     68 O          -0.0327  -23.6429  -48.2822 O.2       11 UNK        -0.5000 
     69 N          -0.9130  -21.8711  -47.1845 N.am      12 UNK        -0.5000 
     70 CA         -2.2273  -21.8681  -47.8298 C.3       12 UNK         0.1400 
     71 CB         -3.0241  -20.6290  -47.3981 C.3       12 UNK        -0.1800 
     72 C          -3.0368  -23.1391  -47.5256 C.2       12 UNK         0.5000 
     73 O          -3.6543  -23.6921  -48.4330 O.2       12 UNK        -0.5000 
     74 N          -3.0001  -23.6004  -46.2674 N.am      13 UNK        -0.5000 
     75 CA         -3.6355  -24.8441  -45.8287 C.3       13 UNK         0.1400 
     76 CB         -3.5897  -24.9390  -44.2963 C.3       13 UNK        -0.1800 
     77 C          -3.0128  -26.0937  -46.4806 C.2       13 UNK         0.5000 
     78 O          -3.7449  -27.0228  -46.8222 O.2       13 UNK        -0.5000 
     79 N          -1.6856  -26.0807  -46.6707 N.am      14 UNK        -0.5000 
     80 CA         -0.9398  -27.1153  -47.3878 C.3       14 UNK         0.1400 
     81 CB          0.5644  -26.9442  -47.1253 C.3       14 UNK        -0.1800 
     82 C          -1.2428  -27.1234  -48.8992 C.2       14 UNK         0.5000 
     83 O          -1.3819  -28.2009  -49.4796 O.2       14 UNK        -0.5000 
     84 N          -1.3595  -25.9317  -49.5041 N.am      15 UNK        -0.5000 
     85 CA         -1.7615  -25.7401  -50.9012 C.3       15 UNK         0.1400 
     86 CB         -1.5122  -24.2799  -51.3084 C.3       15 UNK        -0.1800 
     87 C          -3.2293  -26.1362  -51.1619 C.2       15 UNK         0.5000 
     88 O          -3.5298  -26.6845  -52.2234 O.2       15 UNK        -0.5000 
     89 N          -4.0923  -25.8778  -50.1702 N.am      16 UNK        -0.5000 
     90 CA         -5.5250  -26.1661  -50.1120 C.3       16 UNK         0.1400 
     91 CB         -5.7863  -27.6852  -50.2233 C.3       16 UNK        -0.1800 
     92 C          -6.3532  -25.3172  -51.1010 C.2       16 UNK         0.5000 
     93 O          -5.8837  -24.2792  -51.5771 O.2       16 UNK        -0.5000 
     94 N          -7.5989  -25.7511  -51.3479 N.am      17 UNK        -0.5000 
     95 CA         -8.6319  -25.0714  -52.1357 C.3       17 UNK         0.1400 
     96 CB         -8.2519  -25.0574  -53.6349 C.3       17 UNK        -0.1800 
     97 C          -8.9566  -23.6836  -51.5401 C.2       17 UNK         0.5000 
     98 O          -9.2707  -23.6020  -50.3508 O.2       17 UNK        -0.5000 
     99 N          -8.8591  -22.6297  -52.3555 N.am      18 UNK        -0.5000 
    100 CA        -8.9895  -21.2289  -51.9552 C.3       18 UNK         0.1400 
    101 CB       -10.3476  -20.6874  -52.4389 C.3       18 UNK        -0.1800 
    102 C         -7.7942  -20.4171  -52.4910 C.2       18 UNK         0.5000 
    103 O         -7.9503  -19.2459  -52.8412 O.2       18 UNK        -0.5000 
    104 N         -6.6243  -21.0654  -52.5830 N.am      19 UNK        -0.5000 
    105 CA        -5.3819  -20.4832  -53.0848 C.3       19 UNK         0.1400 
    106 CB        -4.3789  -21.6203  -53.3254 C.3       19 UNK        -0.1800 
    107 C         -4.8108  -19.4284  -52.1164 C.2       19 UNK         0.5000 
    108 O         -4.8350  -19.6351  -50.9008 O.2       19 UNK        -0.5000 
    109 N         -4.2981  -18.3263  -52.6721 N.am      20 UNK        -0.5000 
    110 CA        -3.7311  -17.1977  -51.9421 C.3       20 UNK         0.1400 
    111 CB        -4.8492  -16.2306  -51.5164 C.3       20 UNK        -0.1800 
    112 C         -2.7052  -16.4921  -52.8375 C.2       20 UNK         0.5000 
    113 O         -2.9288  -16.3970  -54.0467 O.2       20 UNK        -0.5000 
    114 N         -1.6257  -15.9897  -52.2191 N.am      21 UNK        -0.5000 
    115 CA        -0.5489  -15.1917  -52.8207 C.3       21 UNK         0.1400 
    116 CB        -1.0778  -13.7978  -53.2201 C.3       21 UNK        -0.1800 
    117 C          0.1801  -15.9150  -53.9738 C.2       21 UNK         0.5000 
    118 O          0.4356  -15.3163  -55.0205 O.2       21 UNK        -0.5000 
    119 N          0.4864  -17.2011  -53.7619 N.am      22 UNK        -0.5000 
    120 CA         1.0821  -18.0952  -54.7717 C.3       22 UNK         0.1400 
    121 C          2.5812  -17.8244  -55.0978 C.2       22 UNK         0.5000 
    122 N          3.2985  -17.0187  -54.3242 N.am      22 UNK        -0.7600 
    123 O          3.1022  -18.3536  -56.0758 O.2       22 UNK        -0.5000 
    124 C124        0.8663  -19.5926  -54.4316 C.3       23 UNK        -0.0398 
    125 S125       -0.8695  -19.9955  -54.0253 S.3       23 UNK        -0.2404 
    126 C126       -0.6783  -21.0824  -52.5760 C.3       23 UNK        -0.0205 
    127 H127       -6.1427  -13.3280  -47.3330 H         1 UNK         0.0600 
    128 H128       -6.8844  -13.1857  -48.9292 H         1 UNK         0.0600 
    129 H129       -6.2719  -11.7463  -48.1074 H         1 UNK         0.0600 
    130 H130       -4.0603  -14.1136  -47.4081 H         1 UNK         0.3000 
    131 H131       -2.5355  -14.2250  -49.8512 H         1 UNK         0.0600 
    132 H132       -2.5844  -15.8995  -47.7742 H         1 UNK         0.0800 
    133 H133       -1.3534  -14.8807  -47.1045 H         1 UNK         0.0800 
    134 H134       -2.1300  -17.8774  -49.0037 H         1 UNK         0.0800 
    135 H135       -0.9571  -17.9586  -47.7158 H         1 UNK         0.0800 
    136 H136       -1.8165  -19.2105  -50.9818 H         1 UNK         0.1150 
    137 H137        1.8009  -21.4290  -51.4954 H         1 UNK         0.1150 
    138 H138        1.4775  -18.5765  -48.3113 H         1 UNK         0.1150 
    139 H139        3.8519  -20.4681  -50.2668 H         1 UNK         0.0800 
    140 H140        3.6051  -19.6615  -48.7384 H         1 UNK         0.0800 
    141 H141        1.8878  -20.6526  -47.0645 H         1 UNK         0.0800 
    142 H142        3.1401  -21.5367  -46.2505 H         1 UNK         0.0800 
    143 H143        1.8078  -23.6678  -46.6002 H         1 UNK         0.0600 
    144 H144        1.3031  -21.6232  -44.7093 H         1 UNK         0.3000 
    145 H145       -0.9123  -23.4766  -42.5982 H         1 UNK         0.0600 
    146 H146        0.8322  -22.8043  -40.9655 H         1 UNK         0.0600 
    147 H147        1.9729  -22.4940  -42.2715 H         1 UNK         0.0600 
    148 H148        1.4062  -24.1309  -41.9658 H         1 UNK         0.0600 
    149 H149        0.1077  -20.8207  -42.4045 H         1 UNK         0.3000 
    150 H150       -2.4795  -19.2203  -44.3180 H         1 UNK         0.0600 
    151 H151       -3.3728  -19.4289  -42.0248 H         1 UNK         0.0600 
    152 H152       -2.5479  -17.8873  -42.2075 H         1 UNK         0.0600 
    153 H153       -1.7715  -19.2087  -41.3372 H         1 UNK         0.0600 
    154 H154       -0.1967  -18.1098  -43.0598 H         1 UNK         0.3000 
    155 H155        2.1258  -18.6136  -45.7514 H         1 UNK         0.0600 
    156 H156        0.6219  -16.1463  -44.7387 H         1 UNK         0.0600 
    157 H157        1.0027  -16.5765  -46.3915 H         1 UNK         0.0600 
    158 H158        2.2952  -16.1218  -45.2836 H         1 UNK         0.0600 
    159 H159        2.2192  -17.4536  -43.1000 H         1 UNK         0.3000 
    160 H160        3.3777  -20.4005  -41.4609 H         1 UNK         0.0600 
    161 H161        4.9381  -17.8818  -42.2607 H         1 UNK         0.0600 
    162 H162        5.4458  -19.5381  -42.5699 H         1 UNK         0.0600 
    163 H163        5.3230  -18.9578  -40.9168 H         1 UNK         0.0600 
    164 H164        3.0935  -17.6726  -40.6299 H         1 UNK         0.3000 
    165 H165       -0.3695  -17.7103  -39.9024 H         1 UNK         0.0600 
    166 H166        0.3954  -17.0940  -37.6254 H         1 UNK         0.0600 
    167 H167        0.6011  -18.8188  -37.8834 H         1 UNK         0.0600 
    168 H168        1.9989  -17.7523  -37.9537 H         1 UNK         0.0600 
    169 H169        1.6486  -15.7677  -39.4139 H         1 UNK         0.3000 
    170 H170        1.4773  -13.7697  -40.7706 H         1 UNK         0.0600 
    171 H171        3.4750  -15.3162  -42.5235 H         1 UNK         0.0600 
    172 H172        3.7339  -13.7093  -41.8505 H         1 UNK         0.0600 
    173 H173        3.6106  -15.0937  -40.7822 H         1 UNK         0.0600 
    174 H174        1.9837  -13.5698  -43.5219 H         1 UNK         0.3000 
    175 H175       -1.1717  -12.7755  -44.7494 H         1 UNK         0.0600 
    176 H176        0.8172  -10.6364  -43.8363 H         1 UNK         0.0600 
    177 H177       -0.4308  -10.4390  -45.0668 H         1 UNK         0.0600 
    178 H178       -0.8826  -10.7134  -43.3919 H         1 UNK         0.0600 
    179 H179        0.2107  -13.0272  -46.4064 H         1 UNK         0.3000 
    180 H180        3.4482  -12.1409  -47.1864 H         1 UNK         0.0600 
    181 H181        3.8335  -14.2941  -48.2108 H         1 UNK         0.0600 
    182 H182        2.4463  -15.0166  -47.4117 H         1 UNK         0.0600 
    183 H183        3.8669  -14.5505  -46.4747 H         1 UNK         0.0600 
    184 H184        1.2665  -13.3971  -48.6321 H         1 UNK         0.3000 
    185 H185       -0.4100  -10.3998  -49.4596 H         1 UNK         0.0600 
    186 H186        0.0671  -11.0626  -51.7980 H         1 UNK         0.0600 
    187 H187        1.5012  -10.3519  -51.0769 H         1 UNK         0.0600 
    188 H188        1.3944  -12.0976  -51.2693 H         1 UNK         0.0600 
    189 H189       -0.7022  -13.0615  -50.4154 H         1 UNK         0.3000 
    190 H190       -0.7315  -21.1205  -46.5210 H         1 UNK         0.3000 
    191 H191       -2.0643  -21.8130  -48.9082 H         1 UNK         0.0600 
    192 H192       -3.3081  -20.6717  -46.3470 H         1 UNK         0.0600 
    193 H193       -3.9402  -20.5349  -47.9828 H         1 UNK         0.0600 
    194 H194       -2.4507  -19.7193  -47.5436 H         1 UNK         0.0600 
    195 H195       -2.5224  -23.0527  -45.5586 H         1 UNK         0.3000 
    196 H196       -4.6840  -24.8036  -46.1311 H         1 UNK         0.0600 
    197 H197       -4.0799  -24.0822  -43.8336 H         1 UNK         0.0600 
    198 H198       -2.5670  -24.9803  -43.9231 H         1 UNK         0.0600 
    199 H199       -4.1023  -25.8358  -43.9465 H         1 UNK         0.0600 
    200 H200       -1.1496  -25.3037  -46.2984 H         1 UNK         0.3000 
    201 H201       -1.2410  -28.0845  -46.9848 H         1 UNK         0.0600 
    202 H202        0.7857  -26.9901  -46.0588 H         1 UNK         0.0600 
    203 H203        0.9368  -25.9920  -47.5021 H         1 UNK         0.0600 
    204 H204        1.1366  -27.7350  -47.6116 H         1 UNK         0.0600 
    205 H205       -1.1496  -25.0928  -48.9706 H         1 UNK         0.3000 
    206 H206       -1.1294  -26.3777  -51.5226 H         1 UNK         0.0600 
    207 H207       -2.1168  -23.5889  -50.7208 H         1 UNK         0.0600 
    208 H208       -0.4658  -24.0048  -51.1740 H         1 UNK         0.0600 
    209 H209       -1.7612  -24.1211  -52.3583 H         1 UNK         0.0600 
    210 H210       -3.7520  -25.3018  -49.4048 H         1 UNK         0.3000 
    211 H211       -5.8378  -25.8524  -49.1151 H         1 UNK         0.0600 
    212 H212       -5.6343  -28.0506  -51.2394 H         1 UNK         0.0600 
    213 H213       -6.8053  -27.9383  -49.9301 H         1 UNK         0.0600 
    214 H214       -5.1208  -28.2447  -49.5650 H         1 UNK         0.0600 
    215 H215       -7.9023  -26.5942  -50.8820 H         1 UNK         0.3000 
    216 H216       -9.5413  -25.6650  -52.0327 H         1 UNK         0.0600 
    217 H217       -9.0610  -24.6523  -54.2439 H         1 UNK         0.0600 
    218 H218       -8.0614  -26.0687  -53.9944 H         1 UNK         0.0600 
    219 H219       -7.3560  -24.4674  -53.8313 H         1 UNK         0.0600 
    220 H220       -8.5769  -22.7876  -53.3130 H         1 UNK         0.3000 
    221 H221       -8.9526  -21.1389  -50.8677 H         1 UNK         0.0600 
    222 H222      -10.4217  -20.7053  -53.5268 H         1 UNK         0.0600 
    223 H223      -11.1713  -21.2777  -52.0371 H         1 UNK         0.0600 
    224 H224      -10.5000  -19.6577  -52.1133 H         1 UNK         0.0600 
    225 H225       -6.5626  -22.0120  -52.2303 H         1 UNK         0.3000 
    226 H226       -5.5973  -20.0064  -54.0435 H         1 UNK         0.0600 
    227 H227       -4.8048  -22.3975  -53.9603 H         1 UNK         0.0600 
    228 H228       -3.4886  -21.2492  -53.8298 H         1 UNK         0.0600 
    229 H229       -4.0677  -22.0890  -52.3905 H         1 UNK         0.0600 
    230 H230       -4.2596  -18.2312  -53.6793 H         1 UNK         0.3000 
    231 H231       -3.2286  -17.5539  -51.0443 H         1 UNK         0.0600 
    232 H232       -5.5528  -16.7131  -50.8377 H         1 UNK         0.0600 
    233 H233       -5.4112  -15.8641  -52.3763 H         1 UNK         0.0600 
    234 H234       -4.4409  -15.3634  -50.9976 H         1 UNK         0.0600 
    235 H235       -1.5157  -16.1641  -51.2288 H         1 UNK         0.3000 
    236 H236        0.1983  -15.0459  -52.0393 H         1 UNK         0.0600 
    237 H237       -1.7813  -13.8573  -54.0513 H         1 UNK         0.0600 
    238 H238       -1.5886  -13.3113  -52.3896 H         1 UNK         0.0600 
    239 H239       -0.2619  -13.1433  -53.5291 H         1 UNK         0.0600 
    240 H240        0.2276  -17.6315  -52.8863 H         1 UNK         0.3000 
    241 H241        0.5455  -17.9078  -55.7040 H         1 UNK         0.0600 
    242 H242        4.2664  -16.8474  -54.5474 H         1 UNK         0.3800 
    243 H243        2.8829  -16.5776  -53.5200 H         1 UNK         0.3800 
    244 H244        1.5173  -19.8827  -53.6073 H         1 UNK         0.0800 
    245 H245        1.1598  -20.2177  -55.2766 H         1 UNK         0.0800 
    246 H246       -1.6560  -21.4658  -52.2864 H         1 UNK         0.0800 
    247 H247       -0.0817  -21.9512  -52.8582 H         1 UNK         0.0800 
@<TRIPOS>BOND
     1    1    2 1    
     2    1  127 1    
     3    1  128 1    
     4    1  129 1    
     5    2    3 2    
     6    2    4 am   BACKBONE|DICT|INTERRES
     7    4    5 1    
     8    4  130 1    
     9    5    6 1    
    10    5   65 1    
    11    5  131 1    
    12    6    7 1    
    13    6  132 1    
    14    6  133 1    
    15    7    8 1    
    16    8    9 1    
    17    8  134 1    
    18    8  135 1    
    19    9   10 ar   
    20    9   14 ar   
    21   10   11 ar   
    22   10  136 1    
    23   11   12 ar   
    24   11  126 1    
    25   12   13 ar   
    26   12  137 1    
    27   13   14 ar   
    28   13   15 1    
    29   14  138 1    
    30   15   16 1    
    31   15  139 1    
    32   15  140 1    
    33   16   17 1    
    34   17   18 1    
    35   17  141 1    
    36   17  142 1    
    37   18   19 1    
    38   18   67 1    
    39   18  143 1    
    40   19   20 am   BACKBONE|DICT|INTERRES
    41   19  144 1    
    42   20   21 2    
    43   20   22 1    
    44   22   23 1    
    45   22   24 1    
    46   22  145 1    
    47   23  146 1    
    48   23  147 1    
    49   23  148 1    
    50   24   25 am   BACKBONE|DICT|INTERRES
    51   24  149 1    
    52   25   26 2    
    53   25   27 1    
    54   27   28 1    
    55   27   29 1    
    56   27  150 1    
    57   28  151 1    
    58   28  152 1    
    59   28  153 1    
    60   29   30 am   BACKBONE|DICT|INTERRES
    61   29  154 1    
    62   30   31 2    
    63   30   32 1    
    64   32   33 1    
    65   32   34 1    
    66   32  155 1    
    67   33  156 1    
    68   33  157 1    
    69   33  158 1    
    70   34   35 am   BACKBONE|DICT|INTERRES
    71   34  159 1    
    72   35   36 2    
    73   35   37 1    
    74   37   38 1    
    75   37   39 1    
    76   37  160 1    
    77   38  161 1    
    78   38  162 1    
    79   38  163 1    
    80   39   40 am   BACKBONE|DICT|INTERRES
    81   39  164 1    
    82   40   41 2    
    83   40   42 1    
    84   42   43 1    
    85   42   44 1    
    86   42  165 1    
    87   43  166 1    
    88   43  167 1    
    89   43  168 1    
    90   44   45 am   BACKBONE|DICT|INTERRES
    91   44  169 1    
    92   45   46 2    
    93   45   47 1    
    94   47   48 1    
    95   47   49 1    
    96   47  170 1    
    97   48  171 1    
    98   48  172 1    
    99   48  173 1    
   100   49   50 am   BACKBONE|DICT|INTERRES
   101   49  174 1    
   102   50   51 2    
   103   50   52 1    
   104   52   53 1    
   105   52   54 1    
   106   52  175 1    
   107   53  176 1    
   108   53  177 1    
   109   53  178 1    
   110   54   55 am   BACKBONE|DICT|INTERRES
   111   54  179 1    
   112   55   56 2    
   113   55   57 1    
   114   57   58 1    
   115   57   59 1    
   116   57  180 1    
   117   58  181 1    
   118   58  182 1    
   119   58  183 1    
   120   59   60 am   BACKBONE|DICT|INTERRES
   121   59  184 1    
   122   60   61 2    
   123   60   62 1    
   124   62   63 1    
   125   62   64 1    
   126   62  185 1    
   127   63  186 1    
   128   63  187 1    
   129   63  188 1    
   130   64   65 am   BACKBONE|DICT|INTERRES
   131   64  189 1    
   132   65   66 2    
   133   67   68 2    
   134   67   69 am   BACKBONE|DICT|INTERRES
   135   69   70 1    
   136   69  190 1    
   137   70   71 1    
   138   70   72 1    
   139   70  191 1    
   140   71  192 1    
   141   71  193 1    
   142   71  194 1    
   143   72   73 2    
   144   72   74 am   BACKBONE|DICT|INTERRES
   145   74   75 1    
   146   74  195 1    
   147   75   76 1    
   148   75   77 1    
   149   75  196 1    
   150   76  197 1    
   151   76  198 1    
   152   76  199 1    
   153   77   78 2    
   154   77   79 am   BACKBONE|DICT|INTERRES
   155   79   80 1    
   156   79  200 1    
   157   80   81 1    
   158   80   82 1    
   159   80  201 1    
   160   81  202 1    
   161   81  203 1    
   162   81  204 1    
   163   82   83 2    
   164   82   84 am   BACKBONE|DICT|INTERRES
   165   84   85 1    
   166   84  205 1    
   167   85   86 1    
   168   85   87 1    
   169   85  206 1    
   170   86  207 1    
   171   86  208 1    
   172   86  209 1    
   173   87   88 2    
   174   87   89 am   BACKBONE|DICT|INTERRES
   175   89   90 1    
   176   89  210 1    
   177   90   91 1    
   178   90   92 1    
   179   90  211 1    
   180   91  212 1    
   181   91  213 1    
   182   91  214 1    
   183   92   93 2    
   184   92   94 am   BACKBONE|DICT|INTERRES
   185   94   95 1    
   186   94  215 1    
   187   95   96 1    
   188   95   97 1    
   189   95  216 1    
   190   96  217 1    
   191   96  218 1    
   192   96  219 1    
   193   97   98 2    
   194   97   99 am   BACKBONE|DICT|INTERRES
   195   99  100 1    
   196   99  220 1    
   197  100  101 1    
   198  100  102 1    
   199  100  221 1    
   200  101  222 1    
   201  101  223 1    
   202  101  224 1    
   203  102  103 2    
   204  102  104 am   BACKBONE|DICT|INTERRES
   205  104  105 1    
   206  104  225 1    
   207  105  106 1    
   208  105  107 1    
   209  105  226 1    
   210  106  227 1    
   211  106  228 1    
   212  106  229 1    
   213  107  108 2    
   214  107  109 am   BACKBONE|DICT|INTERRES
   215  109  110 1    
   216  109  230 1    
   217  110  111 1    
   218  110  112 1    
   219  110  231 1    
   220  111  232 1    
   221  111  233 1    
   222  111  234 1    
   223  112  113 2    
   224  112  114 am   BACKBONE|DICT|INTERRES
   225  114  115 1    
   226  114  235 1    
   227  115  116 1    
   228  115  117 1    
   229  115  236 1    
   230  116  237 1    
   231  116  238 1    
   232  116  239 1    
   233  117  118 2    
   234  117  119 am   BACKBONE|DICT|INTERRES
   235  119  120 1    
   236  119  240 1    
   237  120  121 1    
   238  120  124 1    
   239  120  241 1    
   240  121  122 am   BACKBONE|DICT|INTERRES
   241  121  123 2    
   242  122  242 1    
   243  122  243 1    
   244  124  125 1    
   245  124  244 1    
   246  124  245 1    
   247  125  126 1    
   248  126  246 1    
   249  126  247 1    
@<TRIPOS>SUBSTRUCTURE
     1 UNK         1 GROUP             0       ****    0 ROOT    
