@<TRIPOS>MOLECULE
3R540
247   249    1
SMALL
USER_CHARGES


@<TRIPOS>ATOM
      1 CA          3.5829  -13.4932  -46.5691 C.3       0 UNK        -0.1800 
      2 C           2.3781  -12.6785  -46.1247 C.2       0 UNK         0.5000 
      3 O           2.2142  -12.4383  -44.9281 O.2       0 UNK        -0.5000 
      4 N           1.5335  -12.2558  -47.0739 N.am      1 UNK        -0.5000 
      5 CA          0.2859  -11.5172  -46.8441 C.3       1 UNK         0.1400 
      6 C6         -0.5141  -11.2986  -48.1555 C.3       23 UNK        -0.0398 
      7 S7         -0.8871  -12.7961  -49.1437 S.3       23 UNK        -0.2404 
      8 C8         -1.1691  -14.0974  -47.9014 C.3       23 UNK        -0.0205 
      9 C9         -1.5040  -15.4258  -48.5581 C.ar      23 UNK        -0.0193 
     10 C10        -2.8214  -15.8877  -48.5958 C.ar      23 UNK        -0.1150 
     11 C11        -3.1245  -17.1239  -49.1738 C.ar      23 UNK        -0.0193 
     12 C12        -2.0958  -17.8948  -49.7281 C.ar      23 UNK        -0.1150 
     13 C13        -0.7725  -17.4363  -49.7090 C.ar      23 UNK        -0.0193 
     14 C14        -0.4865  -16.2040  -49.1150 C.ar      23 UNK        -0.1150 
     15 C15         0.3606  -18.2344  -50.3493 C.3       23 UNK        -0.0205 
     16 S16         0.3637  -20.0108  -49.9429 S.3       23 UNK        -0.2404 
     17 C17         0.5101  -19.9940  -48.1221 C.3       23 UNK        -0.0398 
     18 CA         -0.0253  -21.2940  -47.4757 C.3       11 UNK         0.1400 
     19 N           0.3459  -21.4001  -46.0632 N.am      11 UNK        -0.5000 
     20 C           0.1174  -22.4673  -45.2835 C.2       10 UNK         0.5000 
     21 O          -0.4064  -23.5092  -45.6802 O.2       10 UNK        -0.5000 
     22 CA          0.4767  -22.3201  -43.7949 C.3       10 UNK         0.1400 
     23 CB          1.9933  -22.4295  -43.5786 C.3       10 UNK        -0.1800 
     24 N          -0.0195  -21.0622  -43.2350 N.am      10 UNK        -0.5000 
     25 C          -1.3194  -20.7520  -43.1201 C.2       9 UNK         0.5000 
     26 O          -2.2340  -21.5269  -43.4026 O.2       9 UNK        -0.5000 
     27 CA         -1.6583  -19.3293  -42.6396 C.3       9 UNK         0.1400 
     28 CB         -1.5952  -19.2463  -41.1073 C.3       9 UNK        -0.1800 
     29 N          -0.7939  -18.3027  -43.2255 N.am      9 UNK        -0.5000 
     30 C          -0.7376  -18.0063  -44.5324 C.2       8 UNK         0.5000 
     31 O          -1.4273  -18.5576  -45.3875 O.2       8 UNK        -0.5000 
     32 CA          0.3031  -16.9581  -44.9669 C.3       8 UNK         0.1400 
     33 CB         -0.1764  -15.5370  -44.6374 C.3       8 UNK        -0.1800 
     34 N           1.6125  -17.1923  -44.3584 N.am      8 UNK        -0.5000 
     35 C           2.3484  -18.2984  -44.5395 C.2       7 UNK         0.5000 
     36 O           2.0333  -19.2165  -45.2956 O.2       7 UNK        -0.5000 
     37 CA          3.6215  -18.4267  -43.6889 C.3       7 UNK         0.1400 
     38 CB          4.7913  -17.6639  -44.3288 C.3       7 UNK        -0.1800 
     39 N           3.4025  -17.9552  -42.3214 N.am      7 UNK        -0.5000 
     40 C           2.6618  -18.6044  -41.4116 C.2       6 UNK         0.5000 
     41 O           2.1162  -19.6876  -41.6228 O.2       6 UNK        -0.5000 
     42 CA          2.4670  -17.9090  -40.0511 C.3       6 UNK         0.1400 
     43 CB          3.6658  -18.1769  -39.1291 C.3       6 UNK        -0.1800 
     44 N           2.2657  -16.4646  -40.1787 N.am      6 UNK        -0.5000 
     45 C           1.1917  -15.9007  -40.7486 C.2       5 UNK         0.5000 
     46 O           0.2375  -16.5418  -41.1856 O.2       5 UNK        -0.5000 
     47 CA          1.2034  -14.3675  -40.9009 C.3       5 UNK         0.1400 
     48 CB          0.6046  -13.6981  -39.6553 C.3       5 UNK        -0.1800 
     49 N           2.5266  -13.7952  -41.1696 N.am      5 UNK        -0.5000 
     50 C           3.3195  -14.1316  -42.1954 C.2       4 UNK         0.5000 
     51 O           3.0464  -15.0129  -43.0119 O.2       4 UNK        -0.5000 
     52 CA          4.6008  -13.3061  -42.3504 C.3       4 UNK         0.1400 
     53 CB          5.6926  -14.0388  -43.1530 C.3       4 UNK        -0.1800 
     54 N           4.2324  -12.0696  -43.0247 N.am      4 UNK        -0.5000 
     55 C           4.8476  -10.8905  -42.8852 C.2       3 UNK         0.5000 
     56 O           5.8134  -10.7116  -42.1419 O.2       3 UNK        -0.5000 
     57 CA          4.2948   -9.7067  -43.6967 C.3       3 UNK         0.1400 
     58 CB          4.9543   -9.6452  -45.0840 C.3       3 UNK        -0.1800 
     59 N           2.8407   -9.7793  -43.8585 N.am      3 UNK        -0.5000 
     60 C           1.9894   -8.7704  -43.6281 C.2       2 UNK         0.5000 
     61 O           2.3453   -7.6610  -43.2258 O.2       2 UNK        -0.5000 
     62 CA          0.4867   -9.0457  -43.8736 C.3       2 UNK         0.1400 
     63 CB         -0.2995   -7.7756  -44.2624 C.3       2 UNK        -0.1800 
     64 N           0.2289  -10.1344  -44.8248 N.am      2 UNK        -0.5000 
     65 C           0.5575  -10.1779  -46.1252 C.2       1 UNK         0.5000 
     66 O           1.0908   -9.2528  -46.7406 O.2       1 UNK        -0.5000 
     67 C          -1.5438  -21.4661  -47.6839 C.2       11 UNK         0.5000 
     68 O          -1.9389  -22.2354  -48.5565 O.2       11 UNK        -0.5000 
     69 N          -2.3572  -20.8132  -46.8410 N.am      12 UNK        -0.5000 
     70 CA         -3.8190  -20.8761  -46.8741 C.3       12 UNK         0.1400 
     71 CB         -4.4062  -19.8970  -45.8474 C.3       12 UNK        -0.1800 
     72 C          -4.4129  -22.2863  -46.6974 C.2       12 UNK         0.5000 
     73 O          -5.5108  -22.5394  -47.1977 O.2       12 UNK        -0.5000 
     74 N          -3.6834  -23.1720  -46.0080 N.am      13 UNK        -0.5000 
     75 CA         -4.0077  -24.5894  -45.8951 C.3       13 UNK         0.1400 
     76 CB         -3.4858  -25.1218  -44.5511 C.3       13 UNK        -0.1800 
     77 C          -3.4214  -25.3931  -47.0697 C.2       13 UNK         0.5000 
     78 O          -4.1341  -26.1966  -47.6717 O.2       13 UNK        -0.5000 
     79 N          -2.1298  -25.1834  -47.3594 N.am      14 UNK        -0.5000 
     80 CA         -1.3542  -25.9689  -48.3202 C.3       14 UNK         0.1400 
     81 CB          0.1396  -25.6682  -48.1236 C.3       14 UNK        -0.1800 
     82 C          -1.7499  -25.7568  -49.7929 C.2       14 UNK         0.5000 
     83 O          -1.7631  -26.7233  -50.5558 O.2       14 UNK        -0.5000 
     84 N          -2.0461  -24.5091  -50.1740 N.am      15 UNK        -0.5000 
     85 CA         -2.2936  -24.0895  -51.5553 C.3       15 UNK         0.1400 
     86 CB         -1.5214  -22.7851  -51.8181 C.3       15 UNK        -0.1800 
     87 C          -3.7929  -23.9313  -51.8697 C.2       15 UNK         0.5000 
     88 O          -4.1391  -23.2687  -52.8513 O.2       15 UNK        -0.5000 
     89 N          -4.6557  -24.5358  -51.0399 N.am      16 UNK        -0.5000 
     90 CA         -6.1177  -24.4413  -51.0908 C.3       16 UNK         0.1400 
     91 CB         -6.7005  -25.1450  -49.8566 C.3       16 UNK        -0.1800 
     92 C          -6.7656  -24.9785  -52.3817 C.2       16 UNK         0.5000 
     93 O          -7.8885  -24.5851  -52.6993 O.2       16 UNK        -0.5000 
     94 N          -6.0526  -25.8409  -53.1106 N.am      17 UNK        -0.5000 
     95 CA         -6.4286  -26.3683  -54.4151 C.3       17 UNK         0.1400 
     96 CB         -7.2390  -27.6630  -54.2334 C.3       17 UNK        -0.1800 
     97 C          -5.1500  -26.6195  -55.2254 C.2       17 UNK         0.5000 
     98 O          -4.0653  -26.7095  -54.6426 O.2       17 UNK        -0.5000 
     99 N          -5.3060  -26.7272  -56.5520 N.am      18 UNK        -0.5000 
    100 CA        -4.3039  -27.0352  -57.5863 C.3       18 UNK         0.1400 
    101 CB        -3.6806  -28.4256  -57.3570 C.3       18 UNK        -0.1800 
    102 C         -3.2066  -25.9699  -57.7965 C.2       18 UNK         0.5000 
    103 O         -2.8377  -25.7097  -58.9426 O.2       18 UNK        -0.5000 
    104 N         -2.7032  -25.3862  -56.7048 N.am      19 UNK        -0.5000 
    105 CA        -1.6932  -24.3339  -56.6768 C.3       19 UNK         0.1400 
    106 CB        -0.8508  -24.5035  -55.3969 C.3       19 UNK        -0.1800 
    107 C         -2.3612  -22.9497  -56.8132 C.2       19 UNK         0.5000 
    108 O         -2.9222  -22.6478  -57.8676 O.2       19 UNK        -0.5000 
    109 N         -2.2840  -22.1237  -55.7606 N.am      20 UNK        -0.5000 
    110 CA        -2.8203  -20.7606  -55.7223 C.3       20 UNK         0.1400 
    111 CB        -2.2552  -20.0366  -54.4884 C.3       20 UNK        -0.1800 
    112 C         -4.3591  -20.6961  -55.7040 C.2       20 UNK         0.5000 
    113 O         -4.9177  -19.6736  -56.1024 O.2       20 UNK        -0.5000 
    114 N         -5.0020  -21.7657  -55.2097 N.am      21 UNK        -0.5000 
    115 CA        -6.4287  -21.8664  -54.8835 C.3       21 UNK         0.1400 
    116 CB        -7.3105  -21.7545  -56.1442 C.3       21 UNK        -0.1800 
    117 C         -6.8134  -20.8779  -53.7619 C.2       21 UNK         0.5000 
    118 O         -7.8524  -20.2190  -53.8293 O.2       21 UNK        -0.5000 
    119 N         -5.9323  -20.7848  -52.7617 N.am      22 UNK        -0.5000 
    120 CA        -6.0245  -19.9081  -51.5949 C.3       22 UNK         0.1400 
    121 C         -5.6759  -20.7620  -50.3563 C.2       22 UNK         0.5000 
    122 N         -6.5932  -20.9511  -49.4182 N.am      22 UNK        -0.7600 
    123 O         -4.5584  -21.2502  -50.2387 O.2       22 UNK        -0.5000 
    124 C124       -5.0741  -18.6869  -51.7459 C.3       23 UNK        -0.0398 
    125 S125       -5.5033  -17.2848  -50.6550 S.3       23 UNK        -0.2404 
    126 C126       -4.5556  -17.6403  -49.1379 C.3       23 UNK        -0.0205 
    127 H127        3.5903  -13.6523  -47.6475 H         1 UNK         0.0600 
    128 H128        3.5708  -14.4677  -46.0800 H         1 UNK         0.0600 
    129 H129        4.5050  -12.9833  -46.2910 H         1 UNK         0.0600 
    130 H130        1.7369  -12.4601  -48.0417 H         1 UNK         0.3000 
    131 H131       -0.3292  -12.1245  -46.1776 H         1 UNK         0.0600 
    132 H132        0.0208  -10.6108  -48.8129 H         1 UNK         0.0800 
    133 H133       -1.4654  -10.8135  -47.9299 H         1 UNK         0.0800 
    134 H134       -1.9688  -13.7901  -47.2256 H         1 UNK         0.0800 
    135 H135       -0.2763  -14.2351  -47.2931 H         1 UNK         0.0800 
    136 H136       -3.6109  -15.2913  -48.1604 H         1 UNK         0.1150 
    137 H137       -2.3198  -18.8581  -50.1634 H         1 UNK         0.1150 
    138 H138        0.5308  -15.8390  -49.0929 H         1 UNK         0.1150 
    139 H139        0.2859  -18.1278  -51.4321 H         1 UNK         0.0800 
    140 H140        1.3298  -17.8205  -50.0669 H         1 UNK         0.0800 
    141 H141       -0.0009  -19.1241  -47.7074 H         1 UNK         0.0800 
    142 H142        1.5666  -19.8672  -47.8832 H         1 UNK         0.0800 
    143 H143        0.4617  -22.1324  -47.9780 H         1 UNK         0.0600 
    144 H144        0.8079  -20.5886  -45.6597 H         1 UNK         0.3000 
    145 H145       -0.0014  -23.1399  -43.2548 H         1 UNK         0.0600 
    146 H146        2.2420  -22.4006  -42.5176 H         1 UNK         0.0600 
    147 H147        2.5327  -21.6195  -44.0694 H         1 UNK         0.0600 
    148 H148        2.3772  -23.3692  -43.9775 H         1 UNK         0.0600 
    149 H149        0.6766  -20.3923  -42.9261 H         1 UNK         0.3000 
    150 H150       -2.6832  -19.1129  -42.9478 H         1 UNK         0.0600 
    151 H151       -2.2358  -19.9997  -40.6474 H         1 UNK         0.0600 
    152 H152       -1.9325  -18.2726  -40.7518 H         1 UNK         0.0600 
    153 H153       -0.5817  -19.4047  -40.7372 H         1 UNK         0.0600 
    154 H154       -0.2280  -17.7647  -42.5746 H         1 UNK         0.3000 
    155 H155        0.4222  -17.0334  -46.0499 H         1 UNK         0.0600 
    156 H156       -1.1212  -15.3211  -45.1369 H         1 UNK         0.0600 
    157 H157        0.5475  -14.7901  -44.9616 H         1 UNK         0.0600 
    158 H158       -0.3369  -15.4024  -43.5688 H         1 UNK         0.0600 
    159 H159        1.9780  -16.4645  -43.7506 H         1 UNK         0.3000 
    160 H160        3.8926  -19.4837  -43.6460 H         1 UNK         0.0600 
    161 H161        4.5680  -16.6046  -44.4529 H         1 UNK         0.0600 
    162 H162        5.0186  -18.0646  -45.3174 H         1 UNK         0.0600 
    163 H163        5.6962  -17.7489  -43.7272 H         1 UNK         0.0600 
    164 H164        3.7425  -17.0293  -42.1039 H         1 UNK         0.3000 
    165 H165        1.5765  -18.3358  -39.5847 H         1 UNK         0.0600 
    166 H166        3.5022  -17.7551  -38.1373 H         1 UNK         0.0600 
    167 H167        3.8283  -19.2482  -39.0028 H         1 UNK         0.0600 
    168 H168        4.5866  -17.7499  -39.5285 H         1 UNK         0.0600 
    169 H169        3.0062  -15.8650  -39.8462 H         1 UNK         0.3000 
    170 H170        0.5684  -14.1212  -41.7538 H         1 UNK         0.0600 
    171 H171        1.2198  -13.8692  -38.7711 H         1 UNK         0.0600 
    172 H172        0.5067  -12.6212  -39.7941 H         1 UNK         0.0600 
    173 H173       -0.3918  -14.0883  -39.4428 H         1 UNK         0.0600 
    174 H174        2.8193  -13.0443  -40.5613 H         1 UNK         0.3000 
    175 H175        4.9863  -13.0902  -41.3518 H         1 UNK         0.0600 
    176 H176        5.3774  -14.2338  -44.1783 H         1 UNK         0.0600 
    177 H177        6.6109  -13.4532  -43.1937 H         1 UNK         0.0600 
    178 H178        5.9376  -14.9975  -42.6945 H         1 UNK         0.0600 
    179 H179        3.4421  -12.1595  -43.6608 H         1 UNK         0.3000 
    180 H180        4.5693   -8.8017  -43.1508 H         1 UNK         0.0600 
    181 H181        4.6274   -8.7629  -45.6345 H         1 UNK         0.0600 
    182 H182        4.7110  -10.5218  -45.6848 H         1 UNK         0.0600 
    183 H183        6.0406   -9.5933  -45.0001 H         1 UNK         0.0600 
    184 H184        2.4634  -10.6606  -44.1920 H         1 UNK         0.3000 
    185 H185        0.0927   -9.3889  -42.9160 H         1 UNK         0.0600 
    186 H186        0.0910   -7.3183  -45.1717 H         1 UNK         0.0600 
    187 H187       -1.3541   -7.9984  -44.4244 H         1 UNK         0.0600 
    188 H188       -0.2469   -7.0251  -43.4728 H         1 UNK         0.0600 
    189 H189       -0.1607  -10.9711  -44.4128 H         1 UNK         0.3000 
    190 H190       -1.9512  -20.1590  -46.1758 H         1 UNK         0.3000 
    191 H191       -4.1166  -20.5388  -47.8611 H         1 UNK         0.0600 
    192 H192       -4.0842  -18.8751  -46.0488 H         1 UNK         0.0600 
    193 H193       -4.1044  -20.1519  -44.8318 H         1 UNK         0.0600 
    194 H194       -5.4963  -19.9045  -45.8791 H         1 UNK         0.0600 
    195 H195       -2.7962  -22.8710  -45.6265 H         1 UNK         0.3000 
    196 H196       -5.0921  -24.7191  -45.9058 H         1 UNK         0.0600 
    197 H197       -3.9452  -24.5935  -43.7154 H         1 UNK         0.0600 
    198 H198       -2.4048  -25.0094  -44.4605 H         1 UNK         0.0600 
    199 H199       -3.7177  -26.1811  -44.4344 H         1 UNK         0.0600 
    200 H200       -1.6077  -24.5031  -46.8141 H         1 UNK         0.3000 
    201 H201       -1.5149  -27.0241  -48.0890 H         1 UNK         0.0600 
    202 H202        0.4599  -25.9057  -47.1089 H         1 UNK         0.0600 
    203 H203        0.3637  -24.6168  -48.3072 H         1 UNK         0.0600 
    204 H204        0.7525  -26.2596  -48.8051 H         1 UNK         0.0600 
    205 H205       -2.0445  -23.7583  -49.4819 H         1 UNK         0.3000 
    206 H206       -1.9083  -24.8456  -52.2407 H         1 UNK         0.0600 
    207 H207       -1.9463  -21.9487  -51.2613 H         1 UNK         0.0600 
    208 H208       -0.4738  -22.8788  -51.5318 H         1 UNK         0.0600 
    209 H209       -1.5434  -22.5213  -52.8740 H         1 UNK         0.0600 
    210 H210       -4.2674  -25.0428  -50.2573 H         1 UNK         0.3000 
    211 H211       -6.3813  -23.3864  -51.0315 H         1 UNK         0.0600 
    212 H212       -6.4314  -26.2017  -49.8324 H         1 UNK         0.0600 
    213 H213       -7.7892  -25.0802  -49.8438 H         1 UNK         0.0600 
    214 H214       -6.3390  -24.6856  -48.9361 H         1 UNK         0.0600 
    215 H215       -5.1097  -26.0709  -52.8229 H         1 UNK         0.3000 
    216 H216       -7.0298  -25.6299  -54.9504 H         1 UNK         0.0600 
    217 H217       -7.5352  -28.0815  -55.1960 H         1 UNK         0.0600 
    218 H218       -8.1515  -27.4805  -53.6655 H         1 UNK         0.0600 
    219 H219       -6.6636  -28.4248  -53.7059 H         1 UNK         0.0600 
    220 H220       -6.2407  -26.6006  -56.9152 H         1 UNK         0.3000 
    221 H221       -4.8628  -27.0842  -58.5222 H         1 UNK         0.0600 
    222 H222       -3.0205  -28.6963  -58.1819 H         1 UNK         0.0600 
    223 H223       -3.0880  -28.4618  -56.4425 H         1 UNK         0.0600 
    224 H224       -4.4489  -29.1959  -57.2898 H         1 UNK         0.0600 
    225 H225       -3.0707  -25.6977  -55.8092 H         1 UNK         0.3000 
    226 H226       -1.0234  -24.4504  -57.5313 H         1 UNK         0.0600 
    227 H227       -0.3449  -25.4692  -55.3926 H         1 UNK         0.0600 
    228 H228       -0.0763  -23.7389  -55.3229 H         1 UNK         0.0600 
    229 H229       -1.4662  -24.4550  -54.4995 H         1 UNK         0.0600 
    230 H230       -1.8086  -22.4443  -54.9310 H         1 UNK         0.3000 
    231 H231       -2.4764  -20.2355  -56.6160 H         1 UNK         0.0600 
    232 H232       -2.6103  -20.4848  -53.5595 H         1 UNK         0.0600 
    233 H233       -2.5610  -18.9895  -54.4784 H         1 UNK         0.0600 
    234 H234       -1.1653  -20.0552  -54.4785 H         1 UNK         0.0600 
    235 H235       -4.4301  -22.5145  -54.8371 H         1 UNK         0.3000 
    236 H236       -6.5747  -22.8658  -54.4746 H         1 UNK         0.0600 
    237 H237       -7.2832  -20.7540  -56.5761 H         1 UNK         0.0600 
    238 H238       -6.9918  -22.4606  -56.9109 H         1 UNK         0.0600 
    239 H239       -8.3515  -21.9782  -55.9087 H         1 UNK         0.0600 
    240 H240       -5.1433  -21.4241  -52.7534 H         1 UNK         0.3000 
    241 H241       -7.0502  -19.5480  -51.4940 H         1 UNK         0.0600 
    242 H242       -6.3447  -21.5295  -48.6210 H         1 UNK         0.3800 
    243 H243       -7.5198  -20.5610  -49.4855 H         1 UNK         0.3800 
    244 H244       -5.1427  -18.3055  -52.7658 H         1 UNK         0.0800 
    245 H245       -4.0296  -18.9702  -51.6183 H         1 UNK         0.0800 
    246 H246       -5.0839  -17.1939  -48.2941 H         1 UNK         0.0800 
    247 H247       -4.5497  -18.7070  -48.9423 H         1 UNK         0.0800 
@<TRIPOS>BOND
     1    1    2 1    
     2    1  127 1    
     3    1  128 1    
     4    1  129 1    
     5    2    3 2    
     6    2    4 am   BACKBONE|DICT|INTERRES
     7    4    5 1    
     8    4  130 1    
     9    5    6 1    
    10    5   65 1    
    11    5  131 1    
    12    6    7 1    
    13    6  132 1    
    14    6  133 1    
    15    7    8 1    
    16    8    9 1    
    17    8  134 1    
    18    8  135 1    
    19    9   10 ar   
    20    9   14 ar   
    21   10   11 ar   
    22   10  136 1    
    23   11   12 ar   
    24   11  126 1    
    25   12   13 ar   
    26   12  137 1    
    27   13   14 ar   
    28   13   15 1    
    29   14  138 1    
    30   15   16 1    
    31   15  139 1    
    32   15  140 1    
    33   16   17 1    
    34   17   18 1    
    35   17  141 1    
    36   17  142 1    
    37   18   19 1    
    38   18   67 1    
    39   18  143 1    
    40   19   20 am   BACKBONE|DICT|INTERRES
    41   19  144 1    
    42   20   21 2    
    43   20   22 1    
    44   22   23 1    
    45   22   24 1    
    46   22  145 1    
    47   23  146 1    
    48   23  147 1    
    49   23  148 1    
    50   24   25 am   BACKBONE|DICT|INTERRES
    51   24  149 1    
    52   25   26 2    
    53   25   27 1    
    54   27   28 1    
    55   27   29 1    
    56   27  150 1    
    57   28  151 1    
    58   28  152 1    
    59   28  153 1    
    60   29   30 am   BACKBONE|DICT|INTERRES
    61   29  154 1    
    62   30   31 2    
    63   30   32 1    
    64   32   33 1    
    65   32   34 1    
    66   32  155 1    
    67   33  156 1    
    68   33  157 1    
    69   33  158 1    
    70   34   35 am   BACKBONE|DICT|INTERRES
    71   34  159 1    
    72   35   36 2    
    73   35   37 1    
    74   37   38 1    
    75   37   39 1    
    76   37  160 1    
    77   38  161 1    
    78   38  162 1    
    79   38  163 1    
    80   39   40 am   BACKBONE|DICT|INTERRES
    81   39  164 1    
    82   40   41 2    
    83   40   42 1    
    84   42   43 1    
    85   42   44 1    
    86   42  165 1    
    87   43  166 1    
    88   43  167 1    
    89   43  168 1    
    90   44   45 am   BACKBONE|DICT|INTERRES
    91   44  169 1    
    92   45   46 2    
    93   45   47 1    
    94   47   48 1    
    95   47   49 1    
    96   47  170 1    
    97   48  171 1    
    98   48  172 1    
    99   48  173 1    
   100   49   50 am   BACKBONE|DICT|INTERRES
   101   49  174 1    
   102   50   51 2    
   103   50   52 1    
   104   52   53 1    
   105   52   54 1    
   106   52  175 1    
   107   53  176 1    
   108   53  177 1    
   109   53  178 1    
   110   54   55 am   BACKBONE|DICT|INTERRES
   111   54  179 1    
   112   55   56 2    
   113   55   57 1    
   114   57   58 1    
   115   57   59 1    
   116   57  180 1    
   117   58  181 1    
   118   58  182 1    
   119   58  183 1    
   120   59   60 am   BACKBONE|DICT|INTERRES
   121   59  184 1    
   122   60   61 2    
   123   60   62 1    
   124   62   63 1    
   125   62   64 1    
   126   62  185 1    
   127   63  186 1    
   128   63  187 1    
   129   63  188 1    
   130   64   65 am   BACKBONE|DICT|INTERRES
   131   64  189 1    
   132   65   66 2    
   133   67   68 2    
   134   67   69 am   BACKBONE|DICT|INTERRES
   135   69   70 1    
   136   69  190 1    
   137   70   71 1    
   138   70   72 1    
   139   70  191 1    
   140   71  192 1    
   141   71  193 1    
   142   71  194 1    
   143   72   73 2    
   144   72   74 am   BACKBONE|DICT|INTERRES
   145   74   75 1    
   146   74  195 1    
   147   75   76 1    
   148   75   77 1    
   149   75  196 1    
   150   76  197 1    
   151   76  198 1    
   152   76  199 1    
   153   77   78 2    
   154   77   79 am   BACKBONE|DICT|INTERRES
   155   79   80 1    
   156   79  200 1    
   157   80   81 1    
   158   80   82 1    
   159   80  201 1    
   160   81  202 1    
   161   81  203 1    
   162   81  204 1    
   163   82   83 2    
   164   82   84 am   BACKBONE|DICT|INTERRES
   165   84   85 1    
   166   84  205 1    
   167   85   86 1    
   168   85   87 1    
   169   85  206 1    
   170   86  207 1    
   171   86  208 1    
   172   86  209 1    
   173   87   88 2    
   174   87   89 am   BACKBONE|DICT|INTERRES
   175   89   90 1    
   176   89  210 1    
   177   90   91 1    
   178   90   92 1    
   179   90  211 1    
   180   91  212 1    
   181   91  213 1    
   182   91  214 1    
   183   92   93 2    
   184   92   94 am   BACKBONE|DICT|INTERRES
   185   94   95 1    
   186   94  215 1    
   187   95   96 1    
   188   95   97 1    
   189   95  216 1    
   190   96  217 1    
   191   96  218 1    
   192   96  219 1    
   193   97   98 2    
   194   97   99 am   BACKBONE|DICT|INTERRES
   195   99  100 1    
   196   99  220 1    
   197  100  101 1    
   198  100  102 1    
   199  100  221 1    
   200  101  222 1    
   201  101  223 1    
   202  101  224 1    
   203  102  103 2    
   204  102  104 am   BACKBONE|DICT|INTERRES
   205  104  105 1    
   206  104  225 1    
   207  105  106 1    
   208  105  107 1    
   209  105  226 1    
   210  106  227 1    
   211  106  228 1    
   212  106  229 1    
   213  107  108 2    
   214  107  109 am   BACKBONE|DICT|INTERRES
   215  109  110 1    
   216  109  230 1    
   217  110  111 1    
   218  110  112 1    
   219  110  231 1    
   220  111  232 1    
   221  111  233 1    
   222  111  234 1    
   223  112  113 2    
   224  112  114 am   BACKBONE|DICT|INTERRES
   225  114  115 1    
   226  114  235 1    
   227  115  116 1    
   228  115  117 1    
   229  115  236 1    
   230  116  237 1    
   231  116  238 1    
   232  116  239 1    
   233  117  118 2    
   234  117  119 am   BACKBONE|DICT|INTERRES
   235  119  120 1    
   236  119  240 1    
   237  120  121 1    
   238  120  124 1    
   239  120  241 1    
   240  121  122 am   BACKBONE|DICT|INTERRES
   241  121  123 2    
   242  122  242 1    
   243  122  243 1    
   244  124  125 1    
   245  124  244 1    
   246  124  245 1    
   247  125  126 1    
   248  126  246 1    
   249  126  247 1    
@<TRIPOS>SUBSTRUCTURE
     1 UNK         1 GROUP             0       ****    0 ROOT    
