@<TRIPOS>MOLECULE
3R540
247   249    1
SMALL
USER_CHARGES


@<TRIPOS>ATOM
      1 CA         -3.5121  -14.4543  -45.0485 C.3       0 UNK        -0.1800 
      2 C          -3.2301  -13.7690  -46.3788 C.2       0 UNK         0.5000 
      3 O          -3.5760  -12.6014  -46.5556 O.2       0 UNK        -0.5000 
      4 N          -2.5941  -14.4901  -47.3108 N.am      1 UNK        -0.5000 
      5 CA         -2.1933  -14.0016  -48.6394 C.3       1 UNK         0.1400 
      6 C6         -1.8725  -15.1643  -49.6115 C.3       23 UNK        -0.0398 
      7 S7         -3.3040  -16.2525  -49.9232 S.3       23 UNK        -0.2404 
      8 C8         -2.8862  -17.7487  -48.9770 C.3       23 UNK        -0.0205 
      9 C9         -1.8276  -18.6090  -49.6549 C.ar      23 UNK        -0.0193 
     10 C10        -2.1945  -19.5516  -50.6198 C.ar      23 UNK        -0.1150 
     11 C11        -1.2323  -20.3809  -51.2049 C.ar      23 UNK        -0.0193 
     12 C12         0.1051  -20.2672  -50.8191 C.ar      23 UNK        -0.1150 
     13 C13         0.4827  -19.3341  -49.8514 C.ar      23 UNK        -0.0193 
     14 C14        -0.4862  -18.5078  -49.2760 C.ar      23 UNK        -0.1150 
     15 C15         1.9362  -19.2089  -49.4274 C.3       23 UNK        -0.0205 
     16 S16         2.2295  -19.9150  -47.7763 S.3       23 UNK        -0.2404 
     17 C17         2.2998  -21.7076  -48.0961 C.3       23 UNK        -0.0398 
     18 CA          1.3163  -22.5779  -47.2713 C.3       11 UNK         0.1400 
     19 N           1.2621  -22.2563  -45.8391 N.am      11 UNK        -0.5000 
     20 C           0.8236  -23.1215  -44.9113 C.2       10 UNK         0.5000 
     21 O           0.4680  -24.2724  -45.1700 O.2       10 UNK        -0.5000 
     22 CA          0.7153  -22.6127  -43.4638 C.3       10 UNK         0.1400 
     23 CB          2.0939  -22.5285  -42.7912 C.3       10 UNK        -0.1800 
     24 N           0.0303  -21.3237  -43.3799 N.am      10 UNK        -0.5000 
     25 C          -1.2741  -21.1530  -43.6392 C.2       9 UNK         0.5000 
     26 O          -2.0259  -22.0687  -43.9702 O.2       9 UNK        -0.5000 
     27 CA         -1.8392  -19.7245  -43.5338 C.3       9 UNK         0.1400 
     28 CB         -2.3339  -19.4487  -42.1065 C.3       9 UNK        -0.1800 
     29 N          -0.8839  -18.6909  -43.9290 N.am      9 UNK        -0.5000 
     30 C          -0.3614  -18.5695  -45.1567 C.2       8 UNK         0.5000 
     31 O          -0.6678  -19.2969  -46.0984 O.2       8 UNK        -0.5000 
     32 CA          0.7190  -17.4894  -45.3477 C.3       8 UNK         0.1400 
     33 CB          0.0841  -16.1096  -45.5660 C.3       8 UNK        -0.1800 
     34 N           1.6608  -17.4330  -44.2297 N.am      8 UNK        -0.5000 
     35 C           2.4536  -18.4448  -43.8450 C.2       7 UNK         0.5000 
     36 O           2.4962  -19.5389  -44.4062 O.2       7 UNK        -0.5000 
     37 CA          3.3007  -18.2116  -42.5846 C.3       7 UNK         0.1400 
     38 CB          4.5706  -17.4108  -42.9111 C.3       7 UNK        -0.1800 
     39 N           2.5281  -17.5221  -41.5524 N.am      7 UNK        -0.5000 
     40 C           1.5886  -18.1117  -40.7996 C.2       6 UNK         0.5000 
     41 O           1.3248  -19.3132  -40.8528 O.2       6 UNK        -0.5000 
     42 CA          0.7912  -17.2006  -39.8465 C.3       6 UNK         0.1400 
     43 CB          1.5259  -17.0444  -38.5068 C.3       6 UNK        -0.1800 
     44 N           0.5271  -15.8752  -40.4108 N.am      6 UNK        -0.5000 
     45 C          -0.2772  -15.6487  -41.4586 C.2       5 UNK         0.5000 
     46 O          -0.8991  -16.5326  -42.0441 O.2       5 UNK        -0.5000 
     47 CA         -0.3697  -14.2006  -41.9705 C.3       5 UNK         0.1400 
     48 CB         -1.4768  -13.4335  -41.2340 C.3       5 UNK        -0.1800 
     49 N           0.8826  -13.4469  -41.8836 N.am      5 UNK        -0.5000 
     50 C           2.0394  -13.7903  -42.4642 C.2       4 UNK         0.5000 
     51 O           2.2196  -14.8630  -43.0427 O.2       4 UNK        -0.5000 
     52 CA          3.1525  -12.7247  -42.4361 C.3       4 UNK         0.1400 
     53 CB          4.5126  -13.2799  -42.8953 C.3       4 UNK        -0.1800 
     54 N           2.7784  -11.6103  -43.3046 N.am      4 UNK        -0.5000 
     55 C           1.9071  -10.6425  -42.9885 C.2       3 UNK         0.5000 
     56 O           1.4445  -10.4853  -41.8573 O.2       3 UNK        -0.5000 
     57 CA          1.4278   -9.7390  -44.1415 C.3       3 UNK         0.1400 
     58 CB          2.3033   -8.4807  -44.2403 C.3       3 UNK        -0.1800 
     59 N           1.4027  -10.4141  -45.4450 N.am      3 UNK        -0.5000 
     60 C           0.6382  -11.4722  -45.7514 C.2       2 UNK         0.5000 
     61 O          -0.1417  -12.0131  -44.9622 O.2       2 UNK        -0.5000 
     62 CA          0.7983  -12.0318  -47.1723 C.3       2 UNK         0.1400 
     63 CB          2.1257  -12.7963  -47.3174 C.3       2 UNK        -0.1800 
     64 N          -0.3085  -12.9406  -47.4476 N.am      2 UNK        -0.5000 
     65 C          -1.0035  -13.0128  -48.5884 C.2       1 UNK         0.5000 
     66 O          -0.7387  -12.3402  -49.5859 O.2       1 UNK        -0.5000 
     67 C          -0.0868  -22.6956  -47.9013 C.2       11 UNK         0.5000 
     68 O          -0.2754  -23.5598  -48.7584 O.2       11 UNK        -0.5000 
     69 N          -1.0626  -21.9085  -47.4205 N.am      12 UNK        -0.5000 
     70 CA         -2.4741  -22.0428  -47.7881 C.3       12 UNK         0.1400 
     71 CB         -3.3038  -20.9178  -47.1549 C.3       12 UNK        -0.1800 
     72 C          -3.0564  -23.4081  -47.3870 C.2       12 UNK         0.5000 
     73 O          -3.7075  -24.0494  -48.2103 O.2       12 UNK        -0.5000 
     74 N          -2.7943  -23.8414  -46.1457 N.am      13 UNK        -0.5000 
     75 CA         -3.2212  -25.1358  -45.6141 C.3       13 UNK         0.1400 
     76 CB         -2.9327  -25.2014  -44.1070 C.3       13 UNK        -0.1800 
     77 C          -2.5724  -26.3228  -46.3461 C.2       13 UNK         0.5000 
     78 O          -3.2642  -27.2966  -46.6439 O.2       13 UNK        -0.5000 
     79 N          -1.2721  -26.2072  -46.6526 N.am      14 UNK        -0.5000 
     80 CA         -0.5057  -27.2037  -47.4032 C.3       14 UNK         0.1400 
     81 CB          0.9845  -26.8327  -47.3732 C.3       14 UNK        -0.1800 
     82 C          -0.9947  -27.3708  -48.8546 C.2       14 UNK         0.5000 
     83 O          -1.0796  -28.4988  -49.3416 O.2       14 UNK        -0.5000 
     84 N          -1.3215  -26.2500  -49.5109 N.am      15 UNK        -0.5000 
     85 CA         -1.8394  -26.2110  -50.8794 C.3       15 UNK         0.1400 
     86 CB         -1.5908  -24.8088  -51.4483 C.3       15 UNK        -0.1800 
     87 C          -3.3371  -26.5588  -50.9866 C.2       15 UNK         0.5000 
     88 O          -3.8015  -26.8496  -52.0889 O.2       15 UNK        -0.5000 
     89 N          -4.0619  -26.4937  -49.8597 N.am      16 UNK        -0.5000 
     90 CA         -5.5208  -26.5738  -49.7308 C.3       16 UNK         0.1400 
     91 CB         -6.0552  -27.9547  -50.1650 C.3       16 UNK        -0.1800 
     92 C          -6.2076  -25.3902  -50.4445 C.2       16 UNK         0.5000 
     93 O          -7.0883  -25.5842  -51.2851 O.2       16 UNK        -0.5000 
     94 N          -5.7444  -24.1780  -50.1081 N.am      17 UNK        -0.5000 
     95 CA         -6.1109  -22.8515  -50.6194 C.3       17 UNK         0.1400 
     96 CB         -7.6075  -22.5489  -50.4204 C.3       17 UNK        -0.1800 
     97 C          -5.6706  -22.5933  -52.0717 C.2       17 UNK         0.5000 
     98 O          -5.0784  -21.5471  -52.3336 O.2       17 UNK        -0.5000 
     99 N          -5.9421  -23.5499  -52.9699 N.am      18 UNK        -0.5000 
    100 CA        -5.5672  -23.5919  -54.3855 C.3       18 UNK         0.1400 
    101 CB        -4.0838  -23.9991  -54.5183 C.3       18 UNK        -0.1800 
    102 C         -5.9440  -22.3016  -55.1488 C.2       18 UNK         0.5000 
    103 O         -7.1316  -21.9905  -55.2545 O.2       18 UNK        -0.5000 
    104 N         -4.9403  -21.5816  -55.6666 N.am      19 UNK        -0.5000 
    105 CA        -5.0908  -20.3287  -56.4092 C.3       19 UNK         0.1400 
    106 CB        -3.8395  -20.1221  -57.2791 C.3       19 UNK        -0.1800 
    107 C         -5.3342  -19.0965  -55.5127 C.2       19 UNK         0.5000 
    108 O         -5.6758  -18.0391  -56.0438 O.2       19 UNK        -0.5000 
    109 N         -5.1488  -19.2440  -54.1917 N.am      20 UNK        -0.5000 
    110 CA        -5.2759  -18.2197  -53.1527 C.3       20 UNK         0.1400 
    111 CB        -6.7516  -17.8074  -52.9750 C.3       20 UNK        -0.1800 
    112 C         -4.3253  -17.0230  -53.3696 C.2       20 UNK         0.5000 
    113 O         -4.7667  -15.8716  -53.3690 O.2       20 UNK        -0.5000 
    114 N         -3.0316  -17.3209  -53.5448 N.am      21 UNK        -0.5000 
    115 CA        -1.9571  -16.3321  -53.6144 C.3       21 UNK         0.1400 
    116 CB        -1.8508  -15.6709  -55.0036 C.3       21 UNK        -0.1800 
    117 C         -0.6277  -16.9063  -53.0893 C.2       21 UNK         0.5000 
    118 O         -0.0574  -16.3100  -52.1790 O.2       21 UNK        -0.5000 
    119 N         -0.1208  -18.0511  -53.5685 N.am      22 UNK        -0.5000 
    120 CA        -0.4242  -18.7585  -54.8259 C.3       22 UNK         0.1400 
    121 C          0.5921  -18.4331  -55.9618 C.2       22 UNK         0.5000 
    122 N          1.5785  -17.5689  -55.7525 N.am      22 UNK        -0.7600 
    123 O          0.4702  -18.9549  -57.0662 O.2       22 UNK        -0.5000 
    124 C124       -0.5453  -20.2849  -54.5907 C.3       23 UNK        -0.0398 
    125 S125       -2.1357  -20.6962  -53.8090 S.3       23 UNK        -0.2404 
    126 C126       -1.6458  -21.4281  -52.2224 C.3       23 UNK        -0.0205 
    127 H127       -3.1835  -15.4940  -45.0474 H         1 UNK         0.0600 
    128 H128       -2.9936  -13.9338  -44.2431 H         1 UNK         0.0600 
    129 H129       -4.5808  -14.4361  -44.8353 H         1 UNK         0.0600 
    130 H130       -2.3727  -15.4542  -47.1182 H         1 UNK         0.3000 
    131 H131       -3.0368  -13.4458  -49.0549 H         1 UNK         0.0600 
    132 H132       -1.5694  -14.7660  -50.5809 H         1 UNK         0.0800 
    133 H133       -1.0243  -15.7468  -49.2534 H         1 UNK         0.0800 
    134 H134       -2.5683  -17.4772  -47.9697 H         1 UNK         0.0800 
    135 H135       -3.7988  -18.3337  -48.8557 H         1 UNK         0.0800 
    136 H136       -3.2314  -19.6552  -50.9056 H         1 UNK         0.1150 
    137 H137        0.8493  -20.9133  -51.2626 H         1 UNK         0.1150 
    138 H138       -0.1929  -17.8024  -48.5127 H         1 UNK         0.1150 
    139 H139        2.6014  -19.6770  -50.1544 H         1 UNK         0.0800 
    140 H140        2.2067  -18.1523  -49.4066 H         1 UNK         0.0800 
    141 H141        3.3182  -22.0194  -47.8614 H         1 UNK         0.0800 
    142 H142        2.1828  -21.9019  -49.1636 H         1 UNK         0.0800 
    143 H143        1.7279  -23.5877  -47.3328 H         1 UNK         0.0600 
    144 H144        1.5238  -21.3148  -45.5692 H         1 UNK         0.3000 
    145 H145        0.1213  -23.3383  -42.9036 H         1 UNK         0.0600 
    146 H146        2.0118  -22.1680  -41.7656 H         1 UNK         0.0600 
    147 H147        2.5657  -23.5111  -42.7547 H         1 UNK         0.0600 
    148 H148        2.7718  -21.8644  -43.3260 H         1 UNK         0.0600 
    149 H149        0.5926  -20.5185  -43.1403 H         1 UNK         0.3000 
    150 H150       -2.6957  -19.6575  -44.2069 H         1 UNK         0.0600 
    151 H151       -3.0432  -20.2115  -41.7828 H         1 UNK         0.0600 
    152 H152       -2.8429  -18.4868  -42.0454 H         1 UNK         0.0600 
    153 H153       -1.5105  -19.4386  -41.3913 H         1 UNK         0.0600 
    154 H154       -0.6373  -18.0069  -43.2187 H         1 UNK         0.3000 
    155 H155        1.2917  -17.7332  -46.2418 H         1 UNK         0.0600 
    156 H156       -0.4840  -16.0989  -46.4950 H         1 UNK         0.0600 
    157 H157       -0.5946  -15.8435  -44.7564 H         1 UNK         0.0600 
    158 H158        0.8422  -15.3304  -45.6379 H         1 UNK         0.0600 
    159 H159        1.7277  -16.5504  -43.7294 H         1 UNK         0.3000 
    160 H160        3.6077  -19.1865  -42.1992 H         1 UNK         0.0600 
    161 H161        4.3396  -16.4335  -43.3348 H         1 UNK         0.0600 
    162 H162        5.1864  -17.9425  -43.6375 H         1 UNK         0.0600 
    163 H163        5.1793  -17.2552  -42.0203 H         1 UNK         0.0600 
    164 H164        2.6309  -16.5179  -41.5066 H         1 UNK         0.3000 
    165 H165       -0.1692  -17.6841  -39.6542 H         1 UNK         0.0600 
    166 H166        0.9332  -16.4670  -37.7970 H         1 UNK         0.0600 
    167 H167        2.4867  -16.5430  -38.6294 H         1 UNK         0.0600 
    168 H168        1.7186  -18.0170  -38.0521 H         1 UNK         0.0600 
    169 H169        1.0058  -15.0914  -39.9920 H         1 UNK         0.3000 
    170 H170       -0.6410  -14.2447  -43.0265 H         1 UNK         0.0600 
    171 H171       -2.4298  -13.9598  -41.3035 H         1 UNK         0.0600 
    172 H172       -1.2449  -13.3087  -40.1756 H         1 UNK         0.0600 
    173 H173       -1.6221  -12.4431  -41.6662 H         1 UNK         0.0600 
    174 H174        0.8217  -12.5179  -41.4838 H         1 UNK         0.3000 
    175 H175        3.2599  -12.3709  -41.4087 H         1 UNK         0.0600 
    176 H176        4.4763  -13.6450  -43.9226 H         1 UNK         0.0600 
    177 H177        5.2883  -12.5162  -42.8390 H         1 UNK         0.0600 
    178 H178        4.8282  -14.1099  -42.2620 H         1 UNK         0.0600 
    179 H179        3.0786  -11.6755  -44.2657 H         1 UNK         0.3000 
    180 H180        0.4070   -9.4284  -43.9091 H         1 UNK         0.0600 
    181 H181        3.3340   -8.7262  -44.4993 H         1 UNK         0.0600 
    182 H182        2.3225   -7.9429  -43.2914 H         1 UNK         0.0600 
    183 H183        1.9215   -7.7919  -44.9941 H         1 UNK         0.0600 
    184 H184        2.0144  -10.0344  -46.1533 H         1 UNK         0.3000 
    185 H185        0.7811  -11.1917  -47.8698 H         1 UNK         0.0600 
    186 H186        2.9800  -12.1336  -47.1762 H         1 UNK         0.0600 
    187 H187        2.2110  -13.6011  -46.5866 H         1 UNK         0.0600 
    188 H188        2.2197  -13.2359  -48.3105 H         1 UNK         0.0600 
    189 H189       -0.6503  -13.4396  -46.6374 H         1 UNK         0.3000 
    190 H190       -0.8267  -21.1623  -46.7729 H         1 UNK         0.3000 
    191 H191       -2.5412  -21.9498  -48.8738 H         1 UNK         0.0600 
    192 H192       -3.3793  -21.0265  -46.0737 H         1 UNK         0.0600 
    193 H193       -4.3181  -20.9108  -47.5554 H         1 UNK         0.0600 
    194 H194       -2.8659  -19.9440  -47.3544 H         1 UNK         0.0600 
    195 H195       -2.2942  -23.2323  -45.5043 H         1 UNK         0.3000 
    196 H196       -4.3015  -25.2122  -45.7545 H         1 UNK         0.0600 
    197 H197       -3.2399  -26.1615  -43.6904 H         1 UNK         0.0600 
    198 H198       -3.4769  -24.4253  -43.5688 H         1 UNK         0.0600 
    199 H199       -1.8710  -25.0738  -43.8935 H         1 UNK         0.0600 
    200 H200       -0.7646  -25.3916  -46.3236 H         1 UNK         0.3000 
    201 H201       -0.6260  -28.1647  -46.8989 H         1 UNK         0.0600 
    202 H202        1.3537  -26.7611  -46.3499 H         1 UNK         0.0600 
    203 H203        1.1701  -25.8775  -47.8644 H         1 UNK         0.0600 
    204 H204        1.5846  -27.5865  -47.8843 H         1 UNK         0.0600 
    205 H205       -1.1680  -25.3523  -49.0611 H         1 UNK         0.3000 
    206 H206       -1.2871  -26.9302  -51.4877 H         1 UNK         0.0600 
    207 H207       -0.5296  -24.5599  -51.4374 H         1 UNK         0.0600 
    208 H208       -1.9330  -24.7326  -52.4806 H         1 UNK         0.0600 
    209 H209       -2.1188  -24.0540  -50.8649 H         1 UNK         0.0600 
    210 H210       -3.5743  -26.2055  -49.0213 H         1 UNK         0.3000 
    211 H211       -5.7375  -26.4600  -48.6676 H         1 UNK         0.0600 
    212 H212       -5.9322  -28.1264  -51.2345 H         1 UNK         0.0600 
    213 H213       -7.1191  -28.0441  -49.9434 H         1 UNK         0.0600 
    214 H214       -5.5439  -28.7581  -49.6349 H         1 UNK         0.0600 
    215 H215       -4.9863  -24.1609  -49.4257 H         1 UNK         0.3000 
    216 H216       -5.5551  -22.1453  -50.0001 H         1 UNK         0.0600 
    217 H217       -7.8345  -21.5208  -50.7053 H         1 UNK         0.0600 
    218 H218       -7.8981  -22.6693  -49.3768 H         1 UNK         0.0600 
    219 H219       -8.2418  -23.1989  -51.0234 H         1 UNK         0.0600 
    220 H220       -6.4504  -24.3587  -52.6235 H         1 UNK         0.3000 
    221 H221       -6.1631  -24.3871  -54.8354 H         1 UNK         0.0600 
    222 H222       -3.4206  -23.3053  -54.0041 H         1 UNK         0.0600 
    223 H223       -3.9177  -24.9860  -54.0875 H         1 UNK         0.0600 
    224 H224       -3.7744  -24.0556  -55.5626 H         1 UNK         0.0600 
    225 H225       -3.9935  -21.8882  -55.4943 H         1 UNK         0.3000 
    226 H226       -5.9527  -20.4206  -57.0734 H         1 UNK         0.0600 
    227 H227       -3.6880  -20.9608  -57.9588 H         1 UNK         0.0600 
    228 H228       -3.9314  -19.2237  -57.8908 H         1 UNK         0.0600 
    229 H229       -2.9391  -20.0135  -56.6744 H         1 UNK         0.0600 
    230 H230       -4.8890  -20.1631  -53.8462 H         1 UNK         0.3000 
    231 H231       -4.9607  -18.6913  -52.2215 H         1 UNK         0.0600 
    232 H232       -6.8663  -17.1271  -52.1303 H         1 UNK         0.0600 
    233 H233       -7.3803  -18.6762  -52.7794 H         1 UNK         0.0600 
    234 H234       -7.1424  -17.3019  -53.8584 H         1 UNK         0.0600 
    235 H235       -2.7388  -18.2890  -53.4978 H         1 UNK         0.3000 
    236 H236       -2.2099  -15.5327  -52.9142 H         1 UNK         0.0600 
    237 H237       -1.8436  -16.3893  -55.8209 H         1 UNK         0.0600 
    238 H238       -2.6933  -15.0009  -55.1749 H         1 UNK         0.0600 
    239 H239       -0.9435  -15.0709  -55.0835 H         1 UNK         0.0600 
    240 H240        0.6956  -18.4073  -53.0959 H         1 UNK         0.3000 
    241 H241       -1.3792  -18.4302  -55.2273 H         1 UNK         0.0600 
    242 H242        2.2217  -17.3630  -56.5011 H         1 UNK         0.3800 
    243 H243        1.6903  -17.1150  -54.8598 H         1 UNK         0.3800 
    244 H244       -0.5148  -20.8381  -55.5309 H         1 UNK         0.0800 
    245 H245        0.2879  -20.6578  -53.9933 H         1 UNK         0.0800 
    246 H246       -0.8524  -22.1586  -52.3841 H         1 UNK         0.0800 
    247 H247       -2.4962  -21.9801  -51.8237 H         1 UNK         0.0800 
@<TRIPOS>BOND
     1    1    2 1    
     2    1  127 1    
     3    1  128 1    
     4    1  129 1    
     5    2    3 2    
     6    2    4 am   BACKBONE|DICT|INTERRES
     7    4    5 1    
     8    4  130 1    
     9    5    6 1    
    10    5   65 1    
    11    5  131 1    
    12    6    7 1    
    13    6  132 1    
    14    6  133 1    
    15    7    8 1    
    16    8    9 1    
    17    8  134 1    
    18    8  135 1    
    19    9   10 ar   
    20    9   14 ar   
    21   10   11 ar   
    22   10  136 1    
    23   11   12 ar   
    24   11  126 1    
    25   12   13 ar   
    26   12  137 1    
    27   13   14 ar   
    28   13   15 1    
    29   14  138 1    
    30   15   16 1    
    31   15  139 1    
    32   15  140 1    
    33   16   17 1    
    34   17   18 1    
    35   17  141 1    
    36   17  142 1    
    37   18   19 1    
    38   18   67 1    
    39   18  143 1    
    40   19   20 am   BACKBONE|DICT|INTERRES
    41   19  144 1    
    42   20   21 2    
    43   20   22 1    
    44   22   23 1    
    45   22   24 1    
    46   22  145 1    
    47   23  146 1    
    48   23  147 1    
    49   23  148 1    
    50   24   25 am   BACKBONE|DICT|INTERRES
    51   24  149 1    
    52   25   26 2    
    53   25   27 1    
    54   27   28 1    
    55   27   29 1    
    56   27  150 1    
    57   28  151 1    
    58   28  152 1    
    59   28  153 1    
    60   29   30 am   BACKBONE|DICT|INTERRES
    61   29  154 1    
    62   30   31 2    
    63   30   32 1    
    64   32   33 1    
    65   32   34 1    
    66   32  155 1    
    67   33  156 1    
    68   33  157 1    
    69   33  158 1    
    70   34   35 am   BACKBONE|DICT|INTERRES
    71   34  159 1    
    72   35   36 2    
    73   35   37 1    
    74   37   38 1    
    75   37   39 1    
    76   37  160 1    
    77   38  161 1    
    78   38  162 1    
    79   38  163 1    
    80   39   40 am   BACKBONE|DICT|INTERRES
    81   39  164 1    
    82   40   41 2    
    83   40   42 1    
    84   42   43 1    
    85   42   44 1    
    86   42  165 1    
    87   43  166 1    
    88   43  167 1    
    89   43  168 1    
    90   44   45 am   BACKBONE|DICT|INTERRES
    91   44  169 1    
    92   45   46 2    
    93   45   47 1    
    94   47   48 1    
    95   47   49 1    
    96   47  170 1    
    97   48  171 1    
    98   48  172 1    
    99   48  173 1    
   100   49   50 am   BACKBONE|DICT|INTERRES
   101   49  174 1    
   102   50   51 2    
   103   50   52 1    
   104   52   53 1    
   105   52   54 1    
   106   52  175 1    
   107   53  176 1    
   108   53  177 1    
   109   53  178 1    
   110   54   55 am   BACKBONE|DICT|INTERRES
   111   54  179 1    
   112   55   56 2    
   113   55   57 1    
   114   57   58 1    
   115   57   59 1    
   116   57  180 1    
   117   58  181 1    
   118   58  182 1    
   119   58  183 1    
   120   59   60 am   BACKBONE|DICT|INTERRES
   121   59  184 1    
   122   60   61 2    
   123   60   62 1    
   124   62   63 1    
   125   62   64 1    
   126   62  185 1    
   127   63  186 1    
   128   63  187 1    
   129   63  188 1    
   130   64   65 am   BACKBONE|DICT|INTERRES
   131   64  189 1    
   132   65   66 2    
   133   67   68 2    
   134   67   69 am   BACKBONE|DICT|INTERRES
   135   69   70 1    
   136   69  190 1    
   137   70   71 1    
   138   70   72 1    
   139   70  191 1    
   140   71  192 1    
   141   71  193 1    
   142   71  194 1    
   143   72   73 2    
   144   72   74 am   BACKBONE|DICT|INTERRES
   145   74   75 1    
   146   74  195 1    
   147   75   76 1    
   148   75   77 1    
   149   75  196 1    
   150   76  197 1    
   151   76  198 1    
   152   76  199 1    
   153   77   78 2    
   154   77   79 am   BACKBONE|DICT|INTERRES
   155   79   80 1    
   156   79  200 1    
   157   80   81 1    
   158   80   82 1    
   159   80  201 1    
   160   81  202 1    
   161   81  203 1    
   162   81  204 1    
   163   82   83 2    
   164   82   84 am   BACKBONE|DICT|INTERRES
   165   84   85 1    
   166   84  205 1    
   167   85   86 1    
   168   85   87 1    
   169   85  206 1    
   170   86  207 1    
   171   86  208 1    
   172   86  209 1    
   173   87   88 2    
   174   87   89 am   BACKBONE|DICT|INTERRES
   175   89   90 1    
   176   89  210 1    
   177   90   91 1    
   178   90   92 1    
   179   90  211 1    
   180   91  212 1    
   181   91  213 1    
   182   91  214 1    
   183   92   93 2    
   184   92   94 am   BACKBONE|DICT|INTERRES
   185   94   95 1    
   186   94  215 1    
   187   95   96 1    
   188   95   97 1    
   189   95  216 1    
   190   96  217 1    
   191   96  218 1    
   192   96  219 1    
   193   97   98 2    
   194   97   99 am   BACKBONE|DICT|INTERRES
   195   99  100 1    
   196   99  220 1    
   197  100  101 1    
   198  100  102 1    
   199  100  221 1    
   200  101  222 1    
   201  101  223 1    
   202  101  224 1    
   203  102  103 2    
   204  102  104 am   BACKBONE|DICT|INTERRES
   205  104  105 1    
   206  104  225 1    
   207  105  106 1    
   208  105  107 1    
   209  105  226 1    
   210  106  227 1    
   211  106  228 1    
   212  106  229 1    
   213  107  108 2    
   214  107  109 am   BACKBONE|DICT|INTERRES
   215  109  110 1    
   216  109  230 1    
   217  110  111 1    
   218  110  112 1    
   219  110  231 1    
   220  111  232 1    
   221  111  233 1    
   222  111  234 1    
   223  112  113 2    
   224  112  114 am   BACKBONE|DICT|INTERRES
   225  114  115 1    
   226  114  235 1    
   227  115  116 1    
   228  115  117 1    
   229  115  236 1    
   230  116  237 1    
   231  116  238 1    
   232  116  239 1    
   233  117  118 2    
   234  117  119 am   BACKBONE|DICT|INTERRES
   235  119  120 1    
   236  119  240 1    
   237  120  121 1    
   238  120  124 1    
   239  120  241 1    
   240  121  122 am   BACKBONE|DICT|INTERRES
   241  121  123 2    
   242  122  242 1    
   243  122  243 1    
   244  124  125 1    
   245  124  244 1    
   246  124  245 1    
   247  125  126 1    
   248  126  246 1    
   249  126  247 1    
@<TRIPOS>SUBSTRUCTURE
     1 UNK         1 GROUP             0       ****    0 ROOT    
