@<TRIPOS>MOLECULE
3R540
247   249    1
SMALL
USER_CHARGES


@<TRIPOS>ATOM
      1 CA         -5.1568  -14.7957  -48.6338 C.3       0 UNK        -0.1800 
      2 C          -3.9253  -14.0579  -48.1318 C.2       0 UNK         0.5000 
      3 O          -4.0436  -12.9831  -47.5436 O.2       0 UNK        -0.5000 
      4 N          -2.7412  -14.6418  -48.3497 N.am      1 UNK        -0.5000 
      5 CA         -1.4390  -14.0777  -47.9630 C.3       1 UNK         0.1400 
      6 C6         -0.2744  -14.6500  -48.8098 C.3       23 UNK        -0.0398 
      7 S7         -0.5212  -14.4651  -50.6095 S.3       23 UNK        -0.2404 
      8 C8         -0.5993  -16.2023  -51.1542 C.3       23 UNK        -0.0205 
      9 C9         -1.8790  -16.8876  -50.6992 C.ar      23 UNK        -0.0193 
     10 C10        -3.0583  -16.7224  -51.4287 C.ar      23 UNK        -0.1150 
     11 C11        -4.2343  -17.3623  -51.0307 C.ar      23 UNK        -0.0193 
     12 C12        -4.2302  -18.1447  -49.8726 C.ar      23 UNK        -0.1150 
     13 C13        -3.0639  -18.3077  -49.1190 C.ar      23 UNK        -0.0193 
     14 C14        -1.8835  -17.6951  -49.5583 C.ar      23 UNK        -0.1150 
     15 C15        -3.1205  -19.1640  -47.8548 C.3       23 UNK        -0.0205 
     16 S16        -1.8675  -18.7501  -46.5932 S.3       23 UNK        -0.2404 
     17 C17        -2.4801  -19.7104  -45.1680 C.3       23 UNK        -0.0398 
     18 CA         -2.1238  -21.2143  -45.2311 C.3       11 UNK         0.1400 
     19 N          -0.6779  -21.4553  -45.3455 N.am      11 UNK        -0.5000 
     20 C          -0.1045  -22.6091  -45.7173 C.2       10 UNK         0.5000 
     21 O          -0.7433  -23.6209  -46.0052 O.2       10 UNK        -0.5000 
     22 CA          1.4315  -22.6586  -45.6975 C.3       10 UNK         0.1400 
     23 CB          2.0178  -22.0321  -46.9718 C.3       10 UNK        -0.1800 
     24 N           1.9594  -21.9664  -44.5214 N.am      10 UNK        -0.5000 
     25 C           2.1382  -22.5340  -43.3204 C.2       9 UNK         0.5000 
     26 O           1.9336  -23.7267  -43.0958 O.2       9 UNK        -0.5000 
     27 CA          2.6125  -21.6227  -42.1691 C.3       9 UNK         0.1400 
     28 CB          4.1462  -21.6150  -42.0860 C.3       9 UNK        -0.1800 
     29 N           2.1393  -20.2437  -42.2852 N.am      9 UNK        -0.5000 
     30 C           0.8600  -19.8587  -42.1788 C.2       8 UNK         0.5000 
     31 O          -0.0636  -20.6217  -41.8987 O.2       8 UNK        -0.5000 
     32 CA          0.5556  -18.3782  -42.4832 C.3       8 UNK         0.1400 
     33 CB          0.6178  -17.5499  -41.1924 C.3       8 UNK        -0.1800 
     34 N           1.4396  -17.7800  -43.4902 N.am      8 UNK        -0.5000 
     35 C           1.6438  -18.2546  -44.7282 C.2       7 UNK         0.5000 
     36 O           1.1136  -19.2749  -45.1601 O.2       7 UNK        -0.5000 
     37 CA          2.6396  -17.5008  -45.6196 C.3       7 UNK         0.1400 
     38 CB          1.9350  -16.3584  -46.3550 C.3       7 UNK        -0.1800 
     39 N           3.7660  -16.9758  -44.8520 N.am      7 UNK        -0.5000 
     40 C           4.8102  -17.7134  -44.4501 C.2       6 UNK         0.5000 
     41 O           4.9547  -18.9042  -44.7275 O.2       6 UNK        -0.5000 
     42 CA          5.8585  -17.0049  -43.5718 C.3       6 UNK         0.1400 
     43 CB          6.9129  -16.3080  -44.4448 C.3       6 UNK        -0.1800 
     44 N           5.2602  -16.0250  -42.6640 N.am      6 UNK        -0.5000 
     45 C           4.4814  -16.3395  -41.6196 C.2       5 UNK         0.5000 
     46 O           4.2303  -17.4958  -41.2786 O.2       5 UNK        -0.5000 
     47 CA          3.8515  -15.1634  -40.8475 C.3       5 UNK         0.1400 
     48 CB          4.7633  -14.7314  -39.6895 C.3       5 UNK        -0.1800 
     49 N           3.5455  -13.9958  -41.6830 N.am      5 UNK        -0.5000 
     50 C           2.6696  -13.9940  -42.6961 C.2       4 UNK         0.5000 
     51 O           2.0798  -15.0028  -43.0880 O.2       4 UNK        -0.5000 
     52 CA          2.4425  -12.6578  -43.4200 C.3       4 UNK         0.1400 
     53 CB          3.0951  -12.6798  -44.8108 C.3       4 UNK        -0.1800 
     54 N           1.0095  -12.4202  -43.5651 N.am      4 UNK        -0.5000 
     55 C           0.2342  -11.8713  -42.6184 C.2       3 UNK         0.5000 
     56 O           0.6744  -11.3777  -41.5791 O.2       3 UNK        -0.5000 
     57 CA         -1.2915  -11.8911  -42.8559 C.3       3 UNK         0.1400 
     58 CB         -1.7474  -10.5980  -43.5482 C.3       3 UNK        -0.1800 
     59 N          -1.7258  -13.0375  -43.6544 N.am      3 UNK        -0.5000 
     60 C          -1.6228  -14.3167  -43.2717 C.2       2 UNK         0.5000 
     61 O          -1.3361  -14.6510  -42.1224 O.2       2 UNK        -0.5000 
     62 CA         -1.8748  -15.4135  -44.3301 C.3       2 UNK         0.1400 
     63 CB         -3.1441  -16.2016  -43.9669 C.3       2 UNK        -0.1800 
     64 N          -1.9937  -14.9772  -45.7285 N.am      2 UNK        -0.5000 
     65 C          -1.1326  -14.2486  -46.4565 C.2       1 UNK         0.5000 
     66 O          -0.1259  -13.7166  -45.9890 O.2       1 UNK        -0.5000 
     67 C          -2.7907  -21.9907  -44.0695 C.2       11 UNK         0.5000 
     68 O          -4.0142  -21.9579  -43.9382 O.2       11 UNK        -0.5000 
     69 N          -1.9991  -22.7272  -43.2764 N.am      12 UNK        -0.5000 
     70 CA         -2.4626  -23.7891  -42.3831 C.3       12 UNK         0.1400 
     71 CB         -1.2722  -24.3104  -41.5655 C.3       12 UNK        -0.1800 
     72 C          -3.1435  -24.9422  -43.1533 C.2       12 UNK         0.5000 
     73 O          -4.0507  -25.5765  -42.6150 O.2       12 UNK        -0.5000 
     74 N          -2.7432  -25.1485  -44.4175 N.am      13 UNK        -0.5000 
     75 CA         -3.3917  -26.0291  -45.3868 C.3       13 UNK         0.1400 
     76 CB         -2.3078  -26.7301  -46.2259 C.3       13 UNK        -0.1800 
     77 C          -4.3906  -25.2310  -46.2528 C.2       13 UNK         0.5000 
     78 O          -4.3688  -25.3374  -47.4801 O.2       13 UNK        -0.5000 
     79 N          -5.2427  -24.4314  -45.5943 N.am      14 UNK        -0.5000 
     80 CA         -6.3096  -23.5950  -46.1524 C.3       14 UNK         0.1400 
     81 CB         -7.4756  -24.4801  -46.6467 C.3       14 UNK        -0.1800 
     82 C          -5.7930  -22.5989  -47.2120 C.2       14 UNK         0.5000 
     83 O          -5.1800  -21.5952  -46.8526 O.2       14 UNK        -0.5000 
     84 N          -6.0387  -22.8912  -48.4950 N.am      15 UNK        -0.5000 
     85 CA         -5.6175  -22.0816  -49.6395 C.3       15 UNK         0.1400 
     86 CB         -6.5795  -22.3463  -50.8086 C.3       15 UNK        -0.1800 
     87 C          -4.1491  -22.3133  -50.0564 C.2       15 UNK         0.5000 
     88 O          -3.7261  -21.7603  -51.0711 O.2       15 UNK        -0.5000 
     89 N          -3.3998  -23.1283  -49.2975 N.am      16 UNK        -0.5000 
     90 CA         -1.9941  -23.4830  -49.5037 C.3       16 UNK         0.1400 
     91 CB         -1.0818  -22.2420  -49.3514 C.3       16 UNK        -0.1800 
     92 C          -1.8131  -24.2401  -50.8340 C.2       16 UNK         0.5000 
     93 O          -2.2503  -25.3870  -50.9356 O.2       16 UNK        -0.5000 
     94 N          -1.2059  -23.5875  -51.8339 N.am      17 UNK        -0.5000 
     95 CA         -1.0269  -24.1129  -53.1900 C.3       17 UNK         0.1400 
     96 CB          0.2371  -23.4906  -53.8058 C.3       17 UNK        -0.1800 
     97 C          -2.2634  -23.9030  -54.0936 C.2       17 UNK         0.5000 
     98 O          -2.1999  -24.2336  -55.2789 O.2       17 UNK        -0.5000 
     99 N          -3.3575  -23.3602  -53.5366 N.am      18 UNK        -0.5000 
    100 CA        -4.6430  -23.0877  -54.1810 C.3       18 UNK         0.1400 
    101 CB        -5.3390  -24.3960  -54.6183 C.3       18 UNK        -0.1800 
    102 C         -4.4832  -22.0383  -55.2924 C.2       18 UNK         0.5000 
    103 O         -4.0248  -20.9356  -54.9983 O.2       18 UNK        -0.5000 
    104 N         -4.8229  -22.3800  -56.5423 N.am      19 UNK        -0.5000 
    105 CA        -4.7239  -21.4961  -57.7085 C.3       19 UNK         0.1400 
    106 CB        -5.2533  -22.2345  -58.9467 C.3       19 UNK        -0.1800 
    107 C         -3.3039  -20.9530  -57.9689 C.2       19 UNK         0.5000 
    108 O         -3.1660  -19.8259  -58.4440 O.2       19 UNK        -0.5000 
    109 N         -2.2763  -21.7364  -57.6130 N.am      20 UNK        -0.5000 
    110 CA        -0.8714  -21.3376  -57.7037 C.3       20 UNK         0.1400 
    111 CB         0.0109  -22.5930  -57.6506 C.3       20 UNK        -0.1800 
    112 C         -0.4503  -20.3177  -56.6247 C.2       20 UNK         0.5000 
    113 O          0.5487  -19.6248  -56.8217 O.2       20 UNK        -0.5000 
    114 N         -1.2053  -20.2317  -55.5201 N.am      21 UNK        -0.5000 
    115 CA        -1.0154  -19.2364  -54.4666 C.3       21 UNK         0.1400 
    116 CB        -1.3094  -19.8649  -53.0924 C.3       21 UNK        -0.1800 
    117 C         -1.9150  -18.0160  -54.7147 C.2       21 UNK         0.5000 
    118 O         -1.4237  -16.8869  -54.7168 O.2       21 UNK        -0.5000 
    119 N         -3.2141  -18.2668  -54.9128 N.am      22 UNK        -0.5000 
    120 CA        -4.2548  -17.2372  -55.0387 C.3       22 UNK         0.1400 
    121 C         -4.3170  -16.5326  -56.4234 C.2       22 UNK         0.5000 
    122 N         -3.7463  -17.0830  -57.4874 N.am      22 UNK        -0.7600 
    123 O         -4.8919  -15.4531  -56.5330 O.2       22 UNK        -0.5000 
    124 C124       -5.6545  -17.7671  -54.6302 C.3       23 UNK        -0.0398 
    125 S125       -5.7097  -18.6005  -53.0035 S.3       23 UNK        -0.2404 
    126 C126       -5.5122  -17.2120  -51.8420 C.3       23 UNK        -0.0205 
    127 H127       -5.2250  -14.7231  -49.7193 H         1 UNK         0.0600 
    128 H128       -5.1156  -15.8490  -48.3570 H         1 UNK         0.0600 
    129 H129       -6.0642  -14.3704  -48.2046 H         1 UNK         0.0600 
    130 H130       -2.7037  -15.5145  -48.8607 H         1 UNK         0.3000 
    131 H131       -1.4737  -13.0019  -48.1476 H         1 UNK         0.0600 
    132 H132       -0.1120  -15.7003  -48.5740 H         1 UNK         0.0800 
    133 H133        0.6590  -14.1423  -48.5591 H         1 UNK         0.0800 
    134 H134       -0.5412  -16.2288  -52.2428 H         1 UNK         0.0800 
    135 H135        0.2778  -16.7420  -50.7936 H         1 UNK         0.0800 
    136 H136       -3.0510  -16.1014  -52.3122 H         1 UNK         0.1150 
    137 H137       -5.1430  -18.6312  -49.5596 H         1 UNK         0.1150 
    138 H138       -0.9637  -17.8385  -49.0108 H         1 UNK         0.1150 
    139 H139       -4.1083  -19.0670  -47.4020 H         1 UNK         0.0800 
    140 H140       -3.0095  -20.2102  -48.1376 H         1 UNK         0.0800 
    141 H141       -3.5614  -19.5729  -45.1069 H         1 UNK         0.0800 
    142 H142       -2.0690  -19.2670  -44.2614 H         1 UNK         0.0800 
    143 H143       -2.5759  -21.6147  -46.1403 H         1 UNK         0.0600 
    144 H144       -0.0773  -20.6495  -45.1808 H         1 UNK         0.3000 
    145 H145        1.7372  -23.7067  -45.6692 H         1 UNK         0.0600 
    146 H146        3.1075  -22.0264  -46.9426 H         1 UNK         0.0600 
    147 H147        1.7214  -22.6015  -47.8526 H         1 UNK         0.0600 
    148 H148        1.6815  -21.0049  -47.1165 H         1 UNK         0.0600 
    149 H149        2.0752  -20.9637  -44.6111 H         1 UNK         0.3000 
    150 H150        2.2206  -22.0362  -41.2374 H         1 UNK         0.0600 
    151 H151        4.5365  -22.6264  -41.9654 H         1 UNK         0.0600 
    152 H152        4.4925  -21.0289  -41.2344 H         1 UNK         0.0600 
    153 H153        4.5951  -21.1941  -42.9868 H         1 UNK         0.0600 
    154 H154        2.8320  -19.5397  -42.5001 H         1 UNK         0.3000 
    155 H155       -0.4609  -18.3199  -42.8735 H         1 UNK         0.0600 
    156 H156        1.5946  -17.6230  -40.7149 H         1 UNK         0.0600 
    157 H157       -0.1245  -17.8962  -40.4724 H         1 UNK         0.0600 
    158 H158        0.4179  -16.4965  -41.3841 H         1 UNK         0.0600 
    159 H159        1.8629  -16.8893  -43.2442 H         1 UNK         0.3000 
    160 H160        3.0146  -18.2019  -46.3686 H         1 UNK         0.0600 
    161 H161        2.6032  -15.8606  -47.0575 H         1 UNK         0.0600 
    162 H162        1.5618  -15.6131  -45.6550 H         1 UNK         0.0600 
    163 H163        1.0825  -16.7374  -46.9182 H         1 UNK         0.0600 
    164 H164        3.6898  -16.0215  -44.5313 H         1 UNK         0.3000 
    165 H165        6.3604  -17.7669  -42.9716 H         1 UNK         0.0600 
    166 H166        7.6988  -15.8630  -43.8342 H         1 UNK         0.0600 
    167 H167        7.3909  -17.0185  -45.1205 H         1 UNK         0.0600 
    168 H168        6.4738  -15.5183  -45.0559 H         1 UNK         0.0600 
    169 H169        5.4231  -15.0500  -42.8671 H         1 UNK         0.3000 
    170 H170        2.9107  -15.5191  -40.4230 H         1 UNK         0.0600 
    171 H171        4.9896  -15.5744  -39.0351 H         1 UNK         0.0600 
    172 H172        5.7119  -14.3321  -40.0507 H         1 UNK         0.0600 
    173 H173        4.2872  -13.9657  -39.0766 H         1 UNK         0.0600 
    174 H174        3.9984  -13.1305  -41.4258 H         1 UNK         0.3000 
    175 H175        2.8932  -11.8480  -42.8424 H         1 UNK         0.0600 
    176 H176        2.6727  -13.4599  -45.4447 H         1 UNK         0.0600 
    177 H177        2.9584  -11.7272  -45.3228 H         1 UNK         0.0600 
    178 H178        4.1683  -12.8594  -44.7378 H         1 UNK         0.0600 
    179 H179        0.5666  -12.8545  -44.3704 H         1 UNK         0.3000 
    180 H180       -1.7799  -11.9512  -41.8811 H         1 UNK         0.0600 
    181 H181       -1.3039  -10.4950  -44.5394 H         1 UNK         0.0600 
    182 H182       -1.4594   -9.7214  -42.9664 H         1 UNK         0.0600 
    183 H183       -2.8315  -10.5712  -43.6602 H         1 UNK         0.0600 
    184 H184       -1.9595  -12.8551  -44.6193 H         1 UNK         0.3000 
    185 H185       -1.0223  -16.0941  -44.2859 H         1 UNK         0.0600 
    186 H186       -3.0512  -16.6650  -42.9838 H         1 UNK         0.0600 
    187 H187       -4.0215  -15.5541  -43.9441 H         1 UNK         0.0600 
    188 H188       -3.3416  -16.9981  -44.6820 H         1 UNK         0.0600 
    189 H189       -2.7931  -15.3420  -46.2249 H         1 UNK         0.3000 
    190 H190       -1.0006  -22.6461  -43.4005 H         1 UNK         0.3000 
    191 H191       -3.1958  -23.3604  -41.6972 H         1 UNK         0.0600 
    192 H192       -0.5133  -24.7631  -42.2049 H         1 UNK         0.0600 
    193 H193       -1.5928  -25.0676  -40.8490 H         1 UNK         0.0600 
    194 H194       -0.7984  -23.5066  -41.0012 H         1 UNK         0.0600 
    195 H195       -2.0084  -24.5594  -44.7986 H         1 UNK         0.3000 
    196 H196       -3.9609  -26.8025  -44.8674 H         1 UNK         0.0600 
    197 H197       -1.7279  -26.0177  -46.8136 H         1 UNK         0.0600 
    198 H198       -2.7514  -27.4443  -46.9206 H         1 UNK         0.0600 
    199 H199       -1.6148  -27.2828  -45.5916 H         1 UNK         0.0600 
    200 H200       -5.1350  -24.3682  -44.5913 H         1 UNK         0.3000 
    201 H201       -6.6861  -22.9879  -45.3278 H         1 UNK         0.0600 
    202 H202       -7.8931  -25.0629  -45.8255 H         1 UNK         0.0600 
    203 H203       -7.1657  -25.1829  -47.4207 H         1 UNK         0.0600 
    204 H204       -8.2864  -23.8731  -47.0517 H         1 UNK         0.0600 
    205 H205       -6.5099  -23.7592  -48.7057 H         1 UNK         0.3000 
    206 H206       -5.7062  -21.0274  -49.3699 H         1 UNK         0.0600 
    207 H207       -7.6179  -22.2111  -50.5056 H         1 UNK         0.0600 
    208 H208       -6.3947  -21.6486  -51.6262 H         1 UNK         0.0600 
    209 H209       -6.4708  -23.3585  -51.2002 H         1 UNK         0.0600 
    210 H210       -3.8630  -23.6334  -48.5499 H         1 UNK         0.3000 
    211 H211       -1.7318  -24.1838  -48.7096 H         1 UNK         0.0600 
    212 H212       -1.3127  -21.4545  -50.0693 H         1 UNK         0.0600 
    213 H213       -0.0335  -22.5102  -49.4824 H         1 UNK         0.0600 
    214 H214       -1.1796  -21.8088  -48.3571 H         1 UNK         0.0600 
    215 H215       -0.9167  -22.6334  -51.6755 H         1 UNK         0.3000 
    216 H216       -0.8614  -25.1903  -53.1252 H         1 UNK         0.0600 
    217 H217        0.5362  -24.0374  -54.6999 H         1 UNK         0.0600 
    218 H218        1.0791  -23.5297  -53.1145 H         1 UNK         0.0600 
    219 H219        0.0844  -22.4516  -54.0945 H         1 UNK         0.0600 
    220 H220       -3.2832  -23.0139  -52.5854 H         1 UNK         0.3000 
    221 H221       -5.2702  -22.6207  -53.4233 H         1 UNK         0.0600 
    222 H222       -4.7789  -24.9311  -55.3857 H         1 UNK         0.0600 
    223 H223       -5.4592  -25.0704  -53.7704 H         1 UNK         0.0600 
    224 H224       -6.3370  -24.1975  -55.0108 H         1 UNK         0.0600 
    225 H225       -5.1671  -23.3141  -56.7096 H         1 UNK         0.3000 
    226 H226       -5.3694  -20.6353  -57.5216 H         1 UNK         0.0600 
    227 H227       -6.2917  -22.5378  -58.8120 H         1 UNK         0.0600 
    228 H228       -5.2152  -21.5945  -59.8293 H         1 UNK         0.0600 
    229 H229       -4.6666  -23.1281  -59.1632 H         1 UNK         0.0600 
    230 H230       -2.4696  -22.6379  -57.1964 H         1 UNK         0.3000 
    231 H231       -0.7125  -20.8611  -58.6735 H         1 UNK         0.0600 
    232 H232       -0.2025  -23.2589  -58.4868 H         1 UNK         0.0600 
    233 H233       -0.1463  -23.1533  -56.7308 H         1 UNK         0.0600 
    234 H234        1.0692  -22.3341  -57.7031 H         1 UNK         0.0600 
    235 H235       -2.0543  -20.7820  -55.4627 H         1 UNK         0.3000 
    236 H236        0.0208  -18.8920  -54.4548 H         1 UNK         0.0600 
    237 H237       -1.2333  -19.1212  -52.2999 H         1 UNK         0.0600 
    238 H238       -2.3118  -20.2910  -53.0387 H         1 UNK         0.0600 
    239 H239       -0.5960  -20.6514  -52.8550 H         1 UNK         0.0600 
    240 H240       -3.5427  -19.2306  -54.8845 H         1 UNK         0.3000 
    241 H241       -4.0040  -16.4442  -54.3343 H         1 UNK         0.0600 
    242 H242       -3.7957  -16.6034  -58.3719 H         1 UNK         0.3800 
    243 H243       -3.3241  -18.0024  -57.4503 H         1 UNK         0.3800 
    244 H244       -6.3858  -16.9569  -54.6245 H         1 UNK         0.0800 
    245 H245       -6.0066  -18.4859  -55.3721 H         1 UNK         0.0800 
    246 H246       -6.3729  -17.1873  -51.1722 H         1 UNK         0.0800 
    247 H247       -5.5157  -16.2590  -52.3723 H         1 UNK         0.0800 
@<TRIPOS>BOND
     1    1    2 1    
     2    1  127 1    
     3    1  128 1    
     4    1  129 1    
     5    2    3 2    
     6    2    4 am   BACKBONE|DICT|INTERRES
     7    4    5 1    
     8    4  130 1    
     9    5    6 1    
    10    5   65 1    
    11    5  131 1    
    12    6    7 1    
    13    6  132 1    
    14    6  133 1    
    15    7    8 1    
    16    8    9 1    
    17    8  134 1    
    18    8  135 1    
    19    9   10 ar   
    20    9   14 ar   
    21   10   11 ar   
    22   10  136 1    
    23   11   12 ar   
    24   11  126 1    
    25   12   13 ar   
    26   12  137 1    
    27   13   14 ar   
    28   13   15 1    
    29   14  138 1    
    30   15   16 1    
    31   15  139 1    
    32   15  140 1    
    33   16   17 1    
    34   17   18 1    
    35   17  141 1    
    36   17  142 1    
    37   18   19 1    
    38   18   67 1    
    39   18  143 1    
    40   19   20 am   BACKBONE|DICT|INTERRES
    41   19  144 1    
    42   20   21 2    
    43   20   22 1    
    44   22   23 1    
    45   22   24 1    
    46   22  145 1    
    47   23  146 1    
    48   23  147 1    
    49   23  148 1    
    50   24   25 am   BACKBONE|DICT|INTERRES
    51   24  149 1    
    52   25   26 2    
    53   25   27 1    
    54   27   28 1    
    55   27   29 1    
    56   27  150 1    
    57   28  151 1    
    58   28  152 1    
    59   28  153 1    
    60   29   30 am   BACKBONE|DICT|INTERRES
    61   29  154 1    
    62   30   31 2    
    63   30   32 1    
    64   32   33 1    
    65   32   34 1    
    66   32  155 1    
    67   33  156 1    
    68   33  157 1    
    69   33  158 1    
    70   34   35 am   BACKBONE|DICT|INTERRES
    71   34  159 1    
    72   35   36 2    
    73   35   37 1    
    74   37   38 1    
    75   37   39 1    
    76   37  160 1    
    77   38  161 1    
    78   38  162 1    
    79   38  163 1    
    80   39   40 am   BACKBONE|DICT|INTERRES
    81   39  164 1    
    82   40   41 2    
    83   40   42 1    
    84   42   43 1    
    85   42   44 1    
    86   42  165 1    
    87   43  166 1    
    88   43  167 1    
    89   43  168 1    
    90   44   45 am   BACKBONE|DICT|INTERRES
    91   44  169 1    
    92   45   46 2    
    93   45   47 1    
    94   47   48 1    
    95   47   49 1    
    96   47  170 1    
    97   48  171 1    
    98   48  172 1    
    99   48  173 1    
   100   49   50 am   BACKBONE|DICT|INTERRES
   101   49  174 1    
   102   50   51 2    
   103   50   52 1    
   104   52   53 1    
   105   52   54 1    
   106   52  175 1    
   107   53  176 1    
   108   53  177 1    
   109   53  178 1    
   110   54   55 am   BACKBONE|DICT|INTERRES
   111   54  179 1    
   112   55   56 2    
   113   55   57 1    
   114   57   58 1    
   115   57   59 1    
   116   57  180 1    
   117   58  181 1    
   118   58  182 1    
   119   58  183 1    
   120   59   60 am   BACKBONE|DICT|INTERRES
   121   59  184 1    
   122   60   61 2    
   123   60   62 1    
   124   62   63 1    
   125   62   64 1    
   126   62  185 1    
   127   63  186 1    
   128   63  187 1    
   129   63  188 1    
   130   64   65 am   BACKBONE|DICT|INTERRES
   131   64  189 1    
   132   65   66 2    
   133   67   68 2    
   134   67   69 am   BACKBONE|DICT|INTERRES
   135   69   70 1    
   136   69  190 1    
   137   70   71 1    
   138   70   72 1    
   139   70  191 1    
   140   71  192 1    
   141   71  193 1    
   142   71  194 1    
   143   72   73 2    
   144   72   74 am   BACKBONE|DICT|INTERRES
   145   74   75 1    
   146   74  195 1    
   147   75   76 1    
   148   75   77 1    
   149   75  196 1    
   150   76  197 1    
   151   76  198 1    
   152   76  199 1    
   153   77   78 2    
   154   77   79 am   BACKBONE|DICT|INTERRES
   155   79   80 1    
   156   79  200 1    
   157   80   81 1    
   158   80   82 1    
   159   80  201 1    
   160   81  202 1    
   161   81  203 1    
   162   81  204 1    
   163   82   83 2    
   164   82   84 am   BACKBONE|DICT|INTERRES
   165   84   85 1    
   166   84  205 1    
   167   85   86 1    
   168   85   87 1    
   169   85  206 1    
   170   86  207 1    
   171   86  208 1    
   172   86  209 1    
   173   87   88 2    
   174   87   89 am   BACKBONE|DICT|INTERRES
   175   89   90 1    
   176   89  210 1    
   177   90   91 1    
   178   90   92 1    
   179   90  211 1    
   180   91  212 1    
   181   91  213 1    
   182   91  214 1    
   183   92   93 2    
   184   92   94 am   BACKBONE|DICT|INTERRES
   185   94   95 1    
   186   94  215 1    
   187   95   96 1    
   188   95   97 1    
   189   95  216 1    
   190   96  217 1    
   191   96  218 1    
   192   96  219 1    
   193   97   98 2    
   194   97   99 am   BACKBONE|DICT|INTERRES
   195   99  100 1    
   196   99  220 1    
   197  100  101 1    
   198  100  102 1    
   199  100  221 1    
   200  101  222 1    
   201  101  223 1    
   202  101  224 1    
   203  102  103 2    
   204  102  104 am   BACKBONE|DICT|INTERRES
   205  104  105 1    
   206  104  225 1    
   207  105  106 1    
   208  105  107 1    
   209  105  226 1    
   210  106  227 1    
   211  106  228 1    
   212  106  229 1    
   213  107  108 2    
   214  107  109 am   BACKBONE|DICT|INTERRES
   215  109  110 1    
   216  109  230 1    
   217  110  111 1    
   218  110  112 1    
   219  110  231 1    
   220  111  232 1    
   221  111  233 1    
   222  111  234 1    
   223  112  113 2    
   224  112  114 am   BACKBONE|DICT|INTERRES
   225  114  115 1    
   226  114  235 1    
   227  115  116 1    
   228  115  117 1    
   229  115  236 1    
   230  116  237 1    
   231  116  238 1    
   232  116  239 1    
   233  117  118 2    
   234  117  119 am   BACKBONE|DICT|INTERRES
   235  119  120 1    
   236  119  240 1    
   237  120  121 1    
   238  120  124 1    
   239  120  241 1    
   240  121  122 am   BACKBONE|DICT|INTERRES
   241  121  123 2    
   242  122  242 1    
   243  122  243 1    
   244  124  125 1    
   245  124  244 1    
   246  124  245 1    
   247  125  126 1    
   248  126  246 1    
   249  126  247 1    
@<TRIPOS>SUBSTRUCTURE
     1 UNK         1 GROUP             0       ****    0 ROOT    
