@<TRIPOS>MOLECULE
3R540
247   249    1
SMALL
USER_CHARGES


@<TRIPOS>ATOM
      1 CA         -1.2489  -10.3054  -50.7001 C.3       0 UNK        -0.1800 
      2 C          -0.9049  -11.5756  -49.9360 C.2       0 UNK         0.5000 
      3 O          -0.6075  -11.5129  -48.7430 O.2       0 UNK        -0.5000 
      4 N          -0.9616  -12.7324  -50.6110 N.am      1 UNK        -0.5000 
      5 CA         -0.6123  -14.0533  -50.0663 C.3       1 UNK         0.1400 
      6 C6         -0.5750  -15.1474  -51.1539 C.3       23 UNK        -0.0398 
      7 S7          0.6500  -14.8324  -52.4666 S.3       23 UNK        -0.2404 
      8 C8          2.1151  -15.7119  -51.8267 C.3       23 UNK        -0.0205 
      9 C9          1.8780  -17.2058  -51.6423 C.ar      23 UNK        -0.0193 
     10 C10         1.6417  -18.0230  -52.7512 C.ar      23 UNK        -0.1150 
     11 C11         1.4232  -19.3934  -52.5878 C.ar      23 UNK        -0.0193 
     12 C12         1.4481  -19.9459  -51.3049 C.ar      23 UNK        -0.1150 
     13 C13         1.6758  -19.1413  -50.1849 C.ar      23 UNK        -0.0193 
     14 C14         1.8938  -17.7710  -50.3619 C.ar      23 UNK        -0.1150 
     15 C15         1.6546  -19.7448  -48.7862 C.3       23 UNK        -0.0205 
     16 S16         2.9768  -20.9753  -48.5460 S.3       23 UNK        -0.2404 
     17 C17         2.8173  -21.3247  -46.7618 C.3       23 UNK        -0.0398 
     18 CA          2.0942  -22.6614  -46.4523 C.3       11 UNK         0.1400 
     19 N           2.3938  -23.1401  -45.1038 N.am      11 UNK        -0.5000 
     20 C           2.2670  -24.4108  -44.6973 C.2       10 UNK         0.5000 
     21 O           1.9862  -25.3445  -45.4488 O.2       10 UNK        -0.5000 
     22 CA          2.4664  -24.6838  -43.1926 C.3       10 UNK         0.1400 
     23 CB          3.9297  -25.0486  -42.9017 C.3       10 UNK        -0.1800 
     24 N           2.0748  -23.5585  -42.3396 N.am      10 UNK        -0.5000 
     25 C           0.8199  -23.1071  -42.2063 C.2       9 UNK         0.5000 
     26 O          -0.1490  -23.6091  -42.7718 O.2       9 UNK        -0.5000 
     27 CA          0.6169  -21.8506  -41.3400 C.3       9 UNK         0.1400 
     28 CB          0.4308  -22.2409  -39.8666 C.3       9 UNK        -0.1800 
     29 N           1.6884  -20.8561  -41.4451 N.am      9 UNK        -0.5000 
     30 C           2.1484  -20.3102  -42.5805 C.2       8 UNK         0.5000 
     31 O           1.7715  -20.6444  -43.7058 O.2       8 UNK        -0.5000 
     32 CA          3.1649  -19.1751  -42.4020 C.3       8 UNK         0.1400 
     33 CB          3.6847  -18.6058  -43.7345 C.3       8 UNK        -0.1800 
     34 N           2.5023  -18.1235  -41.6438 N.am      8 UNK        -0.5000 
     35 C           3.0273  -17.4273  -40.6320 C.2       7 UNK         0.5000 
     36 O           4.1914  -17.5449  -40.2476 O.2       7 UNK        -0.5000 
     37 CA          2.0824  -16.4452  -39.9135 C.3       7 UNK         0.1400 
     38 CB          2.0898  -15.0837  -40.6234 C.3       7 UNK        -0.1800 
     39 N           0.7005  -16.9234  -39.8161 N.am      7 UNK        -0.5000 
     40 C           0.2898  -17.9960  -39.1273 C.2       6 UNK         0.5000 
     41 O           1.0530  -18.7279  -38.4967 O.2       6 UNK        -0.5000 
     42 CA         -1.2181  -18.3291  -39.1462 C.3       6 UNK         0.1400 
     43 CB         -1.9647  -17.5973  -38.0148 C.3       6 UNK        -0.1800 
     44 N          -1.8760  -18.1356  -40.4469 N.am      6 UNK        -0.5000 
     45 C          -2.1183  -16.9959  -41.1087 C.2       5 UNK         0.5000 
     46 O          -1.8535  -15.8720  -40.6775 O.2       5 UNK        -0.5000 
     47 CA         -2.6890  -17.1506  -42.5322 C.3       5 UNK         0.1400 
     48 CB         -4.0599  -16.4693  -42.6545 C.3       5 UNK        -0.1800 
     49 N          -1.7855  -16.6036  -43.5466 N.am      5 UNK        -0.5000 
     50 C          -0.4970  -16.9475  -43.7024 C.2       4 UNK         0.5000 
     51 O           0.0610  -17.8067  -43.0217 O.2       4 UNK        -0.5000 
     52 CA          0.3173  -16.2328  -44.7978 C.3       4 UNK         0.1400 
     53 CB          0.4927  -17.1650  -46.0075 C.3       4 UNK        -0.1800 
     54 N          -0.2704  -14.9654  -45.2388 N.am      4 UNK        -0.5000 
     55 C          -0.3720  -13.8627  -44.4781 C.2       3 UNK         0.5000 
     56 O           0.1125  -13.7761  -43.3503 O.2       3 UNK        -0.5000 
     57 CA         -1.1525  -12.6558  -45.0450 C.3       3 UNK         0.1400 
     58 CB         -0.1902  -11.5102  -45.3936 C.3       3 UNK        -0.1800 
     59 N          -1.9663  -12.9633  -46.2226 N.am      3 UNK        -0.5000 
     60 C          -3.0175  -13.7977  -46.2485 C.2       2 UNK         0.5000 
     61 O          -3.4690  -14.3503  -45.2454 O.2       2 UNK        -0.5000 
     62 CA         -3.6263  -14.1197  -47.6310 C.3       2 UNK         0.1400 
     63 CB         -4.8964  -13.2893  -47.8674 C.3       2 UNK        -0.1800 
     64 N          -2.7018  -13.9054  -48.7492 N.am      2 UNK        -0.5000 
     65 C          -1.5157  -14.5136  -48.9013 C.2       1 UNK         0.5000 
     66 O          -1.1030  -15.3837  -48.1356 O.2       1 UNK        -0.5000 
     67 C           0.5690  -22.5447  -46.6208 C.2       11 UNK         0.5000 
     68 O           0.0112  -23.1232  -47.5527 O.2       11 UNK        -0.5000 
     69 N          -0.0800  -21.8305  -45.6890 N.am      12 UNK        -0.5000 
     70 CA         -1.5157  -21.5417  -45.6974 C.3       12 UNK         0.1400 
     71 CB         -1.8523  -20.6109  -44.5248 C.3       12 UNK        -0.1800 
     72 C          -2.4119  -22.7943  -45.6755 C.2       12 UNK         0.5000 
     73 O          -3.4396  -22.8085  -46.3501 O.2       12 UNK        -0.5000 
     74 N          -1.9991  -23.8374  -44.9428 N.am      13 UNK        -0.5000 
     75 CA         -2.6944  -25.1251  -44.8708 C.3       13 UNK         0.1400 
     76 CB         -2.0334  -26.0018  -43.7964 C.3       13 UNK        -0.1800 
     77 C          -2.7470  -25.8776  -46.2148 C.2       13 UNK         0.5000 
     78 O          -3.7174  -26.5929  -46.4667 O.2       13 UNK        -0.5000 
     79 N          -1.7145  -25.7027  -47.0492 N.am      14 UNK        -0.5000 
     80 CA         -1.6279  -26.2913  -48.3836 C.3       14 UNK         0.1400 
     81 CB         -0.1528  -26.5699  -48.7142 C.3       14 UNK        -0.1800 
     82 C          -2.2573  -25.3749  -49.4459 C.2       14 UNK         0.5000 
     83 O          -2.9706  -25.8585  -50.3253 O.2       14 UNK        -0.5000 
     84 N          -1.9644  -24.0723  -49.3546 N.am      15 UNK        -0.5000 
     85 CA         -2.3324  -23.0600  -50.3426 C.3       15 UNK         0.1400 
     86 CB         -1.3642  -21.8812  -50.1864 C.3       15 UNK        -0.1800 
     87 C          -3.7900  -22.5752  -50.2362 C.2       15 UNK         0.5000 
     88 O          -4.3016  -22.0107  -51.2044 O.2       15 UNK        -0.5000 
     89 N          -4.4231  -22.7724  -49.0702 N.am      16 UNK        -0.5000 
     90 CA         -5.7562  -22.2955  -48.6940 C.3       16 UNK         0.1400 
     91 CB         -6.8526  -22.9847  -49.5384 C.3       16 UNK        -0.1800 
     92 C          -5.8043  -20.7544  -48.7157 C.2       16 UNK         0.5000 
     93 O          -5.1625  -20.1217  -47.8762 O.2       16 UNK        -0.5000 
     94 N          -6.5287  -20.1745  -49.6820 N.am      17 UNK        -0.5000 
     95 CA         -6.5698  -18.7320  -49.9385 C.3       17 UNK         0.1400 
     96 CB         -7.7506  -18.4294  -50.8735 C.3       17 UNK        -0.1800 
     97 C          -5.2563  -18.1778  -50.5313 C.2       17 UNK         0.5000 
     98 O          -5.0200  -16.9721  -50.4402 O.2       17 UNK        -0.5000 
     99 N          -4.4374  -19.0670  -51.1137 N.am      18 UNK        -0.5000 
    100 CA        -3.1614  -18.8143  -51.7820 C.3       18 UNK         0.1400 
    101 CB        -2.1169  -18.3128  -50.7646 C.3       18 UNK        -0.1800 
    102 C         -3.2912  -17.9280  -53.0397 C.2       18 UNK         0.5000 
    103 O         -4.3957  -17.7589  -53.5645 O.2       18 UNK        -0.5000 
    104 N         -2.1502  -17.4336  -53.5436 N.am      19 UNK        -0.5000 
    105 CA        -1.9954  -16.6666  -54.7842 C.3       19 UNK         0.1400 
    106 CB        -2.6146  -15.2570  -54.6424 C.3       19 UNK        -0.1800 
    107 C         -2.5231  -17.4611  -55.9967 C.2       19 UNK         0.5000 
    108 O         -1.8909  -18.4385  -56.3967 O.2       19 UNK        -0.5000 
    109 N         -3.6858  -17.0652  -56.5319 N.am      20 UNK        -0.5000 
    110 CA        -4.3835  -17.7419  -57.6267 C.3       20 UNK         0.1400 
    111 CB        -5.5761  -16.8802  -58.0678 C.3       20 UNK        -0.1800 
    112 C         -4.8496  -19.1698  -57.2772 C.2       20 UNK         0.5000 
    113 O         -4.9327  -20.0109  -58.1737 O.2       20 UNK        -0.5000 
    114 N         -5.1107  -19.4382  -55.9879 N.am      21 UNK        -0.5000 
    115 CA        -5.5102  -20.7566  -55.4845 C.3       21 UNK         0.1400 
    116 CB        -6.0589  -20.6166  -54.0574 C.3       21 UNK        -0.1800 
    117 C         -4.3786  -21.8042  -55.5319 C.2       21 UNK         0.5000 
    118 O         -4.6656  -22.9986  -55.4431 O.2       21 UNK        -0.5000 
    119 N         -3.1265  -21.3540  -55.6925 N.am      22 UNK        -0.5000 
    120 CA        -1.9483  -22.2129  -55.8899 C.3       22 UNK         0.1400 
    121 C         -1.8730  -22.8748  -57.2991 C.2       22 UNK         0.5000 
    122 N         -2.6849  -22.4775  -58.2736 N.am      22 UNK        -0.7600 
    123 O         -1.0632  -23.7733  -57.5112 O.2       22 UNK        -0.5000 
    124 C124       -0.6261  -21.4682  -55.5752 C.3       23 UNK        -0.0398 
    125 S125       -0.6006  -20.7088  -53.9183 S.3       23 UNK        -0.2404 
    126 C126        1.1600  -20.2789  -53.7936 C.3       23 UNK        -0.0205 
    127 H127       -2.1047   -9.8112  -50.2400 H         1 UNK         0.0600 
    128 H128       -0.4045   -9.6163  -50.6800 H         1 UNK         0.0600 
    129 H129       -1.4944  -10.5130  -51.7419 H         1 UNK         0.0600 
    130 H130       -1.2022  -12.7185  -51.5919 H         1 UNK         0.3000 
    131 H131        0.3938  -13.9668  -49.6498 H         1 UNK         0.0600 
    132 H132       -1.5567  -15.2515  -51.6181 H         1 UNK         0.0800 
    133 H133       -0.3533  -16.1124  -50.7020 H         1 UNK         0.0800 
    134 H134        2.4241  -15.2494  -50.8881 H         1 UNK         0.0800 
    135 H135        2.9423  -15.5687  -52.5231 H         1 UNK         0.0800 
    136 H136        1.6245  -17.5876  -53.7407 H         1 UNK         0.1150 
    137 H137        1.2863  -21.0061  -51.1796 H         1 UNK         0.1150 
    138 H138        2.0668  -17.1409  -49.5007 H         1 UNK         0.1150 
    139 H139        1.7587  -18.9601  -48.0362 H         1 UNK         0.0800 
    140 H140        0.6848  -20.2127  -48.6139 H         1 UNK         0.0800 
    141 H141        2.3487  -20.4801  -46.2546 H         1 UNK         0.0800 
    142 H142        3.8341  -21.3674  -46.3691 H         1 UNK         0.0800 
    143 H143        2.4528  -23.4113  -47.1611 H         1 UNK         0.0600 
    144 H144        2.5424  -22.4222  -44.4052 H         1 UNK         0.3000 
    145 H145        1.8410  -25.5393  -42.9287 H         1 UNK         0.0600 
    146 H146        4.0676  -25.3232  -41.8557 H         1 UNK         0.0600 
    147 H147        4.2467  -25.9007  -43.5045 H         1 UNK         0.0600 
    148 H148        4.6033  -24.2201  -43.1242 H         1 UNK         0.0600 
    149 H149        2.8130  -23.0810  -41.8437 H         1 UNK         0.3000 
    150 H150       -0.3001  -21.3660  -41.6779 H         1 UNK         0.0600 
    151 H151       -0.3854  -22.9554  -39.7513 H         1 UNK         0.0600 
    152 H152        0.1897  -21.3733  -39.2533 H         1 UNK         0.0600 
    153 H153        1.3305  -22.7006  -39.4559 H         1 UNK         0.0600 
    154 H154        2.0436  -20.4944  -40.5711 H         1 UNK         0.3000 
    155 H155        4.0089  -19.5810  -41.8408 H         1 UNK         0.0600 
    156 H156        2.8782  -18.1808  -44.3309 H         1 UNK         0.0600 
    157 H157        4.1648  -19.3818  -44.3317 H         1 UNK         0.0600 
    158 H158        4.4222  -17.8214  -43.5647 H         1 UNK         0.0600 
    159 H159        1.5295  -17.9665  -41.9032 H         1 UNK         0.3000 
    160 H160        2.4585  -16.3054  -38.8981 H         1 UNK         0.0600 
    161 H161        1.4728  -14.3573  -40.0944 H         1 UNK         0.0600 
    162 H162        1.7118  -15.1642  -41.6432 H         1 UNK         0.0600 
    163 H163        3.0997  -14.6754  -40.6783 H         1 UNK         0.0600 
    164 H164       -0.0120  -16.3748  -40.2877 H         1 UNK         0.3000 
    165 H165       -1.2977  -19.3977  -38.9418 H         1 UNK         0.0600 
    166 H166       -3.0185  -17.8744  -37.9939 H         1 UNK         0.0600 
    167 H167       -1.5417  -17.8545  -37.0429 H         1 UNK         0.0600 
    168 H168       -1.9036  -16.5135  -38.1164 H         1 UNK         0.0600 
    169 H169       -2.0955  -18.9964  -40.9275 H         1 UNK         0.3000 
    170 H170       -2.8184  -18.2125  -42.7494 H         1 UNK         0.0600 
    171 H171       -4.7600  -16.8628  -41.9166 H         1 UNK         0.0600 
    172 H172       -3.9878  -15.3919  -42.4995 H         1 UNK         0.0600 
    173 H173       -4.4967  -16.6356  -43.6395 H         1 UNK         0.0600 
    174 H174       -2.1636  -15.8708  -44.1333 H         1 UNK         0.3000 
    175 H175        1.3049  -16.0219  -44.3825 H         1 UNK         0.0600 
    176 H176       -0.4648  -17.4042  -46.4716 H         1 UNK         0.0600 
    177 H177        1.1309  -16.7129  -46.7667 H         1 UNK         0.0600 
    178 H178        0.9516  -18.1101  -45.7144 H         1 UNK         0.0600 
    179 H179       -0.6734  -14.9619  -46.1699 H         1 UNK         0.3000 
    180 H180       -1.8256  -12.3096  -44.2583 H         1 UNK         0.0600 
    181 H181        0.5137  -11.8027  -46.1739 H         1 UNK         0.0600 
    182 H182        0.3922  -11.2077  -44.5224 H         1 UNK         0.0600 
    183 H183       -0.7315  -10.6309  -45.7433 H         1 UNK         0.0600 
    184 H184       -1.6501  -12.5592  -47.0967 H         1 UNK         0.3000 
    185 H185       -3.9010  -15.1767  -47.6279 H         1 UNK         0.0600 
    186 H186       -5.6186  -13.4424  -47.0643 H         1 UNK         0.0600 
    187 H187       -4.6764  -12.2218  -47.9128 H         1 UNK         0.0600 
    188 H188       -5.3850  -13.5736  -48.7996 H         1 UNK         0.0600 
    189 H189       -2.9599  -13.1959  -49.4192 H         1 UNK         0.3000 
    190 H190        0.4628  -21.4092  -44.9404 H         1 UNK         0.3000 
    191 H191       -1.7304  -21.0061  -46.6245 H         1 UNK         0.0600 
    192 H192       -1.6687  -21.0927  -43.5651 H         1 UNK         0.0600 
    193 H193       -2.9016  -20.3143  -44.5504 H         1 UNK         0.0600 
    194 H194       -1.2551  -19.7010  -44.5644 H         1 UNK         0.0600 
    195 H195       -1.1766  -23.7329  -44.3537 H         1 UNK         0.3000 
    196 H196       -3.7242  -24.9307  -44.5648 H         1 UNK         0.0600 
    197 H197       -2.5188  -26.9763  -43.7300 H         1 UNK         0.0600 
    198 H198       -2.1040  -25.5383  -42.8124 H         1 UNK         0.0600 
    199 H199       -0.9778  -26.1723  -44.0119 H         1 UNK         0.0600 
    200 H200       -0.9750  -25.0661  -46.7828 H         1 UNK         0.3000 
    201 H201       -2.1597  -27.2451  -48.4017 H         1 UNK         0.0600 
    202 H202        0.2860  -27.2636  -47.9968 H         1 UNK         0.0600 
    203 H203        0.4453  -25.6578  -48.7030 H         1 UNK         0.0600 
    204 H204       -0.0521  -27.0174  -49.7037 H         1 UNK         0.0600 
    205 H205       -1.3347  -23.7640  -48.6168 H         1 UNK         0.3000 
    206 H206       -2.1947  -23.4827  -51.3401 H         1 UNK         0.0600 
    207 H207       -0.3309  -22.2262  -50.1811 H         1 UNK         0.0600 
    208 H208       -1.4631  -21.1796  -51.0116 H         1 UNK         0.0600 
    209 H209       -1.5381  -21.3365  -49.2577 H         1 UNK         0.0600 
    210 H210       -3.8847  -23.1529  -48.2991 H         1 UNK         0.3000 
    211 H211       -5.9087  -22.5916  -47.6552 H         1 UNK         0.0600 
    212 H212       -6.7605  -22.7728  -50.6037 H         1 UNK         0.0600 
    213 H213       -7.8471  -22.6682  -49.2213 H         1 UNK         0.0600 
    214 H214       -6.8082  -24.0670  -49.4168 H         1 UNK         0.0600 
    215 H215       -7.0137  -20.7669  -50.3399 H         1 UNK         0.3000 
    216 H216       -6.7440  -18.2190  -48.9905 H         1 UNK         0.0600 
    217 H217       -7.8314  -17.3588  -51.0659 H         1 UNK         0.0600 
    218 H218       -8.6952  -18.7523  -50.4355 H         1 UNK         0.0600 
    219 H219       -7.6379  -18.9270  -51.8369 H         1 UNK         0.0600 
    220 H220       -4.7286  -20.0388  -51.1274 H         1 UNK         0.3000 
    221 H221       -2.8351  -19.7856  -52.1507 H         1 UNK         0.0600 
    222 H222       -2.3511  -17.3090  -50.4122 H         1 UNK         0.0600 
    223 H223       -2.0780  -18.9613  -49.8897 H         1 UNK         0.0600 
    224 H224       -1.1153  -18.3018  -51.1926 H         1 UNK         0.0600 
    225 H225       -1.2846  -17.6856  -53.0883 H         1 UNK         0.3000 
    226 H226       -0.9232  -16.5418  -54.9424 H         1 UNK         0.0600 
    227 H227       -2.1129  -14.6872  -53.8623 H         1 UNK         0.0600 
    228 H228       -2.5070  -14.6870  -55.5660 H         1 UNK         0.0600 
    229 H229       -3.6752  -15.2884  -54.3922 H         1 UNK         0.0600 
    230 H230       -4.1592  -16.2783  -56.1122 H         1 UNK         0.3000 
    231 H231       -3.6893  -17.8211  -58.4658 H         1 UNK         0.0600 
    232 H232       -5.2502  -15.8941  -58.3991 H         1 UNK         0.0600 
    233 H233       -6.2941  -16.7433  -57.2581 H         1 UNK         0.0600 
    234 H234       -6.1056  -17.3430  -58.9016 H         1 UNK         0.0600 
    235 H235       -4.9837  -18.7071  -55.2949 H         1 UNK         0.3000 
    236 H236       -6.3192  -21.1245  -56.1189 H         1 UNK         0.0600 
    237 H237       -6.4795  -21.5595  -53.7060 H         1 UNK         0.0600 
    238 H238       -5.2738  -20.3352  -53.3588 H         1 UNK         0.0600 
    239 H239       -6.8471  -19.8658  -54.0051 H         1 UNK         0.0600 
    240 H240       -2.9637  -20.3587  -55.7719 H         1 UNK         0.3000 
    241 H241       -2.0280  -23.0368  -55.1780 H         1 UNK         0.0600 
    242 H242       -2.6253  -22.9193  -59.1774 H         1 UNK         0.3800 
    243 H243       -3.3591  -21.7400  -58.1212 H         1 UNK         0.3800 
    244 H244        0.2174  -22.1576  -55.6439 H         1 UNK         0.0800 
    245 H245       -0.4435  -20.6863  -56.3139 H         1 UNK         0.0800 
    246 H246        1.7533  -21.1912  -53.7179 H         1 UNK         0.0800 
    247 H247        1.4762  -19.7761  -54.7091 H         1 UNK         0.0800 
@<TRIPOS>BOND
     1    1    2 1    
     2    1  127 1    
     3    1  128 1    
     4    1  129 1    
     5    2    3 2    
     6    2    4 am   BACKBONE|DICT|INTERRES
     7    4    5 1    
     8    4  130 1    
     9    5    6 1    
    10    5   65 1    
    11    5  131 1    
    12    6    7 1    
    13    6  132 1    
    14    6  133 1    
    15    7    8 1    
    16    8    9 1    
    17    8  134 1    
    18    8  135 1    
    19    9   10 ar   
    20    9   14 ar   
    21   10   11 ar   
    22   10  136 1    
    23   11   12 ar   
    24   11  126 1    
    25   12   13 ar   
    26   12  137 1    
    27   13   14 ar   
    28   13   15 1    
    29   14  138 1    
    30   15   16 1    
    31   15  139 1    
    32   15  140 1    
    33   16   17 1    
    34   17   18 1    
    35   17  141 1    
    36   17  142 1    
    37   18   19 1    
    38   18   67 1    
    39   18  143 1    
    40   19   20 am   BACKBONE|DICT|INTERRES
    41   19  144 1    
    42   20   21 2    
    43   20   22 1    
    44   22   23 1    
    45   22   24 1    
    46   22  145 1    
    47   23  146 1    
    48   23  147 1    
    49   23  148 1    
    50   24   25 am   BACKBONE|DICT|INTERRES
    51   24  149 1    
    52   25   26 2    
    53   25   27 1    
    54   27   28 1    
    55   27   29 1    
    56   27  150 1    
    57   28  151 1    
    58   28  152 1    
    59   28  153 1    
    60   29   30 am   BACKBONE|DICT|INTERRES
    61   29  154 1    
    62   30   31 2    
    63   30   32 1    
    64   32   33 1    
    65   32   34 1    
    66   32  155 1    
    67   33  156 1    
    68   33  157 1    
    69   33  158 1    
    70   34   35 am   BACKBONE|DICT|INTERRES
    71   34  159 1    
    72   35   36 2    
    73   35   37 1    
    74   37   38 1    
    75   37   39 1    
    76   37  160 1    
    77   38  161 1    
    78   38  162 1    
    79   38  163 1    
    80   39   40 am   BACKBONE|DICT|INTERRES
    81   39  164 1    
    82   40   41 2    
    83   40   42 1    
    84   42   43 1    
    85   42   44 1    
    86   42  165 1    
    87   43  166 1    
    88   43  167 1    
    89   43  168 1    
    90   44   45 am   BACKBONE|DICT|INTERRES
    91   44  169 1    
    92   45   46 2    
    93   45   47 1    
    94   47   48 1    
    95   47   49 1    
    96   47  170 1    
    97   48  171 1    
    98   48  172 1    
    99   48  173 1    
   100   49   50 am   BACKBONE|DICT|INTERRES
   101   49  174 1    
   102   50   51 2    
   103   50   52 1    
   104   52   53 1    
   105   52   54 1    
   106   52  175 1    
   107   53  176 1    
   108   53  177 1    
   109   53  178 1    
   110   54   55 am   BACKBONE|DICT|INTERRES
   111   54  179 1    
   112   55   56 2    
   113   55   57 1    
   114   57   58 1    
   115   57   59 1    
   116   57  180 1    
   117   58  181 1    
   118   58  182 1    
   119   58  183 1    
   120   59   60 am   BACKBONE|DICT|INTERRES
   121   59  184 1    
   122   60   61 2    
   123   60   62 1    
   124   62   63 1    
   125   62   64 1    
   126   62  185 1    
   127   63  186 1    
   128   63  187 1    
   129   63  188 1    
   130   64   65 am   BACKBONE|DICT|INTERRES
   131   64  189 1    
   132   65   66 2    
   133   67   68 2    
   134   67   69 am   BACKBONE|DICT|INTERRES
   135   69   70 1    
   136   69  190 1    
   137   70   71 1    
   138   70   72 1    
   139   70  191 1    
   140   71  192 1    
   141   71  193 1    
   142   71  194 1    
   143   72   73 2    
   144   72   74 am   BACKBONE|DICT|INTERRES
   145   74   75 1    
   146   74  195 1    
   147   75   76 1    
   148   75   77 1    
   149   75  196 1    
   150   76  197 1    
   151   76  198 1    
   152   76  199 1    
   153   77   78 2    
   154   77   79 am   BACKBONE|DICT|INTERRES
   155   79   80 1    
   156   79  200 1    
   157   80   81 1    
   158   80   82 1    
   159   80  201 1    
   160   81  202 1    
   161   81  203 1    
   162   81  204 1    
   163   82   83 2    
   164   82   84 am   BACKBONE|DICT|INTERRES
   165   84   85 1    
   166   84  205 1    
   167   85   86 1    
   168   85   87 1    
   169   85  206 1    
   170   86  207 1    
   171   86  208 1    
   172   86  209 1    
   173   87   88 2    
   174   87   89 am   BACKBONE|DICT|INTERRES
   175   89   90 1    
   176   89  210 1    
   177   90   91 1    
   178   90   92 1    
   179   90  211 1    
   180   91  212 1    
   181   91  213 1    
   182   91  214 1    
   183   92   93 2    
   184   92   94 am   BACKBONE|DICT|INTERRES
   185   94   95 1    
   186   94  215 1    
   187   95   96 1    
   188   95   97 1    
   189   95  216 1    
   190   96  217 1    
   191   96  218 1    
   192   96  219 1    
   193   97   98 2    
   194   97   99 am   BACKBONE|DICT|INTERRES
   195   99  100 1    
   196   99  220 1    
   197  100  101 1    
   198  100  102 1    
   199  100  221 1    
   200  101  222 1    
   201  101  223 1    
   202  101  224 1    
   203  102  103 2    
   204  102  104 am   BACKBONE|DICT|INTERRES
   205  104  105 1    
   206  104  225 1    
   207  105  106 1    
   208  105  107 1    
   209  105  226 1    
   210  106  227 1    
   211  106  228 1    
   212  106  229 1    
   213  107  108 2    
   214  107  109 am   BACKBONE|DICT|INTERRES
   215  109  110 1    
   216  109  230 1    
   217  110  111 1    
   218  110  112 1    
   219  110  231 1    
   220  111  232 1    
   221  111  233 1    
   222  111  234 1    
   223  112  113 2    
   224  112  114 am   BACKBONE|DICT|INTERRES
   225  114  115 1    
   226  114  235 1    
   227  115  116 1    
   228  115  117 1    
   229  115  236 1    
   230  116  237 1    
   231  116  238 1    
   232  116  239 1    
   233  117  118 2    
   234  117  119 am   BACKBONE|DICT|INTERRES
   235  119  120 1    
   236  119  240 1    
   237  120  121 1    
   238  120  124 1    
   239  120  241 1    
   240  121  122 am   BACKBONE|DICT|INTERRES
   241  121  123 2    
   242  122  242 1    
   243  122  243 1    
   244  124  125 1    
   245  124  244 1    
   246  124  245 1    
   247  125  126 1    
   248  126  246 1    
   249  126  247 1    
@<TRIPOS>SUBSTRUCTURE
     1 UNK         1 GROUP             0       ****    0 ROOT    
