@<TRIPOS>MOLECULE
3R540
247   249    1
SMALL
USER_CHARGES


@<TRIPOS>ATOM
      1 CA         -0.7946  -10.2190  -48.6428 C.3       0 UNK        -0.1800 
      2 C          -0.6423  -11.1150  -47.4233 C.2       0 UNK         0.5000 
      3 O           0.3763  -11.0437  -46.7355 O.2       0 UNK        -0.5000 
      4 N          -1.6569  -11.9424  -47.1366 N.am      1 UNK        -0.5000 
      5 CA         -1.6777  -12.9256  -46.0425 C.3       1 UNK         0.1400 
      6 C6         -2.9380  -13.8259  -46.0933 C.3       23 UNK        -0.0398 
      7 S7         -2.9985  -14.8582  -47.5987 S.3       23 UNK        -0.2404 
      8 C8         -3.2505  -16.5147  -46.8822 C.3       23 UNK        -0.0205 
      9 C9         -3.0821  -17.6135  -47.9206 C.ar      23 UNK        -0.0193 
     10 C10        -4.1874  -18.3460  -48.3630 C.ar      23 UNK        -0.1150 
     11 C11        -4.0277  -19.3818  -49.2878 C.ar      23 UNK        -0.0193 
     12 C12        -2.7523  -19.6766  -49.7778 C.ar      23 UNK        -0.1150 
     13 C13        -1.6421  -18.9406  -49.3578 C.ar      23 UNK        -0.0193 
     14 C14        -1.8125  -17.9161  -48.4220 C.ar      23 UNK        -0.1150 
     15 C15        -0.2663  -19.2303  -49.9411 C.3       23 UNK        -0.0205 
     16 S16         0.4056  -20.8446  -49.4278 S.3       23 UNK        -0.2404 
     17 C17         0.6182  -20.6029  -47.6316 C.3       23 UNK        -0.0398 
     18 CA          0.1086  -21.7913  -46.7831 C.3       11 UNK         0.1400 
     19 N           0.5931  -21.6977  -45.4016 N.am      11 UNK        -0.5000 
     20 C           0.4267  -22.6320  -44.4541 C.2       10 UNK         0.5000 
     21 O          -0.1178  -23.7174  -44.6510 O.2       10 UNK        -0.5000 
     22 CA          0.9092  -22.2719  -43.0386 C.3       10 UNK         0.1400 
     23 CB          2.4178  -22.5196  -42.8855 C.3       10 UNK        -0.1800 
     24 N           0.5984  -20.8802  -42.7126 N.am      10 UNK        -0.5000 
     25 C          -0.6244  -20.4453  -42.3744 C.2       9 UNK         0.5000 
     26 O          -1.5913  -21.1886  -42.2062 O.2       9 UNK        -0.5000 
     27 CA         -0.8075  -18.9226  -42.2232 C.3       9 UNK         0.1400 
     28 CB         -0.5653  -18.4950  -40.7687 C.3       9 UNK        -0.1800 
     29 N           0.0568  -18.1495  -43.1210 N.am      9 UNK        -0.5000 
     30 C          -0.0862  -18.1406  -44.4551 C.2       8 UNK         0.5000 
     31 O          -0.9746  -18.7540  -45.0421 O.2       8 UNK        -0.5000 
     32 CA          0.9553  -17.3776  -45.2907 C.3       8 UNK         0.1400 
     33 CB          0.5072  -15.9385  -45.5622 C.3       8 UNK        -0.1800 
     34 N           2.2948  -17.3750  -44.7102 N.am      8 UNK        -0.5000 
     35 C           3.0562  -18.4662  -44.5552 C.2       7 UNK         0.5000 
     36 O           2.6588  -19.6072  -44.7964 O.2       7 UNK        -0.5000 
     37 CA          4.4891  -18.2476  -44.0454 C.3       7 UNK         0.1400 
     38 CB          5.4121  -17.8557  -45.2092 C.3       7 UNK        -0.1800 
     39 N           4.5277  -17.1954  -43.0305 N.am      7 UNK        -0.5000 
     40 C           4.7322  -17.4010  -41.7231 C.2       6 UNK         0.5000 
     41 O           5.0025  -18.4989  -41.2346 O.2       6 UNK        -0.5000 
     42 CA          4.5970  -16.1775  -40.7916 C.3       6 UNK         0.1400 
     43 CB          5.9668  -15.5177  -40.5719 C.3       6 UNK        -0.1800 
     44 N           3.6498  -15.1618  -41.2609 N.am      6 UNK        -0.5000 
     45 C           2.3457  -15.3701  -41.4883 C.2       5 UNK         0.5000 
     46 O           1.7881  -16.4557  -41.3335 O.2       5 UNK        -0.5000 
     47 CA          1.5282  -14.1836  -42.0281 C.3       5 UNK         0.1400 
     48 CB          1.0078  -13.3239  -40.8666 C.3       5 UNK        -0.1800 
     49 N           2.2026  -13.3120  -42.9987 N.am      5 UNK        -0.5000 
     50 C           2.9582  -13.6607  -44.0512 C.2       4 UNK         0.5000 
     51 O           3.3344  -14.8134  -44.2708 O.2       4 UNK        -0.5000 
     52 CA          3.3455  -12.5439  -45.0430 C.3       4 UNK         0.1400 
     53 CB          3.2101  -13.0180  -46.5005 C.3       4 UNK        -0.1800 
     54 N           2.5436  -11.3292  -44.8816 N.am      4 UNK        -0.5000 
     55 C           2.8307  -10.3086  -44.0644 C.2       3 UNK         0.5000 
     56 O           3.8013  -10.2900  -43.3078 O.2       3 UNK        -0.5000 
     57 CA          1.8493   -9.1266  -44.0781 C.3       3 UNK         0.1400 
     58 CB          2.1059   -8.2241  -45.2954 C.3       3 UNK        -0.1800 
     59 N           0.4608   -9.5873  -44.1048 N.am      3 UNK        -0.5000 
     60 C          -0.2879   -9.8083  -43.0157 C.2       2 UNK         0.5000 
     61 O           0.1218   -9.6569  -41.8646 O.2       2 UNK        -0.5000 
     62 CA         -1.7429  -10.2653  -43.2428 C.3       2 UNK         0.1400 
     63 CB         -2.6860   -9.0529  -43.2698 C.3       2 UNK        -0.1800 
     64 N          -1.9160  -11.0295  -44.4788 N.am      2 UNK        -0.5000 
     65 C          -1.5238  -12.3008  -44.6383 C.2       1 UNK         0.5000 
     66 O          -1.0399  -12.9777  -43.7330 O.2       1 UNK        -0.5000 
     67 C          -1.4283  -21.9459  -46.8505 C.2       11 UNK         0.5000 
     68 O          -1.9180  -22.7990  -47.5889 O.2       11 UNK        -0.5000 
     69 N          -2.1482  -21.1768  -46.0205 N.am      12 UNK        -0.5000 
     70 CA         -3.6088  -21.1624  -45.8986 C.3       12 UNK         0.1400 
     71 CB         -4.0142  -20.0091  -44.9666 C.3       12 UNK        -0.1800 
     72 C          -4.2560  -22.4846  -45.4328 C.2       12 UNK         0.5000 
     73 O          -5.4801  -22.6046  -45.5053 O.2       12 UNK        -0.5000 
     74 N          -3.4541  -23.4574  -44.9740 N.am      13 UNK        -0.5000 
     75 CA         -3.8996  -24.8264  -44.7008 C.3       13 UNK         0.1400 
     76 CB         -2.8298  -25.5499  -43.8698 C.3       13 UNK        -0.1800 
     77 C          -4.2144  -25.6196  -45.9885 C.2       13 UNK         0.5000 
     78 O          -4.9595  -26.5987  -45.9267 O.2       13 UNK        -0.5000 
     79 N          -3.6536  -25.1825  -47.1218 N.am      14 UNK        -0.5000 
     80 CA         -3.9265  -25.6741  -48.4673 C.3       14 UNK         0.1400 
     81 CB         -2.5830  -26.0399  -49.1179 C.3       14 UNK        -0.1800 
     82 C          -4.6556  -24.5816  -49.2713 C.2       14 UNK         0.5000 
     83 O          -4.7427  -23.4373  -48.8233 O.2       14 UNK        -0.5000 
     84 N          -5.1700  -24.9478  -50.4491 N.am      15 UNK        -0.5000 
     85 CA         -5.8627  -24.0654  -51.3851 C.3       15 UNK         0.1400 
     86 CB         -7.2715  -23.7248  -50.8576 C.3       15 UNK        -0.1800 
     87 C          -5.9360  -24.7535  -52.7563 C.2       15 UNK         0.5000 
     88 O          -5.5949  -25.9353  -52.8689 O.2       15 UNK        -0.5000 
     89 N          -6.3997  -24.0066  -53.7678 N.am      16 UNK        -0.5000 
     90 CA         -6.6391  -24.4460  -55.1463 C.3       16 UNK         0.1400 
     91 CB         -7.8645  -25.3868  -55.2000 C.3       16 UNK        -0.1800 
     92 C          -5.3652  -25.0280  -55.7931 C.2       16 UNK         0.5000 
     93 O          -4.3610  -24.3226  -55.8730 O.2       16 UNK        -0.5000 
     94 N          -5.4053  -26.2958  -56.2213 N.am      17 UNK        -0.5000 
     95 CA         -4.2784  -27.0046  -56.8311 C.3       17 UNK         0.1400 
     96 CB         -4.7884  -28.3243  -57.4301 C.3       17 UNK        -0.1800 
     97 C          -3.1065  -27.2700  -55.8637 C.2       17 UNK         0.5000 
     98 O          -1.9772  -27.4391  -56.3252 O.2       17 UNK        -0.5000 
     99 N          -3.3819  -27.3059  -54.5518 N.am      18 UNK        -0.5000 
    100 CA        -2.3825  -27.5516  -53.5104 C.3       18 UNK         0.1400 
    101 CB        -3.0648  -28.2215  -52.3072 C.3       18 UNK        -0.1800 
    102 C         -1.6262  -26.2780  -53.0825 C.2       18 UNK         0.5000 
    103 O         -0.5786  -26.3949  -52.4459 O.2       18 UNK        -0.5000 
    104 N         -2.1465  -25.0949  -53.4333 N.am      19 UNK        -0.5000 
    105 CA        -1.5445  -23.7979  -53.1421 C.3       19 UNK         0.1400 
    106 CB        -1.8204  -23.3755  -51.6867 C.3       19 UNK        -0.1800 
    107 C         -2.0713  -22.7820  -54.1595 C.2       19 UNK         0.5000 
    108 O         -2.9811  -22.0114  -53.8520 O.2       19 UNK        -0.5000 
    109 N         -1.4948  -22.8060  -55.3682 N.am      20 UNK        -0.5000 
    110 CA        -1.8811  -21.9578  -56.5037 C.3       20 UNK         0.1400 
    111 CB        -1.1068  -22.4168  -57.7488 C.3       20 UNK        -0.1800 
    112 C         -1.6868  -20.4438  -56.2688 C.2       20 UNK         0.5000 
    113 O         -2.2809  -19.6368  -56.9839 O.2       20 UNK        -0.5000 
    114 N         -0.8746  -20.0874  -55.2648 N.am      21 UNK        -0.5000 
    115 CA        -0.6513  -18.7222  -54.7908 C.3       21 UNK         0.1400 
    116 CB         0.6474  -18.7015  -53.9682 C.3       21 UNK        -0.1800 
    117 C         -1.8306  -18.1349  -53.9822 C.2       21 UNK         0.5000 
    118 O         -1.8185  -16.9327  -53.7144 O.2       21 UNK        -0.5000 
    119 N         -2.8128  -18.9658  -53.5995 N.am      22 UNK        -0.5000 
    120 CA        -4.0538  -18.5518  -52.9246 C.3       22 UNK         0.1400 
    121 C         -4.9017  -17.5607  -53.7744 C.2       22 UNK         0.5000 
    122 N         -5.4001  -16.4852  -53.1795 N.am      22 UNK        -0.7600 
    123 O         -5.1400  -17.7793  -54.9601 O.2       22 UNK        -0.5000 
    124 C124       -4.8921  -19.7893  -52.5118 C.3       23 UNK        -0.0398 
    125 S125       -6.0736  -19.4408  -51.1642 S.3       23 UNK        -0.2404 
    126 C126       -5.2306  -20.1948  -49.7390 C.3       23 UNK        -0.0205 
    127 H127       -1.7499  -10.3751  -49.1443 H         1 UNK         0.0600 
    128 H128        0.0031  -10.4225  -49.3570 H         1 UNK         0.0600 
    129 H129       -0.7305   -9.1717  -48.3479 H         1 UNK         0.0600 
    130 H130       -2.4635  -11.9584  -47.7447 H         1 UNK         0.3000 
    131 H131       -0.8013  -13.5585  -46.1851 H         1 UNK         0.0600 
    132 H132       -2.9742  -14.4793  -45.2194 H         1 UNK         0.0800 
    133 H133       -3.8445  -13.2197  -46.0521 H         1 UNK         0.0800 
    134 H134       -4.2453  -16.5582  -46.4362 H         1 UNK         0.0800 
    135 H135       -2.5481  -16.6897  -46.0680 H         1 UNK         0.0800 
    136 H136       -5.1722  -18.1200  -47.9791 H         1 UNK         0.1150 
    137 H137       -2.6195  -20.4782  -50.4897 H         1 UNK         0.1150 
    138 H138       -0.9590  -17.3450  -48.0865 H         1 UNK         0.1150 
    139 H139       -0.3435  -19.2130  -51.0277 H         1 UNK         0.0800 
    140 H140        0.4434  -18.4457  -49.6740 H         1 UNK         0.0800 
    141 H141        0.1258  -19.6836  -47.3204 H         1 UNK         0.0800 
    142 H142        1.6832  -20.4483  -47.4526 H         1 UNK         0.0800 
    143 H143        0.5405  -22.7048  -47.1975 H         1 UNK         0.0600 
    144 H144        1.1024  -20.8556  -45.1560 H         1 UNK         0.3000 
    145 H145        0.3902  -22.9226  -42.3312 H         1 UNK         0.0600 
    146 H146        2.7542  -22.2890  -41.8746 H         1 UNK         0.0600 
    147 H147        2.6595  -23.5656  -43.0777 H         1 UNK         0.0600 
    148 H148        3.0044  -21.9174  -43.5790 H         1 UNK         0.0600 
    149 H149        1.3301  -20.2012  -42.8681 H         1 UNK         0.3000 
    150 H150       -1.8450  -18.6904  -42.4735 H         1 UNK         0.0600 
    151 H151       -1.2270  -19.0321  -40.0881 H         1 UNK         0.0600 
    152 H152       -0.7558  -17.4302  -40.6338 H         1 UNK         0.0600 
    153 H153        0.4603  -18.6957  -40.4563 H         1 UNK         0.0600 
    154 H154        0.8052  -17.6176  -42.6880 H         1 UNK         0.3000 
    155 H155        1.0312  -17.8780  -46.2566 H         1 UNK         0.0600 
    156 H156        0.3510  -15.3795  -44.6414 H         1 UNK         0.0600 
    157 H157        1.2425  -15.4052  -46.1635 H         1 UNK         0.0600 
    158 H158       -0.4268  -15.9237  -46.1192 H         1 UNK         0.0600 
    159 H159        2.6949  -16.4612  -44.5099 H         1 UNK         0.3000 
    160 H160        4.8422  -19.1966  -43.6368 H         1 UNK         0.0600 
    161 H161        5.3998  -18.6159  -45.9914 H         1 UNK         0.0600 
    162 H162        5.1112  -16.9102  -45.6629 H         1 UNK         0.0600 
    163 H163        6.4437  -17.7512  -44.8730 H         1 UNK         0.0600 
    164 H164        4.2783  -16.2609  -43.3390 H         1 UNK         0.3000 
    165 H165        4.2346  -16.5423  -39.8284 H         1 UNK         0.0600 
    166 H166        5.9046  -14.7117  -39.8405 H         1 UNK         0.0600 
    167 H167        6.6932  -16.2398  -40.1965 H         1 UNK         0.0600 
    168 H168        6.3653  -15.1022  -41.4983 H         1 UNK         0.0600 
    169 H169        4.0239  -14.2424  -41.4442 H         1 UNK         0.3000 
    170 H170        0.6618  -14.6106  -42.5323 H         1 UNK         0.0600 
    171 H171        0.4847  -13.9343  -40.1291 H         1 UNK         0.0600 
    172 H172        1.8198  -12.8081  -40.3527 H         1 UNK         0.0600 
    173 H173        0.3024  -12.5711  -41.2193 H         1 UNK         0.0600 
    174 H174        1.9647  -12.3338  -42.9308 H         1 UNK         0.3000 
    175 H175        4.3967  -12.3109  -44.8629 H         1 UNK         0.0600 
    176 H176        2.1777  -13.2686  -46.7458 H         1 UNK         0.0600 
    177 H177        3.5366  -12.2444  -47.1956 H         1 UNK         0.0600 
    178 H178        3.8206  -13.9013  -46.6923 H         1 UNK         0.0600 
    179 H179        1.7263  -11.2539  -45.4838 H         1 UNK         0.3000 
    180 H180        2.0241   -8.5319  -43.1788 H         1 UNK         0.0600 
    181 H181        1.9436   -8.7534  -46.2354 H         1 UNK         0.0600 
    182 H182        3.1326   -7.8562  -45.2987 H         1 UNK         0.0600 
    183 H183        1.4491   -7.3542  -45.2845 H         1 UNK         0.0600 
    184 H184        0.0775   -9.8075  -45.0153 H         1 UNK         0.3000 
    185 H185       -2.0271  -10.8975  -42.3986 H         1 UNK         0.0600 
    186 H186       -3.7266   -9.3646  -43.3615 H         1 UNK         0.0600 
    187 H187       -2.6018   -8.4722  -42.3501 H         1 UNK         0.0600 
    188 H188       -2.4602   -8.3846  -44.1017 H         1 UNK         0.0600 
    189 H189       -2.3100  -10.5419  -45.2702 H         1 UNK         0.3000 
    190 H190       -1.6590  -20.4624  -45.4876 H         1 UNK         0.3000 
    191 H191       -4.0110  -20.9571  -46.8916 H         1 UNK         0.0600 
    192 H192       -3.6079  -20.1447  -43.9639 H         1 UNK         0.0600 
    193 H193       -5.0986  -19.9355  -44.8770 H         1 UNK         0.0600 
    194 H194       -3.6585  -19.0519  -45.3453 H         1 UNK         0.0600 
    195 H195       -2.4571  -23.2893  -44.9394 H         1 UNK         0.3000 
    196 H196       -4.8150  -24.7779  -44.1075 H         1 UNK         0.0600 
    197 H197       -3.1777  -26.5372  -43.5636 H         1 UNK         0.0600 
    198 H198       -2.5867  -24.9940  -42.9640 H         1 UNK         0.0600 
    199 H199       -1.9089  -25.6905  -44.4364 H         1 UNK         0.0600 
    200 H200       -3.1182  -24.3185  -47.0982 H         1 UNK         0.3000 
    201 H201       -4.5655  -26.5590  -48.4412 H         1 UNK         0.0600 
    202 H202       -2.1310  -26.8997  -48.6235 H         1 UNK         0.0600 
    203 H203       -1.8736  -25.2144  -49.0579 H         1 UNK         0.0600 
    204 H204       -2.7004  -26.2940  -50.1700 H         1 UNK         0.0600 
    205 H205       -5.0534  -25.8923  -50.7946 H         1 UNK         0.3000 
    206 H206       -5.2853  -23.1466  -51.5036 H         1 UNK         0.0600 
    207 H207       -7.2259  -23.2052  -49.9006 H         1 UNK         0.0600 
    208 H208       -7.8069  -23.0698  -51.5456 H         1 UNK         0.0600 
    209 H209       -7.8745  -24.6233  -50.7215 H         1 UNK         0.0600 
    210 H210       -6.6135  -23.0367  -53.5858 H         1 UNK         0.3000 
    211 H211       -6.8853  -23.5509  -55.7192 H         1 UNK         0.0600 
    212 H212       -8.7448  -24.8988  -54.7814 H         1 UNK         0.0600 
    213 H213       -7.7042  -26.3079  -54.6383 H         1 UNK         0.0600 
    214 H214       -8.1112  -25.6577  -56.2274 H         1 UNK         0.0600 
    215 H215       -6.2598  -26.8198  -56.1013 H         1 UNK         0.3000 
    216 H216       -3.8936  -26.3869  -57.6454 H         1 UNK         0.0600 
    217 H217       -3.9811  -28.8684  -57.9222 H         1 UNK         0.0600 
    218 H218       -5.5608  -28.1462  -58.1785 H         1 UNK         0.0600 
    219 H219       -5.2059  -28.9787  -56.6639 H         1 UNK         0.0600 
    220 H220       -4.3255  -27.1121  -54.2365 H         1 UNK         0.3000 
    221 H221       -1.6366  -28.2518  -53.8927 H         1 UNK         0.0600 
    222 H222       -3.8307  -27.5847  -51.8670 H         1 UNK         0.0600 
    223 H223       -3.5379  -29.1599  -52.5967 H         1 UNK         0.0600 
    224 H224       -2.3403  -28.4530  -51.5253 H         1 UNK         0.0600 
    225 H225       -2.9855  -25.0745  -54.0000 H         1 UNK         0.3000 
    226 H226       -0.4626  -23.8630  -53.2763 H         1 UNK         0.0600 
    227 H227       -1.3259  -24.0432  -50.9834 H         1 UNK         0.0600 
    228 H228       -1.4396  -22.3723  -51.4934 H         1 UNK         0.0600 
    229 H229       -2.8852  -23.3715  -51.4592 H         1 UNK         0.0600 
    230 H230       -0.7689  -23.4849  -55.5465 H         1 UNK         0.3000 
    231 H231       -2.9456  -22.1162  -56.6870 H         1 UNK         0.0600 
    232 H232       -1.3901  -21.8313  -58.6246 H         1 UNK         0.0600 
    233 H233       -1.3150  -23.4621  -57.9787 H         1 UNK         0.0600 
    234 H234       -0.0298  -22.3082  -57.6151 H         1 UNK         0.0600 
    235 H235       -0.4232  -20.8235  -54.7433 H         1 UNK         0.3000 
    236 H236       -0.5105  -18.0758  -55.6596 H         1 UNK         0.0600 
    237 H237        1.5058  -18.9649  -54.5864 H         1 UNK         0.0600 
    238 H238        0.8403  -17.7105  -53.5551 H         1 UNK         0.0600 
    239 H239        0.6093  -19.4049  -53.1368 H         1 UNK         0.0600 
    240 H240       -2.7587  -19.9428  -53.8639 H         1 UNK         0.3000 
    241 H241       -3.7393  -18.0358  -52.0153 H         1 UNK         0.0600 
    242 H242       -5.9617  -15.8427  -53.7159 H         1 UNK         0.3800 
    243 H243       -5.2332  -16.3013  -52.2024 H         1 UNK         0.3800 
    244 H244       -5.4334  -20.1996  -53.3661 H         1 UNK         0.0800 
    245 H245       -4.2369  -20.5911  -52.1758 H         1 UNK         0.0800 
    246 H246       -4.9242  -21.2077  -49.9955 H         1 UNK         0.0800 
    247 H247       -5.9396  -20.2938  -48.9157 H         1 UNK         0.0800 
@<TRIPOS>BOND
     1    1    2 1    
     2    1  127 1    
     3    1  128 1    
     4    1  129 1    
     5    2    3 2    
     6    2    4 am   BACKBONE|DICT|INTERRES
     7    4    5 1    
     8    4  130 1    
     9    5    6 1    
    10    5   65 1    
    11    5  131 1    
    12    6    7 1    
    13    6  132 1    
    14    6  133 1    
    15    7    8 1    
    16    8    9 1    
    17    8  134 1    
    18    8  135 1    
    19    9   10 ar   
    20    9   14 ar   
    21   10   11 ar   
    22   10  136 1    
    23   11   12 ar   
    24   11  126 1    
    25   12   13 ar   
    26   12  137 1    
    27   13   14 ar   
    28   13   15 1    
    29   14  138 1    
    30   15   16 1    
    31   15  139 1    
    32   15  140 1    
    33   16   17 1    
    34   17   18 1    
    35   17  141 1    
    36   17  142 1    
    37   18   19 1    
    38   18   67 1    
    39   18  143 1    
    40   19   20 am   BACKBONE|DICT|INTERRES
    41   19  144 1    
    42   20   21 2    
    43   20   22 1    
    44   22   23 1    
    45   22   24 1    
    46   22  145 1    
    47   23  146 1    
    48   23  147 1    
    49   23  148 1    
    50   24   25 am   BACKBONE|DICT|INTERRES
    51   24  149 1    
    52   25   26 2    
    53   25   27 1    
    54   27   28 1    
    55   27   29 1    
    56   27  150 1    
    57   28  151 1    
    58   28  152 1    
    59   28  153 1    
    60   29   30 am   BACKBONE|DICT|INTERRES
    61   29  154 1    
    62   30   31 2    
    63   30   32 1    
    64   32   33 1    
    65   32   34 1    
    66   32  155 1    
    67   33  156 1    
    68   33  157 1    
    69   33  158 1    
    70   34   35 am   BACKBONE|DICT|INTERRES
    71   34  159 1    
    72   35   36 2    
    73   35   37 1    
    74   37   38 1    
    75   37   39 1    
    76   37  160 1    
    77   38  161 1    
    78   38  162 1    
    79   38  163 1    
    80   39   40 am   BACKBONE|DICT|INTERRES
    81   39  164 1    
    82   40   41 2    
    83   40   42 1    
    84   42   43 1    
    85   42   44 1    
    86   42  165 1    
    87   43  166 1    
    88   43  167 1    
    89   43  168 1    
    90   44   45 am   BACKBONE|DICT|INTERRES
    91   44  169 1    
    92   45   46 2    
    93   45   47 1    
    94   47   48 1    
    95   47   49 1    
    96   47  170 1    
    97   48  171 1    
    98   48  172 1    
    99   48  173 1    
   100   49   50 am   BACKBONE|DICT|INTERRES
   101   49  174 1    
   102   50   51 2    
   103   50   52 1    
   104   52   53 1    
   105   52   54 1    
   106   52  175 1    
   107   53  176 1    
   108   53  177 1    
   109   53  178 1    
   110   54   55 am   BACKBONE|DICT|INTERRES
   111   54  179 1    
   112   55   56 2    
   113   55   57 1    
   114   57   58 1    
   115   57   59 1    
   116   57  180 1    
   117   58  181 1    
   118   58  182 1    
   119   58  183 1    
   120   59   60 am   BACKBONE|DICT|INTERRES
   121   59  184 1    
   122   60   61 2    
   123   60   62 1    
   124   62   63 1    
   125   62   64 1    
   126   62  185 1    
   127   63  186 1    
   128   63  187 1    
   129   63  188 1    
   130   64   65 am   BACKBONE|DICT|INTERRES
   131   64  189 1    
   132   65   66 2    
   133   67   68 2    
   134   67   69 am   BACKBONE|DICT|INTERRES
   135   69   70 1    
   136   69  190 1    
   137   70   71 1    
   138   70   72 1    
   139   70  191 1    
   140   71  192 1    
   141   71  193 1    
   142   71  194 1    
   143   72   73 2    
   144   72   74 am   BACKBONE|DICT|INTERRES
   145   74   75 1    
   146   74  195 1    
   147   75   76 1    
   148   75   77 1    
   149   75  196 1    
   150   76  197 1    
   151   76  198 1    
   152   76  199 1    
   153   77   78 2    
   154   77   79 am   BACKBONE|DICT|INTERRES
   155   79   80 1    
   156   79  200 1    
   157   80   81 1    
   158   80   82 1    
   159   80  201 1    
   160   81  202 1    
   161   81  203 1    
   162   81  204 1    
   163   82   83 2    
   164   82   84 am   BACKBONE|DICT|INTERRES
   165   84   85 1    
   166   84  205 1    
   167   85   86 1    
   168   85   87 1    
   169   85  206 1    
   170   86  207 1    
   171   86  208 1    
   172   86  209 1    
   173   87   88 2    
   174   87   89 am   BACKBONE|DICT|INTERRES
   175   89   90 1    
   176   89  210 1    
   177   90   91 1    
   178   90   92 1    
   179   90  211 1    
   180   91  212 1    
   181   91  213 1    
   182   91  214 1    
   183   92   93 2    
   184   92   94 am   BACKBONE|DICT|INTERRES
   185   94   95 1    
   186   94  215 1    
   187   95   96 1    
   188   95   97 1    
   189   95  216 1    
   190   96  217 1    
   191   96  218 1    
   192   96  219 1    
   193   97   98 2    
   194   97   99 am   BACKBONE|DICT|INTERRES
   195   99  100 1    
   196   99  220 1    
   197  100  101 1    
   198  100  102 1    
   199  100  221 1    
   200  101  222 1    
   201  101  223 1    
   202  101  224 1    
   203  102  103 2    
   204  102  104 am   BACKBONE|DICT|INTERRES
   205  104  105 1    
   206  104  225 1    
   207  105  106 1    
   208  105  107 1    
   209  105  226 1    
   210  106  227 1    
   211  106  228 1    
   212  106  229 1    
   213  107  108 2    
   214  107  109 am   BACKBONE|DICT|INTERRES
   215  109  110 1    
   216  109  230 1    
   217  110  111 1    
   218  110  112 1    
   219  110  231 1    
   220  111  232 1    
   221  111  233 1    
   222  111  234 1    
   223  112  113 2    
   224  112  114 am   BACKBONE|DICT|INTERRES
   225  114  115 1    
   226  114  235 1    
   227  115  116 1    
   228  115  117 1    
   229  115  236 1    
   230  116  237 1    
   231  116  238 1    
   232  116  239 1    
   233  117  118 2    
   234  117  119 am   BACKBONE|DICT|INTERRES
   235  119  120 1    
   236  119  240 1    
   237  120  121 1    
   238  120  124 1    
   239  120  241 1    
   240  121  122 am   BACKBONE|DICT|INTERRES
   241  121  123 2    
   242  122  242 1    
   243  122  243 1    
   244  124  125 1    
   245  124  244 1    
   246  124  245 1    
   247  125  126 1    
   248  126  246 1    
   249  126  247 1    
@<TRIPOS>SUBSTRUCTURE
     1 UNK         1 GROUP             0       ****    0 ROOT    
