@<TRIPOS>MOLECULE
3R540
247   249    1
SMALL
USER_CHARGES


@<TRIPOS>ATOM
      1 CA         -3.7107   -9.5996  -48.5725 C.3       0 UNK        -0.1800 
      2 C          -3.1101  -10.4882  -49.6527 C.2       0 UNK         0.5000 
      3 O          -2.3589  -10.0018  -50.4980 O.2       0 UNK        -0.5000 
      4 N          -3.4435  -11.7844  -49.6289 N.am      1 UNK        -0.5000 
      5 CA         -2.9308  -12.8140  -50.5416 C.3       1 UNK         0.1400 
      6 C6         -3.7423  -14.1329  -50.4405 C.3       23 UNK        -0.0398 
      7 S7         -3.9694  -14.7576  -48.7361 S.3       23 UNK        -0.2404 
      8 C8         -5.1839  -16.0909  -48.9988 C.3       23 UNK        -0.0205 
      9 C9         -4.6293  -17.2339  -49.8391 C.ar      23 UNK        -0.0193 
     10 C10        -5.2389  -17.5828  -51.0476 C.ar      23 UNK        -0.1150 
     11 C11        -4.7328  -18.6334  -51.8174 C.ar      23 UNK        -0.0193 
     12 C12        -3.6174  -19.3406  -51.3622 C.ar      23 UNK        -0.1150 
     13 C13        -2.9845  -18.9997  -50.1646 C.ar      23 UNK        -0.0193 
     14 C14        -3.5089  -17.9472  -49.4024 C.ar      23 UNK        -0.1150 
     15 C15        -1.7322  -19.7850  -49.7697 C.3       23 UNK        -0.0205 
     16 S16        -0.8964  -19.2615  -48.2316 S.3       23 UNK        -0.2404 
     17 C17        -1.9468  -20.0828  -46.9890 C.3       23 UNK        -0.0398 
     18 CA         -1.4469  -21.5132  -46.6883 C.3       11 UNK         0.1400 
     19 N          -0.0692  -21.5639  -46.1892 N.am      11 UNK        -0.5000 
     20 C           0.6796  -22.6733  -46.2000 C.2       10 UNK         0.5000 
     21 O           0.2687  -23.7716  -46.5756 O.2       10 UNK        -0.5000 
     22 CA          2.1206  -22.5334  -45.6925 C.3       10 UNK         0.1400 
     23 CB          2.9616  -21.6758  -46.6518 C.3       10 UNK        -0.1800 
     24 N           2.2020  -21.9751  -44.3447 N.am      10 UNK        -0.5000 
     25 C           1.8000  -22.6001  -43.2303 C.2       9 UNK         0.5000 
     26 O           1.1572  -23.6496  -43.2270 O.2       9 UNK        -0.5000 
     27 CA          2.1913  -21.9449  -41.8974 C.3       9 UNK         0.1400 
     28 CB          3.7070  -21.6939  -41.8046 C.3       9 UNK        -0.1800 
     29 N           1.4835  -20.6812  -41.7442 N.am      9 UNK        -0.5000 
     30 C           0.4552  -20.4774  -40.9116 C.2       8 UNK         0.5000 
     31 O           0.0578  -21.3141  -40.1000 O.2       8 UNK        -0.5000 
     32 CA         -0.2629  -19.1136  -40.9845 C.3       8 UNK         0.1400 
     33 CB          0.0756  -18.2677  -39.7471 C.3       8 UNK        -0.1800 
     34 N           0.0282  -18.3347  -42.1919 N.am      8 UNK        -0.5000 
     35 C          -0.2894  -18.7028  -43.4410 C.2       7 UNK         0.5000 
     36 O          -0.8752  -19.7492  -43.7161 O.2       7 UNK        -0.5000 
     37 CA          0.1889  -17.7875  -44.5814 C.3       7 UNK         0.1400 
     38 CB         -0.8052  -16.6411  -44.8146 C.3       7 UNK        -0.1800 
     39 N           1.5275  -17.2393  -44.3643 N.am      7 UNK        -0.5000 
     40 C           2.6491  -17.9612  -44.2274 C.2       6 UNK         0.5000 
     41 O           2.6776  -19.1921  -44.2197 O.2       6 UNK        -0.5000 
     42 CA          3.9515  -17.1721  -44.0320 C.3       6 UNK         0.1400 
     43 CB          4.4241  -16.5505  -45.3559 C.3       6 UNK        -0.1800 
     44 N           3.7762  -16.1254  -43.0283 N.am      6 UNK        -0.5000 
     45 C           3.8321  -16.3360  -41.7060 C.2       5 UNK         0.5000 
     46 O           4.1158  -17.4206  -41.1969 O.2       5 UNK        -0.5000 
     47 CA          3.5047  -15.1373  -40.7945 C.3       5 UNK         0.1400 
     48 CB          4.7839  -14.3620  -40.4449 C.3       5 UNK        -0.1800 
     49 N           2.5287  -14.2129  -41.3750 N.am      5 UNK        -0.5000 
     50 C           1.2458  -14.5155  -41.6158 C.2       4 UNK         0.5000 
     51 O           0.7443  -15.6140  -41.3825 O.2       4 UNK        -0.5000 
     52 CA          0.3925  -13.4200  -42.2790 C.3       4 UNK         0.1400 
     53 CB         -0.1481  -12.4438  -41.2236 C.3       4 UNK        -0.1800 
     54 N           1.0915  -12.6680  -43.3262 N.am      4 UNK        -0.5000 
     55 C           1.6478  -13.2105  -44.4169 C.2       3 UNK         0.5000 
     56 O           1.7489  -14.4244  -44.6070 O.2       3 UNK        -0.5000 
     57 CA          2.2032  -12.2381  -45.4714 C.3       3 UNK         0.1400 
     58 CB          3.7334  -12.1542  -45.3644 C.3       3 UNK        -0.1800 
     59 N           1.8382  -12.6665  -46.8227 N.am      3 UNK        -0.5000 
     60 C           0.5818  -12.7331  -47.2818 C.2       2 UNK         0.5000 
     61 O          -0.4024  -12.3364  -46.6489 O.2       2 UNK        -0.5000 
     62 CA          0.3966  -13.3534  -48.6742 C.3       2 UNK         0.1400 
     63 CB          0.6786  -14.8683  -48.6582 C.3       2 UNK        -0.1800 
     64 N          -0.9760  -13.1220  -49.1021 N.am      2 UNK        -0.5000 
     65 C          -1.4151  -13.0554  -50.3622 C.2       1 UNK         0.5000 
     66 O          -0.6816  -13.1325  -51.3486 O.2       1 UNK        -0.5000 
     67 C          -2.4171  -22.2675  -45.7654 C.2       11 UNK         0.5000 
     68 O          -3.3672  -22.8656  -46.2664 O.2       11 UNK        -0.5000 
     69 N          -2.1373  -22.2755  -44.4558 N.am      12 UNK        -0.5000 
     70 CA         -2.8466  -23.0718  -43.4570 C.3       12 UNK         0.1400 
     71 CB         -2.3512  -22.6912  -42.0555 C.3       12 UNK        -0.1800 
     72 C          -2.6994  -24.5856  -43.7001 C.2       12 UNK         0.5000 
     73 O          -3.6993  -25.3023  -43.6545 O.2       12 UNK        -0.5000 
     74 N          -1.4705  -25.0384  -43.9921 N.am      13 UNK        -0.5000 
     75 CA         -1.1636  -26.4307  -44.3280 C.3       13 UNK         0.1400 
     76 CB          0.3567  -26.6478  -44.2958 C.3       13 UNK        -0.1800 
     77 C          -1.7452  -26.8571  -45.6885 C.2       13 UNK         0.5000 
     78 O          -2.2596  -27.9697  -45.8071 O.2       13 UNK        -0.5000 
     79 N          -1.6712  -25.9613  -46.6826 N.am      14 UNK        -0.5000 
     80 CA         -2.2104  -26.1670  -48.0294 C.3       14 UNK         0.1400 
     81 CB         -1.5747  -25.1392  -48.9793 C.3       14 UNK        -0.1800 
     82 C          -3.7482  -26.0750  -48.1051 C.2       14 UNK         0.5000 
     83 O          -4.3231  -26.5178  -49.0989 O.2       14 UNK        -0.5000 
     84 N          -4.3749  -25.4755  -47.0820 N.am      15 UNK        -0.5000 
     85 CA         -5.7942  -25.1177  -46.9854 C.3       15 UNK         0.1400 
     86 CB         -6.6857  -26.3766  -46.9536 C.3       15 UNK        -0.1800 
     87 C          -6.2093  -24.0939  -48.0654 C.2       15 UNK         0.5000 
     88 O          -7.2800  -24.2203  -48.6622 O.2       15 UNK        -0.5000 
     89 N          -5.3306  -23.1032  -48.2898 N.am      16 UNK        -0.5000 
     90 CA         -5.4187  -22.0215  -49.2779 C.3       16 UNK         0.1400 
     91 CB         -6.4757  -20.9841  -48.8500 C.3       16 UNK        -0.1800 
     92 C          -5.6221  -22.5430  -50.7167 C.2       16 UNK         0.5000 
     93 O          -6.5555  -22.1270  -51.4065 O.2       16 UNK        -0.5000 
     94 N          -4.7547  -23.4820  -51.1219 N.am      17 UNK        -0.5000 
     95 CA         -4.7597  -24.1251  -52.4368 C.3       17 UNK         0.1400 
     96 CB         -3.6773  -25.2144  -52.4686 C.3       17 UNK        -0.1800 
     97 C          -4.5468  -23.1282  -53.5909 C.2       17 UNK         0.5000 
     98 O          -3.7751  -22.1768  -53.4488 O.2       17 UNK        -0.5000 
     99 N          -5.2254  -23.3812  -54.7169 N.am      18 UNK        -0.5000 
    100 CA        -5.1954  -22.5507  -55.9193 C.3       18 UNK         0.1400 
    101 CB        -6.1571  -23.1369  -56.9645 C.3       18 UNK        -0.1800 
    102 C         -3.7770  -22.4056  -56.5006 C.2       18 UNK         0.5000 
    103 O         -3.1130  -23.4121  -56.7578 O.2       18 UNK        -0.5000 
    104 N         -3.3588  -21.1478  -56.6840 N.am      19 UNK        -0.5000 
    105 CA        -2.0645  -20.6921  -57.1965 C.3       19 UNK         0.1400 
    106 CB        -1.8416  -21.1750  -58.6456 C.3       19 UNK        -0.1800 
    107 C         -0.8622  -20.9964  -56.2753 C.2       19 UNK         0.5000 
    108 O          0.2762  -20.9126  -56.7399 O.2       19 UNK        -0.5000 
    109 N         -1.1052  -21.3138  -54.9923 N.am      20 UNK        -0.5000 
    110 CA        -0.0475  -21.5416  -54.0023 C.3       20 UNK         0.1400 
    111 CB        -0.6243  -22.2302  -52.7555 C.3       20 UNK        -0.1800 
    112 C          0.6816  -20.2376  -53.6301 C.2       20 UNK         0.5000 
    113 O          1.9098  -20.1855  -53.7018 O.2       20 UNK        -0.5000 
    114 N         -0.0988  -19.2084  -53.2779 N.am      21 UNK        -0.5000 
    115 CA         0.3423  -17.8515  -52.9508 C.3       21 UNK         0.1400 
    116 CB         1.2351  -17.8205  -51.6879 C.3       21 UNK        -0.1800 
    117 C         -0.9043  -16.9623  -52.8113 C.2       21 UNK         0.5000 
    118 O         -1.0872  -16.3102  -51.7849 O.2       21 UNK        -0.5000 
    119 N         -1.7746  -16.9981  -53.8297 N.am      22 UNK        -0.5000 
    120 CA        -3.0792  -16.3107  -53.8168 C.3       22 UNK         0.1400 
    121 C         -3.0179  -14.7794  -54.0896 C.2       22 UNK         0.5000 
    122 N         -1.8920  -14.2229  -54.5172 N.am      22 UNK        -0.7600 
    123 O         -4.0098  -14.0817  -53.8992 O.2       22 UNK        -0.5000 
    124 C124       -4.1279  -16.9916  -54.7360 C.3       23 UNK        -0.0398 
    125 S125       -4.2294  -18.8051  -54.5469 S.3       23 UNK        -0.2404 
    126 C126       -5.3784  -19.0033  -53.1453 C.3       23 UNK        -0.0205 
    127 H127       -4.3613  -10.1607  -47.9010 H         1 UNK         0.0600 
    128 H128       -4.2978   -8.8010  -49.0264 H         1 UNK         0.0600 
    129 H129       -2.9182   -9.1461  -47.9769 H         1 UNK         0.0600 
    130 H130       -4.0635  -12.1247  -48.9071 H         1 UNK         0.3000 
    131 H131       -3.0634  -12.4357  -51.5579 H         1 UNK         0.0600 
    132 H132       -4.7284  -13.9798  -50.8808 H         1 UNK         0.0800 
    133 H133       -3.2717  -14.9166  -51.0337 H         1 UNK         0.0800 
    134 H134       -5.4866  -16.4857  -48.0282 H         1 UNK         0.0800 
    135 H135       -6.0828  -15.6709  -49.4527 H         1 UNK         0.0800 
    136 H136       -6.1024  -17.0321  -51.3930 H         1 UNK         0.1150 
    137 H137       -3.2286  -20.1497  -51.9624 H         1 UNK         0.1150 
    138 H138       -3.0447  -17.6535  -48.4731 H         1 UNK         0.1150 
    139 H139       -1.9799  -20.8448  -49.7020 H         1 UNK         0.0800 
    140 H140       -1.0111  -19.7002  -50.5814 H         1 UNK         0.0800 
    141 H141       -2.9759  -20.1014  -47.3530 H         1 UNK         0.0800 
    142 H142       -1.9609  -19.4740  -46.0856 H         1 UNK         0.0800 
    143 H143       -1.4577  -22.0537  -47.6364 H         1 UNK         0.0600 
    144 H144        0.3218  -20.7066  -45.8290 H         1 UNK         0.3000 
    145 H145        2.5575  -23.5340  -45.6663 H         1 UNK         0.0600 
    146 H146        4.0082  -21.6578  -46.3472 H         1 UNK         0.0600 
    147 H147        2.9252  -22.0741  -47.6666 H         1 UNK         0.0600 
    148 H148        2.6090  -20.6442  -46.6907 H         1 UNK         0.0600 
    149 H149        2.6279  -21.0552  -44.2649 H         1 UNK         0.3000 
    150 H150        1.9236  -22.6413  -41.1000 H         1 UNK         0.0600 
    151 H151        4.2671  -22.6135  -41.9784 H         1 UNK         0.0600 
    152 H152        3.9798  -21.3298  -40.8141 H         1 UNK         0.0600 
    153 H153        4.0494  -20.9558  -42.5308 H         1 UNK         0.0600 
    154 H154        1.7260  -19.9501  -42.4011 H         1 UNK         0.3000 
    155 H155       -1.3353  -19.3181  -40.9741 H         1 UNK         0.0600 
    156 H156        1.1270  -17.9769  -39.7371 H         1 UNK         0.0600 
    157 H157       -0.5252  -17.3587  -39.7156 H         1 UNK         0.0600 
    158 H158       -0.1239  -18.8164  -38.8257 H         1 UNK         0.0600 
    159 H159        0.4791  -17.4355  -42.0459 H         1 UNK         0.3000 
    160 H160        0.2335  -18.3880  -45.4910 H         1 UNK         0.0600 
    161 H161       -0.5018  -16.0204  -45.6576 H         1 UNK         0.0600 
    162 H162       -0.8860  -15.9973  -43.9387 H         1 UNK         0.0600 
    163 H163       -1.8017  -17.0254  -45.0357 H         1 UNK         0.0600 
    164 H164        1.6038  -16.2239  -44.3744 H         1 UNK         0.3000 
    165 H165        4.7221  -17.8691  -43.6952 H         1 UNK         0.0600 
    166 H166        5.3665  -16.0186  -45.2258 H         1 UNK         0.0600 
    167 H167        4.5872  -17.3219  -46.1096 H         1 UNK         0.0600 
    168 H168        3.6969  -15.8468  -45.7617 H         1 UNK         0.0600 
    169 H169        3.4659  -15.2239  -43.3644 H         1 UNK         0.3000 
    170 H170        3.0819  -15.5348  -39.8693 H         1 UNK         0.0600 
    171 H171        5.2403  -13.9177  -41.3305 H         1 UNK         0.0600 
    172 H172        4.5785  -13.5612  -39.7343 H         1 UNK         0.0600 
    173 H173        5.5256  -15.0182  -39.9875 H         1 UNK         0.0600 
    174 H174        2.8581  -13.2889  -41.6126 H         1 UNK         0.3000 
    175 H175       -0.4604  -13.9128  -42.7493 H         1 UNK         0.0600 
    176 H176       -0.8426  -11.7293  -41.6658 H         1 UNK         0.0600 
    177 H177        0.6546  -11.8810  -40.7455 H         1 UNK         0.0600 
    178 H178       -0.6883  -12.9762  -40.4394 H         1 UNK         0.0600 
    179 H179        1.0630  -11.6620  -43.2449 H         1 UNK         0.3000 
    180 H180        1.7832  -11.2444  -45.3020 H         1 UNK         0.0600 
    181 H181        4.2040  -13.1226  -45.5408 H         1 UNK         0.0600 
    182 H182        4.0381  -11.8174  -44.3726 H         1 UNK         0.0600 
    183 H183        4.1414  -11.4463  -46.0861 H         1 UNK         0.0600 
    184 H184        2.5861  -13.0364  -47.3903 H         1 UNK         0.3000 
    185 H185        1.0828  -12.8556  -49.3623 H         1 UNK         0.0600 
    186 H186        0.0006  -15.3947  -47.9855 H         1 UNK         0.0600 
    187 H187        0.5583  -15.3019  -49.6512 H         1 UNK         0.0600 
    188 H188        1.6972  -15.0822  -48.3330 H         1 UNK         0.0600 
    189 H189       -1.6259  -12.9680  -48.3413 H         1 UNK         0.3000 
    190 H190       -1.3858  -21.6804  -44.1241 H         1 UNK         0.3000 
    191 H191       -3.9077  -22.8224  -43.5237 H         1 UNK         0.0600 
    192 H192       -2.4952  -21.6282  -41.8610 H         1 UNK         0.0600 
    193 H193       -2.8943  -23.2405  -41.2857 H         1 UNK         0.0600 
    194 H194       -1.2910  -22.9140  -41.9315 H         1 UNK         0.0600 
    195 H195       -0.6876  -24.3937  -43.9813 H         1 UNK         0.3000 
    196 H196       -1.6104  -27.0687  -43.5626 H         1 UNK         0.0600 
    197 H197        0.6107  -27.6795  -44.5422 H         1 UNK         0.0600 
    198 H198        0.7620  -26.4414  -43.3051 H         1 UNK         0.0600 
    199 H199        0.8717  -26.0023  -45.0082 H         1 UNK         0.0600 
    200 H200       -1.1610  -25.0969  -46.5228 H         1 UNK         0.3000 
    201 H201       -1.9232  -27.1653  -48.3661 H         1 UNK         0.0600 
    202 H202       -0.4864  -25.1983  -48.9555 H         1 UNK         0.0600 
    203 H203       -1.8611  -24.1207  -48.7182 H         1 UNK         0.0600 
    204 H204       -1.8844  -25.3152  -50.0093 H         1 UNK         0.0600 
    205 H205       -3.7927  -25.1047  -46.3422 H         1 UNK         0.3000 
    206 H206       -5.9110  -24.6100  -46.0267 H         1 UNK         0.0600 
    207 H207       -6.3595  -27.0695  -46.1780 H         1 UNK         0.0600 
    208 H208       -7.7221  -26.1139  -46.7389 H         1 UNK         0.0600 
    209 H209       -6.6752  -26.9083  -47.9053 H         1 UNK         0.0600 
    210 H210       -4.5139  -23.0792  -47.6826 H         1 UNK         0.3000 
    211 H211       -4.4507  -21.5194  -49.2697 H         1 UNK         0.0600 
    212 H212       -7.4800  -21.4087  -48.8426 H         1 UNK         0.0600 
    213 H213       -6.4824  -20.1323  -49.5315 H         1 UNK         0.0600 
    214 H214       -6.2658  -20.5977  -47.8527 H         1 UNK         0.0600 
    215 H215       -4.0360  -23.7818  -50.4821 H         1 UNK         0.3000 
    216 H216       -5.7342  -24.6014  -52.5631 H         1 UNK         0.0600 
    217 H217       -3.6531  -25.7150  -53.4375 H         1 UNK         0.0600 
    218 H218       -3.8636  -25.9798  -51.7158 H         1 UNK         0.0600 
    219 H219       -2.6850  -24.8002  -52.2902 H         1 UNK         0.0600 
    220 H220       -5.8075  -24.2044  -54.7609 H         1 UNK         0.3000 
    221 H221       -5.5655  -21.5625  -55.6375 H         1 UNK         0.0600 
    222 H222       -5.8676  -24.1475  -57.2558 H         1 UNK         0.0600 
    223 H223       -7.1785  -23.1753  -56.5853 H         1 UNK         0.0600 
    224 H224       -6.1697  -22.5260  -57.8682 H         1 UNK         0.0600 
    225 H225       -3.9722  -20.4030  -56.3783 H         1 UNK         0.3000 
    226 H226       -2.1339  -19.6039  -57.2286 H         1 UNK         0.0600 
    227 H227       -2.6985  -20.9394  -59.2767 H         1 UNK         0.0600 
    228 H228       -0.9717  -20.6910  -59.0913 H         1 UNK         0.0600 
    229 H229       -1.6740  -22.2512  -58.6939 H         1 UNK         0.0600 
    230 H230       -2.0632  -21.3994  -54.6723 H         1 UNK         0.3000 
    231 H231        0.6880  -22.2197  -54.4407 H         1 UNK         0.0600 
    232 H232       -1.3963  -21.6290  -52.2768 H         1 UNK         0.0600 
    233 H233        0.1543  -22.4148  -52.0143 H         1 UNK         0.0600 
    234 H234       -1.0632  -23.1936  -53.0124 H         1 UNK         0.0600 
    235 H235       -1.0999  -19.3472  -53.2650 H         1 UNK         0.3000 
    236 H236        0.9213  -17.4671  -53.7926 H         1 UNK         0.0600 
    237 H237        1.5542  -16.8013  -51.4670 H         1 UNK         0.0600 
    238 H238        0.7102  -18.1914  -50.8085 H         1 UNK         0.0600 
    239 H239        2.1415  -18.4116  -51.8103 H         1 UNK         0.0600 
    240 H240       -1.5625  -17.5419  -54.6525 H         1 UNK         0.3000 
    241 H241       -3.4651  -16.3940  -52.8022 H         1 UNK         0.0600 
    242 H242       -1.8588  -13.2289  -54.6786 H         1 UNK         0.3800 
    243 H243       -1.0642  -14.7798  -54.6530 H         1 UNK         0.3800 
    244 H244       -5.1187  -16.5673  -54.5640 H         1 UNK         0.0800 
    245 H245       -3.8922  -16.7890  -55.7820 H         1 UNK         0.0800 
    246 H246       -5.6936  -20.0465  -53.0990 H         1 UNK         0.0800 
    247 H247       -6.2807  -18.4173  -53.3251 H         1 UNK         0.0800 
@<TRIPOS>BOND
     1    1    2 1    
     2    1  127 1    
     3    1  128 1    
     4    1  129 1    
     5    2    3 2    
     6    2    4 am   BACKBONE|DICT|INTERRES
     7    4    5 1    
     8    4  130 1    
     9    5    6 1    
    10    5   65 1    
    11    5  131 1    
    12    6    7 1    
    13    6  132 1    
    14    6  133 1    
    15    7    8 1    
    16    8    9 1    
    17    8  134 1    
    18    8  135 1    
    19    9   10 ar   
    20    9   14 ar   
    21   10   11 ar   
    22   10  136 1    
    23   11   12 ar   
    24   11  126 1    
    25   12   13 ar   
    26   12  137 1    
    27   13   14 ar   
    28   13   15 1    
    29   14  138 1    
    30   15   16 1    
    31   15  139 1    
    32   15  140 1    
    33   16   17 1    
    34   17   18 1    
    35   17  141 1    
    36   17  142 1    
    37   18   19 1    
    38   18   67 1    
    39   18  143 1    
    40   19   20 am   BACKBONE|DICT|INTERRES
    41   19  144 1    
    42   20   21 2    
    43   20   22 1    
    44   22   23 1    
    45   22   24 1    
    46   22  145 1    
    47   23  146 1    
    48   23  147 1    
    49   23  148 1    
    50   24   25 am   BACKBONE|DICT|INTERRES
    51   24  149 1    
    52   25   26 2    
    53   25   27 1    
    54   27   28 1    
    55   27   29 1    
    56   27  150 1    
    57   28  151 1    
    58   28  152 1    
    59   28  153 1    
    60   29   30 am   BACKBONE|DICT|INTERRES
    61   29  154 1    
    62   30   31 2    
    63   30   32 1    
    64   32   33 1    
    65   32   34 1    
    66   32  155 1    
    67   33  156 1    
    68   33  157 1    
    69   33  158 1    
    70   34   35 am   BACKBONE|DICT|INTERRES
    71   34  159 1    
    72   35   36 2    
    73   35   37 1    
    74   37   38 1    
    75   37   39 1    
    76   37  160 1    
    77   38  161 1    
    78   38  162 1    
    79   38  163 1    
    80   39   40 am   BACKBONE|DICT|INTERRES
    81   39  164 1    
    82   40   41 2    
    83   40   42 1    
    84   42   43 1    
    85   42   44 1    
    86   42  165 1    
    87   43  166 1    
    88   43  167 1    
    89   43  168 1    
    90   44   45 am   BACKBONE|DICT|INTERRES
    91   44  169 1    
    92   45   46 2    
    93   45   47 1    
    94   47   48 1    
    95   47   49 1    
    96   47  170 1    
    97   48  171 1    
    98   48  172 1    
    99   48  173 1    
   100   49   50 am   BACKBONE|DICT|INTERRES
   101   49  174 1    
   102   50   51 2    
   103   50   52 1    
   104   52   53 1    
   105   52   54 1    
   106   52  175 1    
   107   53  176 1    
   108   53  177 1    
   109   53  178 1    
   110   54   55 am   BACKBONE|DICT|INTERRES
   111   54  179 1    
   112   55   56 2    
   113   55   57 1    
   114   57   58 1    
   115   57   59 1    
   116   57  180 1    
   117   58  181 1    
   118   58  182 1    
   119   58  183 1    
   120   59   60 am   BACKBONE|DICT|INTERRES
   121   59  184 1    
   122   60   61 2    
   123   60   62 1    
   124   62   63 1    
   125   62   64 1    
   126   62  185 1    
   127   63  186 1    
   128   63  187 1    
   129   63  188 1    
   130   64   65 am   BACKBONE|DICT|INTERRES
   131   64  189 1    
   132   65   66 2    
   133   67   68 2    
   134   67   69 am   BACKBONE|DICT|INTERRES
   135   69   70 1    
   136   69  190 1    
   137   70   71 1    
   138   70   72 1    
   139   70  191 1    
   140   71  192 1    
   141   71  193 1    
   142   71  194 1    
   143   72   73 2    
   144   72   74 am   BACKBONE|DICT|INTERRES
   145   74   75 1    
   146   74  195 1    
   147   75   76 1    
   148   75   77 1    
   149   75  196 1    
   150   76  197 1    
   151   76  198 1    
   152   76  199 1    
   153   77   78 2    
   154   77   79 am   BACKBONE|DICT|INTERRES
   155   79   80 1    
   156   79  200 1    
   157   80   81 1    
   158   80   82 1    
   159   80  201 1    
   160   81  202 1    
   161   81  203 1    
   162   81  204 1    
   163   82   83 2    
   164   82   84 am   BACKBONE|DICT|INTERRES
   165   84   85 1    
   166   84  205 1    
   167   85   86 1    
   168   85   87 1    
   169   85  206 1    
   170   86  207 1    
   171   86  208 1    
   172   86  209 1    
   173   87   88 2    
   174   87   89 am   BACKBONE|DICT|INTERRES
   175   89   90 1    
   176   89  210 1    
   177   90   91 1    
   178   90   92 1    
   179   90  211 1    
   180   91  212 1    
   181   91  213 1    
   182   91  214 1    
   183   92   93 2    
   184   92   94 am   BACKBONE|DICT|INTERRES
   185   94   95 1    
   186   94  215 1    
   187   95   96 1    
   188   95   97 1    
   189   95  216 1    
   190   96  217 1    
   191   96  218 1    
   192   96  219 1    
   193   97   98 2    
   194   97   99 am   BACKBONE|DICT|INTERRES
   195   99  100 1    
   196   99  220 1    
   197  100  101 1    
   198  100  102 1    
   199  100  221 1    
   200  101  222 1    
   201  101  223 1    
   202  101  224 1    
   203  102  103 2    
   204  102  104 am   BACKBONE|DICT|INTERRES
   205  104  105 1    
   206  104  225 1    
   207  105  106 1    
   208  105  107 1    
   209  105  226 1    
   210  106  227 1    
   211  106  228 1    
   212  106  229 1    
   213  107  108 2    
   214  107  109 am   BACKBONE|DICT|INTERRES
   215  109  110 1    
   216  109  230 1    
   217  110  111 1    
   218  110  112 1    
   219  110  231 1    
   220  111  232 1    
   221  111  233 1    
   222  111  234 1    
   223  112  113 2    
   224  112  114 am   BACKBONE|DICT|INTERRES
   225  114  115 1    
   226  114  235 1    
   227  115  116 1    
   228  115  117 1    
   229  115  236 1    
   230  116  237 1    
   231  116  238 1    
   232  116  239 1    
   233  117  118 2    
   234  117  119 am   BACKBONE|DICT|INTERRES
   235  119  120 1    
   236  119  240 1    
   237  120  121 1    
   238  120  124 1    
   239  120  241 1    
   240  121  122 am   BACKBONE|DICT|INTERRES
   241  121  123 2    
   242  122  242 1    
   243  122  243 1    
   244  124  125 1    
   245  124  244 1    
   246  124  245 1    
   247  125  126 1    
   248  126  246 1    
   249  126  247 1    
@<TRIPOS>SUBSTRUCTURE
     1 UNK         1 GROUP             0       ****    0 ROOT    
