@<TRIPOS>MOLECULE
3R540
247   249    1
SMALL
USER_CHARGES


@<TRIPOS>ATOM
      1 CA         -0.5662  -13.1540  -42.9117 C.3       0 UNK        -0.1800 
      2 C          -1.2422  -12.2191  -43.9043 C.2       0 UNK         0.5000 
      3 O          -1.9522  -11.3008  -43.4956 O.2       0 UNK        -0.5000 
      4 N          -1.0189  -12.4448  -45.2060 N.am      1 UNK        -0.5000 
      5 CA         -1.5801  -11.6572  -46.3159 C.3       1 UNK         0.1400 
      6 C6         -1.3884  -12.3574  -47.6841 C.3       23 UNK        -0.0398 
      7 S7         -2.0391  -14.0606  -47.7200 S.3       23 UNK        -0.2404 
      8 C8         -1.0919  -14.7320  -49.1213 C.3       23 UNK        -0.0205 
      9 C9         -1.2905  -16.2318  -49.2658 C.ar      23 UNK        -0.0193 
     10 C10        -2.4951  -16.7307  -49.7681 C.ar      23 UNK        -0.1150 
     11 C11        -2.6818  -18.1053  -49.9356 C.ar      23 UNK        -0.0193 
     12 C12        -1.6501  -18.9834  -49.5905 C.ar      23 UNK        -0.1150 
     13 C13        -0.4453  -18.4995  -49.0722 C.ar      23 UNK        -0.0193 
     14 C14        -0.2688  -17.1215  -48.9173 C.ar      23 UNK        -0.1150 
     15 C15         0.6654  -19.4669  -48.6918 C.3       23 UNK        -0.0205 
     16 S16         0.7671  -19.6860  -46.8860 S.3       23 UNK        -0.2404 
     17 C17         1.3622  -21.4076  -46.7572 C.3       23 UNK        -0.0398 
     18 CA          0.2947  -22.4512  -46.3355 C.3       11 UNK         0.1400 
     19 N          -0.1851  -22.2858  -44.9581 N.am      11 UNK        -0.5000 
     20 C          -0.7808  -23.2730  -44.2693 C.2       10 UNK         0.5000 
     21 O          -0.9784  -24.3978  -44.7283 O.2       10 UNK        -0.5000 
     22 CA         -1.2673  -22.9542  -42.8453 C.3       10 UNK         0.1400 
     23 CB         -0.0978  -23.0011  -41.8506 C.3       10 UNK        -0.1800 
     24 N          -1.9421  -21.6628  -42.7372 N.am      10 UNK        -0.5000 
     25 C          -3.0755  -21.3213  -43.3683 C.2       9 UNK         0.5000 
     26 O          -3.6835  -22.0689  -44.1327 O.2       9 UNK        -0.5000 
     27 CA         -3.5981  -19.8905  -43.1226 C.3       9 UNK         0.1400 
     28 CB         -4.6237  -19.8802  -41.9796 C.3       9 UNK        -0.1800 
     29 N          -2.5165  -18.9496  -42.8139 N.am      9 UNK        -0.5000 
     30 C          -1.5816  -18.5896  -43.7015 C.2       8 UNK         0.5000 
     31 O          -1.6240  -18.9053  -44.8920 O.2       8 UNK        -0.5000 
     32 CA         -0.3713  -17.8232  -43.1506 C.3       8 UNK         0.1400 
     33 CB          0.4902  -18.7512  -42.2660 C.3       8 UNK        -0.1800 
     34 N           0.4168  -17.3211  -44.2715 N.am      8 UNK        -0.5000 
     35 C           1.4188  -16.4440  -44.1828 C.2       7 UNK         0.5000 
     36 O           1.7968  -15.9436  -43.1189 O.2       7 UNK        -0.5000 
     37 CA          2.1099  -16.0503  -45.4966 C.3       7 UNK         0.1400 
     38 CB          1.3112  -14.9771  -46.2486 C.3       7 UNK        -0.1800 
     39 N           3.4214  -15.5223  -45.1612 N.am      7 UNK        -0.5000 
     40 C           4.5434  -15.6364  -45.8774 C.2       6 UNK         0.5000 
     41 O           4.5919  -16.1038  -47.0155 O.2       6 UNK        -0.5000 
     42 CA          5.8394  -15.1796  -45.1757 C.3       6 UNK         0.1400 
     43 CB          6.1207  -13.6991  -45.4749 C.3       6 UNK        -0.1800 
     44 N           5.7710  -15.3659  -43.7242 N.am      6 UNK        -0.5000 
     45 C           5.7107  -16.5479  -43.0965 C.2       5 UNK         0.5000 
     46 O           5.8958  -17.6262  -43.6613 O.2       5 UNK        -0.5000 
     47 CA          5.3136  -16.5378  -41.6064 C.3       5 UNK         0.1400 
     48 CB          6.5478  -16.4259  -40.6907 C.3       5 UNK        -0.1800 
     49 N           4.2813  -15.5428  -41.2718 N.am      5 UNK        -0.5000 
     50 C           4.3848  -14.2085  -41.2311 C.2       4 UNK         0.5000 
     51 O           5.4315  -13.5937  -41.4515 O.2       4 UNK        -0.5000 
     52 CA          3.0936  -13.4358  -40.9026 C.3       4 UNK         0.1400 
     53 CB          2.8729  -13.3734  -39.3835 C.3       4 UNK        -0.1800 
     54 N           3.1401  -12.0725  -41.4294 N.am      4 UNK        -0.5000 
     55 C           3.0544  -11.7587  -42.7265 C.2       3 UNK         0.5000 
     56 O           2.8284  -12.5751  -43.6250 O.2       3 UNK        -0.5000 
     57 CA          3.2693  -10.2824  -43.0808 C.3       3 UNK         0.1400 
     58 CB          4.7552   -9.9898  -43.3478 C.3       3 UNK        -0.1800 
     59 N           2.4876   -9.9866  -44.2736 N.am      3 UNK        -0.5000 
     60 C           1.8743   -8.8256  -44.5349 C.2       2 UNK         0.5000 
     61 O           1.9822   -7.8197  -43.8327 O.2       2 UNK        -0.5000 
     62 CA          0.9498   -8.7978  -45.7607 C.3       2 UNK         0.1400 
     63 CB          1.7380   -8.5219  -47.0525 C.3       2 UNK        -0.1800 
     64 N           0.2260  -10.0624  -45.8673 N.am      2 UNK        -0.5000 
     65 C          -0.9960  -10.2281  -46.3844 C.2       1 UNK         0.5000 
     66 O          -1.6527   -9.3227  -46.9006 O.2       1 UNK        -0.5000 
     67 C          -0.8756  -22.5677  -47.3339 C.2       11 UNK         0.5000 
     68 O          -0.7920  -23.3643  -48.2674 O.2       11 UNK        -0.5000 
     69 N          -1.9647  -21.8238  -47.0863 N.am      12 UNK        -0.5000 
     70 CA         -3.2121  -21.9052  -47.8452 C.3       12 UNK         0.1400 
     71 CB         -4.1484  -20.7601  -47.4314 C.3       12 UNK        -0.1800 
     72 C          -3.8998  -23.2710  -47.6868 C.2       12 UNK         0.5000 
     73 O          -4.3384  -23.8424  -48.6848 O.2       12 UNK        -0.5000 
     74 N          -3.9390  -23.7865  -46.4500 N.am      13 UNK        -0.5000 
     75 CA         -4.4552  -25.1128  -46.1151 C.3       13 UNK         0.1400 
     76 CB         -4.5356  -25.2688  -44.5892 C.3       13 UNK        -0.1800 
     77 C          -3.6240  -26.2462  -46.7416 C.2       13 UNK         0.5000 
     78 O          -4.2033  -27.1683  -47.3153 O.2       13 UNK        -0.5000 
     79 N          -2.2889  -26.1390  -46.6654 N.am      14 UNK        -0.5000 
     80 CA         -1.3409  -27.0813  -47.2686 C.3       14 UNK         0.1400 
     81 CB          0.0855  -26.7374  -46.8148 C.3       14 UNK        -0.1800 
     82 C          -1.4253  -27.1195  -48.8065 C.2       14 UNK         0.5000 
     83 O          -1.3320  -28.1959  -49.3969 O.2       14 UNK        -0.5000 
     84 N          -1.6382  -25.9488  -49.4207 N.am      15 UNK        -0.5000 
     85 CA         -1.8709  -25.7793  -50.8552 C.3       15 UNK         0.1400 
     86 CB         -1.6207  -24.3055  -51.2104 C.3       15 UNK        -0.1800 
     87 C          -3.2865  -26.1913  -51.3089 C.2       15 UNK         0.5000 
     88 O          -3.5358  -26.2428  -52.5155 O.2       15 UNK        -0.5000 
     89 N          -4.1968  -26.4116  -50.3460 N.am      16 UNK        -0.5000 
     90 CA         -5.6374  -26.6404  -50.5078 C.3       16 UNK         0.1400 
     91 CB         -5.8944  -28.0289  -51.1274 C.3       16 UNK        -0.1800 
     92 C          -6.3265  -25.4980  -51.2854 C.2       16 UNK         0.5000 
     93 O          -7.2308  -25.7492  -52.0842 O.2       16 UNK        -0.5000 
     94 N          -5.8246  -24.2689  -51.0856 N.am      17 UNK        -0.5000 
     95 CA         -6.0642  -23.0226  -51.8233 C.3       17 UNK         0.1400 
     96 CB         -7.5277  -22.5650  -51.6888 C.3       17 UNK        -0.1800 
     97 C          -5.6265  -23.0592  -53.3039 C.2       17 UNK         0.5000 
     98 O          -5.0087  -22.1036  -53.7747 O.2       17 UNK        -0.5000 
     99 N          -5.9496  -24.1496  -54.0076 N.am      18 UNK        -0.5000 
    100 CA        -5.7562  -24.3693  -55.4383 C.3       18 UNK         0.1400 
    101 CB        -6.3120  -25.7516  -55.8121 C.3       18 UNK        -0.1800 
    102 C         -4.3027  -24.2236  -55.9161 C.2       18 UNK         0.5000 
    103 O         -4.0686  -23.5369  -56.9109 O.2       18 UNK        -0.5000 
    104 N         -3.3465  -24.8311  -55.1971 N.am      19 UNK        -0.5000 
    105 CA        -1.9246  -24.7959  -55.5645 C.3       19 UNK         0.1400 
    106 CB        -1.1689  -25.9192  -54.8392 C.3       19 UNK        -0.1800 
    107 C         -1.2607  -23.4257  -55.3169 C.2       19 UNK         0.5000 
    108 O         -0.2152  -23.1464  -55.9041 O.2       19 UNK        -0.5000 
    109 N         -1.8889  -22.5904  -54.4790 N.am      20 UNK        -0.5000 
    110 CA        -1.4988  -21.2040  -54.2217 C.3       20 UNK         0.1400 
    111 CB        -1.7901  -20.8813  -52.7463 C.3       20 UNK        -0.1800 
    112 C         -2.2217  -20.2133  -55.1592 C.2       20 UNK         0.5000 
    113 O         -1.9230  -19.0198  -55.1120 O.2       20 UNK        -0.5000 
    114 N         -3.1562  -20.7184  -55.9823 N.am      21 UNK        -0.5000 
    115 CA        -4.0636  -19.9861  -56.8723 C.3       21 UNK         0.1400 
    116 CB        -3.2848  -19.2401  -57.9759 C.3       21 UNK        -0.1800 
    117 C         -5.0586  -19.0828  -56.1104 C.2       21 UNK         0.5000 
    118 O         -5.4926  -18.0582  -56.6407 O.2       21 UNK        -0.5000 
    119 N         -5.4122  -19.4883  -54.8848 N.am      22 UNK        -0.5000 
    120 CA        -6.3441  -18.7840  -53.9901 C.3       22 UNK         0.1400 
    121 C         -7.8264  -19.2283  -54.1591 C.2       22 UNK         0.5000 
    122 N         -8.1370  -20.2252  -54.9795 N.am      22 UNK        -0.7600 
    123 O         -8.7159  -18.6502  -53.5410 O.2       22 UNK        -0.5000 
    124 C124       -5.8994  -18.8925  -52.5088 C.3       23 UNK        -0.0398 
    125 S125       -4.2439  -18.1885  -52.2181 S.3       23 UNK        -0.2404 
    126 C126       -4.0036  -18.6341  -50.4720 C.3       23 UNK        -0.0205 
    127 H127       -1.3014  -13.8148  -42.4530 H         1 UNK         0.0600 
    128 H128        0.1942  -13.7677  -43.3926 H         1 UNK         0.0600 
    129 H129       -0.0806  -12.5798  -42.1226 H         1 UNK         0.0600 
    130 H130       -0.4633  -13.2409  -45.4811 H         1 UNK         0.3000 
    131 H131       -2.6529  -11.5567  -46.1373 H         1 UNK         0.0600 
    132 H132       -0.3289  -12.3816  -47.9466 H         1 UNK         0.0800 
    133 H133       -1.8872  -11.7933  -48.4745 H         1 UNK         0.0800 
    134 H134       -0.0328  -14.5050  -48.9935 H         1 UNK         0.0800 
    135 H135       -1.4048  -14.2330  -50.0398 H         1 UNK         0.0800 
    136 H136       -3.2884  -16.0464  -50.0352 H         1 UNK         0.1150 
    137 H137       -1.7826  -20.0462  -49.7234 H         1 UNK         0.1150 
    138 H138        0.6663  -16.7462  -48.5270 H         1 UNK         0.1150 
    139 H139        0.4950  -20.4291  -49.1773 H         1 UNK         0.0800 
    140 H140        1.6226  -19.0999  -49.0647 H         1 UNK         0.0800 
    141 H141        1.8194  -21.7057  -47.7022 H         1 UNK         0.0800 
    142 H142        2.1776  -21.4188  -46.0329 H         1 UNK         0.0800 
    143 H143        0.8065  -23.4158  -46.3676 H         1 UNK         0.0600 
    144 H144       -0.0893  -21.3698  -44.5455 H         1 UNK         0.3000 
    145 H145       -1.9854  -23.7267  -42.5622 H         1 UNK         0.0600 
    146 H146       -0.4463  -22.8717  -40.8258 H         1 UNK         0.0600 
    147 H147        0.4165  -23.9620  -41.8982 H         1 UNK         0.0600 
    148 H148        0.6394  -22.2237  -42.0553 H         1 UNK         0.0600 
    149 H149       -1.5198  -20.9850  -42.1220 H         1 UNK         0.3000 
    150 H150       -4.0977  -19.5580  -44.0352 H         1 UNK         0.0600 
    151 H151       -5.4518  -20.5573  -42.1935 H         1 UNK         0.0600 
    152 H152       -5.0470  -18.8855  -41.8388 H         1 UNK         0.0600 
    153 H153       -4.1788  -20.1939  -41.0345 H         1 UNK         0.0600 
    154 H154       -2.4372  -18.6455  -41.8540 H         1 UNK         0.3000 
    155 H155       -0.7349  -16.9775  -42.5634 H         1 UNK         0.0600 
    156 H156        1.3380  -18.2222  -41.8315 H         1 UNK         0.0600 
    157 H157        0.8832  -19.5940  -42.8359 H         1 UNK         0.0600 
    158 H158       -0.0845  -19.1556  -41.4324 H         1 UNK         0.0600 
    159 H159        0.1307  -17.6970  -45.1695 H         1 UNK         0.3000 
    160 H160        2.2124  -16.9434  -46.1166 H         1 UNK         0.0600 
    161 H161        1.2727  -14.0449  -45.6856 H         1 UNK         0.0600 
    162 H162        0.2888  -15.3093  -46.4262 H         1 UNK         0.0600 
    163 H163        1.7613  -14.7611  -47.2174 H         1 UNK         0.0600 
    164 H164        3.4734  -15.1394  -44.2251 H         1 UNK         0.3000 
    165 H165        6.6654  -15.7790  -45.5636 H         1 UNK         0.0600 
    166 H166        5.3260  -13.0551  -45.0956 H         1 UNK         0.0600 
    167 H167        7.0586  -13.3759  -45.0229 H         1 UNK         0.0600 
    168 H168        6.1998  -13.5260  -46.5489 H         1 UNK         0.0600 
    169 H169        5.6484  -14.5332  -43.1566 H         1 UNK         0.3000 
    170 H170        4.8516  -17.5060  -41.4061 H         1 UNK         0.0600 
    171 H171        7.2290  -17.2609  -40.8587 H         1 UNK         0.0600 
    172 H172        7.1118  -15.5104  -40.8695 H         1 UNK         0.0600 
    173 H173        6.2622  -16.4459  -39.6390 H         1 UNK         0.0600 
    174 H174        3.3551  -15.9325  -41.1520 H         1 UNK         0.3000 
    175 H175        2.2471  -13.9536  -41.3582 H         1 UNK         0.0600 
    176 H176        3.6931  -12.8618  -38.8780 H         1 UNK         0.0600 
    177 H177        1.9485  -12.8490  -39.1406 H         1 UNK         0.0600 
    178 H178        2.7982  -14.3744  -38.9568 H         1 UNK         0.0600 
    179 H179        3.3680  -11.3475  -40.7652 H         1 UNK         0.3000 
    180 H180        2.9200   -9.6710  -42.2457 H         1 UNK         0.0600 
    181 H181        5.1376  -10.5822  -44.1800 H         1 UNK         0.0600 
    182 H182        5.3633  -10.2222  -42.4726 H         1 UNK         0.0600 
    183 H183        4.9134   -8.9377  -43.5850 H         1 UNK         0.0600 
    184 H184        2.3785  -10.7792  -44.8909 H         1 UNK         0.3000 
    185 H185        0.2334   -7.9878  -45.6069 H         1 UNK         0.0600 
    186 H186        2.2974   -7.5887  -46.9763 H         1 UNK         0.0600 
    187 H187        2.4520   -9.3182  -47.2662 H         1 UNK         0.0600 
    188 H188        1.0709   -8.4315  -47.9098 H         1 UNK         0.0600 
    189 H189        0.6430  -10.8567  -45.4062 H         1 UNK         0.3000 
    190 H190       -1.9461  -21.1845  -46.3036 H         1 UNK         0.3000 
    191 H191       -2.9722  -21.7854  -48.9027 H         1 UNK         0.0600 
    192 H192       -5.0505  -20.7550  -48.0442 H         1 UNK         0.0600 
    193 H193       -3.6655  -19.7903  -47.5516 H         1 UNK         0.0600 
    194 H194       -4.4604  -20.8464  -46.3907 H         1 UNK         0.0600 
    195 H195       -3.6102  -23.2195  -45.6733 H         1 UNK         0.3000 
    196 H196       -5.4685  -25.1847  -46.5157 H         1 UNK         0.0600 
    197 H197       -4.9347  -26.2466  -44.3166 H         1 UNK         0.0600 
    198 H198       -5.1912  -24.5161  -44.1512 H         1 UNK         0.0600 
    199 H199       -3.5562  -25.1708  -44.1205 H         1 UNK         0.0600 
    200 H200       -1.8882  -25.3743  -46.1289 H         1 UNK         0.3000 
    201 H201       -1.5840  -28.0795  -46.8988 H         1 UNK         0.0600 
    202 H202        0.1754  -26.7809  -45.7292 H         1 UNK         0.0600 
    203 H203        0.3785  -25.7375  -47.1357 H         1 UNK         0.0600 
    204 H204        0.8083  -27.4410  -47.2294 H         1 UNK         0.0600 
    205 H205       -1.6284  -25.0981  -48.8664 H         1 UNK         0.3000 
    206 H206       -1.1561  -26.3969  -51.4022 H         1 UNK         0.0600 
    207 H207       -0.5910  -24.0167  -50.9992 H         1 UNK         0.0600 
    208 H208       -1.7992  -24.1176  -52.2665 H         1 UNK         0.0600 
    209 H209       -2.2778  -23.6397  -50.6500 H         1 UNK         0.0600 
    210 H210       -3.8862  -26.3278  -49.3867 H         1 UNK         0.3000 
    211 H211       -6.0668  -26.6340  -49.5051 H         1 UNK         0.0600 
    212 H212       -5.5359  -28.0857  -52.1558 H         1 UNK         0.0600 
    213 H213       -6.9596  -28.2621  -51.1382 H         1 UNK         0.0600 
    214 H214       -5.3972  -28.8122  -50.5551 H         1 UNK         0.0600 
    215 H215       -5.1216  -24.1911  -50.3532 H         1 UNK         0.3000 
    216 H216       -5.4390  -22.2732  -51.3354 H         1 UNK         0.0600 
    217 H217       -8.2207  -23.2702  -52.1480 H         1 UNK         0.0600 
    218 H218       -7.6838  -21.6008  -52.1726 H         1 UNK         0.0600 
    219 H219       -7.8090  -22.4524  -50.6418 H         1 UNK         0.0600 
    220 H220       -6.4522  -24.8766  -53.5043 H         1 UNK         0.3000 
    221 H221       -6.3475  -23.6146  -55.9604 H         1 UNK         0.0600 
    222 H222       -5.8000  -26.5493  -55.2720 H         1 UNK         0.0600 
    223 H223       -7.3754  -25.8232  -55.5833 H         1 UNK         0.0600 
    224 H224       -6.1953  -25.9470  -56.8790 H         1 UNK         0.0600 
    225 H225       -3.5965  -25.3573  -54.3644 H         1 UNK         0.3000 
    226 H226       -1.8513  -24.9951  -56.6359 H         1 UNK         0.0600 
    227 H227       -1.6290  -26.8898  -55.0251 H         1 UNK         0.0600 
    228 H228       -0.1359  -25.9777  -55.1843 H         1 UNK         0.0600 
    229 H229       -1.1414  -25.7625  -53.7633 H         1 UNK         0.0600 
    230 H230       -2.7644  -22.8885  -54.0707 H         1 UNK         0.3000 
    231 H231       -0.4264  -21.0828  -54.3870 H         1 UNK         0.0600 
    232 H232       -2.8456  -21.0078  -52.5048 H         1 UNK         0.0600 
    233 H233       -1.5222  -19.8505  -52.5109 H         1 UNK         0.0600 
    234 H234       -1.2130  -21.5219  -52.0800 H         1 UNK         0.0600 
    235 H235       -3.3112  -21.7184  -55.9561 H         1 UNK         0.3000 
    236 H236       -4.6720  -20.7464  -57.3638 H         1 UNK         0.0600 
    237 H237       -2.5910  -19.9069  -58.4879 H         1 UNK         0.0600 
    238 H238       -3.9636  -18.8397  -58.7296 H         1 UNK         0.0600 
    239 H239       -2.7134  -18.4023  -57.5758 H         1 UNK         0.0600 
    240 H240       -5.0412  -20.3655  -54.5296 H         1 UNK         0.3000 
    241 H241       -6.3313  -17.7233  -54.2475 H         1 UNK         0.0600 
    242 H242       -7.4180  -20.6993  -55.5006 H         1 UNK         0.3800 
    243 H243       -9.1014  -20.4971  -55.0880 H         1 UNK         0.3800 
    244 H244       -6.6010  -18.3697  -51.8563 H         1 UNK         0.0800 
    245 H245       -5.8953  -19.9343  -52.1889 H         1 UNK         0.0800 
    246 H246       -4.0533  -19.7192  -50.3714 H         1 UNK         0.0800 
    247 H247       -4.8210  -18.2267  -49.8752 H         1 UNK         0.0800 
@<TRIPOS>BOND
     1    1    2 1    
     2    1  127 1    
     3    1  128 1    
     4    1  129 1    
     5    2    3 2    
     6    2    4 am   BACKBONE|DICT|INTERRES
     7    4    5 1    
     8    4  130 1    
     9    5    6 1    
    10    5   65 1    
    11    5  131 1    
    12    6    7 1    
    13    6  132 1    
    14    6  133 1    
    15    7    8 1    
    16    8    9 1    
    17    8  134 1    
    18    8  135 1    
    19    9   10 ar   
    20    9   14 ar   
    21   10   11 ar   
    22   10  136 1    
    23   11   12 ar   
    24   11  126 1    
    25   12   13 ar   
    26   12  137 1    
    27   13   14 ar   
    28   13   15 1    
    29   14  138 1    
    30   15   16 1    
    31   15  139 1    
    32   15  140 1    
    33   16   17 1    
    34   17   18 1    
    35   17  141 1    
    36   17  142 1    
    37   18   19 1    
    38   18   67 1    
    39   18  143 1    
    40   19   20 am   BACKBONE|DICT|INTERRES
    41   19  144 1    
    42   20   21 2    
    43   20   22 1    
    44   22   23 1    
    45   22   24 1    
    46   22  145 1    
    47   23  146 1    
    48   23  147 1    
    49   23  148 1    
    50   24   25 am   BACKBONE|DICT|INTERRES
    51   24  149 1    
    52   25   26 2    
    53   25   27 1    
    54   27   28 1    
    55   27   29 1    
    56   27  150 1    
    57   28  151 1    
    58   28  152 1    
    59   28  153 1    
    60   29   30 am   BACKBONE|DICT|INTERRES
    61   29  154 1    
    62   30   31 2    
    63   30   32 1    
    64   32   33 1    
    65   32   34 1    
    66   32  155 1    
    67   33  156 1    
    68   33  157 1    
    69   33  158 1    
    70   34   35 am   BACKBONE|DICT|INTERRES
    71   34  159 1    
    72   35   36 2    
    73   35   37 1    
    74   37   38 1    
    75   37   39 1    
    76   37  160 1    
    77   38  161 1    
    78   38  162 1    
    79   38  163 1    
    80   39   40 am   BACKBONE|DICT|INTERRES
    81   39  164 1    
    82   40   41 2    
    83   40   42 1    
    84   42   43 1    
    85   42   44 1    
    86   42  165 1    
    87   43  166 1    
    88   43  167 1    
    89   43  168 1    
    90   44   45 am   BACKBONE|DICT|INTERRES
    91   44  169 1    
    92   45   46 2    
    93   45   47 1    
    94   47   48 1    
    95   47   49 1    
    96   47  170 1    
    97   48  171 1    
    98   48  172 1    
    99   48  173 1    
   100   49   50 am   BACKBONE|DICT|INTERRES
   101   49  174 1    
   102   50   51 2    
   103   50   52 1    
   104   52   53 1    
   105   52   54 1    
   106   52  175 1    
   107   53  176 1    
   108   53  177 1    
   109   53  178 1    
   110   54   55 am   BACKBONE|DICT|INTERRES
   111   54  179 1    
   112   55   56 2    
   113   55   57 1    
   114   57   58 1    
   115   57   59 1    
   116   57  180 1    
   117   58  181 1    
   118   58  182 1    
   119   58  183 1    
   120   59   60 am   BACKBONE|DICT|INTERRES
   121   59  184 1    
   122   60   61 2    
   123   60   62 1    
   124   62   63 1    
   125   62   64 1    
   126   62  185 1    
   127   63  186 1    
   128   63  187 1    
   129   63  188 1    
   130   64   65 am   BACKBONE|DICT|INTERRES
   131   64  189 1    
   132   65   66 2    
   133   67   68 2    
   134   67   69 am   BACKBONE|DICT|INTERRES
   135   69   70 1    
   136   69  190 1    
   137   70   71 1    
   138   70   72 1    
   139   70  191 1    
   140   71  192 1    
   141   71  193 1    
   142   71  194 1    
   143   72   73 2    
   144   72   74 am   BACKBONE|DICT|INTERRES
   145   74   75 1    
   146   74  195 1    
   147   75   76 1    
   148   75   77 1    
   149   75  196 1    
   150   76  197 1    
   151   76  198 1    
   152   76  199 1    
   153   77   78 2    
   154   77   79 am   BACKBONE|DICT|INTERRES
   155   79   80 1    
   156   79  200 1    
   157   80   81 1    
   158   80   82 1    
   159   80  201 1    
   160   81  202 1    
   161   81  203 1    
   162   81  204 1    
   163   82   83 2    
   164   82   84 am   BACKBONE|DICT|INTERRES
   165   84   85 1    
   166   84  205 1    
   167   85   86 1    
   168   85   87 1    
   169   85  206 1    
   170   86  207 1    
   171   86  208 1    
   172   86  209 1    
   173   87   88 2    
   174   87   89 am   BACKBONE|DICT|INTERRES
   175   89   90 1    
   176   89  210 1    
   177   90   91 1    
   178   90   92 1    
   179   90  211 1    
   180   91  212 1    
   181   91  213 1    
   182   91  214 1    
   183   92   93 2    
   184   92   94 am   BACKBONE|DICT|INTERRES
   185   94   95 1    
   186   94  215 1    
   187   95   96 1    
   188   95   97 1    
   189   95  216 1    
   190   96  217 1    
   191   96  218 1    
   192   96  219 1    
   193   97   98 2    
   194   97   99 am   BACKBONE|DICT|INTERRES
   195   99  100 1    
   196   99  220 1    
   197  100  101 1    
   198  100  102 1    
   199  100  221 1    
   200  101  222 1    
   201  101  223 1    
   202  101  224 1    
   203  102  103 2    
   204  102  104 am   BACKBONE|DICT|INTERRES
   205  104  105 1    
   206  104  225 1    
   207  105  106 1    
   208  105  107 1    
   209  105  226 1    
   210  106  227 1    
   211  106  228 1    
   212  106  229 1    
   213  107  108 2    
   214  107  109 am   BACKBONE|DICT|INTERRES
   215  109  110 1    
   216  109  230 1    
   217  110  111 1    
   218  110  112 1    
   219  110  231 1    
   220  111  232 1    
   221  111  233 1    
   222  111  234 1    
   223  112  113 2    
   224  112  114 am   BACKBONE|DICT|INTERRES
   225  114  115 1    
   226  114  235 1    
   227  115  116 1    
   228  115  117 1    
   229  115  236 1    
   230  116  237 1    
   231  116  238 1    
   232  116  239 1    
   233  117  118 2    
   234  117  119 am   BACKBONE|DICT|INTERRES
   235  119  120 1    
   236  119  240 1    
   237  120  121 1    
   238  120  124 1    
   239  120  241 1    
   240  121  122 am   BACKBONE|DICT|INTERRES
   241  121  123 2    
   242  122  242 1    
   243  122  243 1    
   244  124  125 1    
   245  124  244 1    
   246  124  245 1    
   247  125  126 1    
   248  126  246 1    
   249  126  247 1    
@<TRIPOS>SUBSTRUCTURE
     1 UNK         1 GROUP             0       ****    0 ROOT    
