@<TRIPOS>MOLECULE
3R540
247   249    1
SMALL
USER_CHARGES


@<TRIPOS>ATOM
      1 CA         -0.4296  -12.9030  -55.3433 C.3       0 UNK        -0.1800 
      2 C          -0.9766  -12.5277  -53.9742 C.2       0 UNK         0.5000 
      3 O          -1.9999  -11.8481  -53.8883 O.2       0 UNK        -0.5000 
      4 N          -0.2942  -12.9559  -52.9062 N.am      1 UNK        -0.5000 
      5 CA         -0.7082  -12.7678  -51.5144 C.3       1 UNK         0.1400 
      6 C6          0.4506  -13.0152  -50.5106 C.3       23 UNK        -0.0398 
      7 S7          1.4283  -14.5314  -50.8091 S.3       23 UNK        -0.2404 
      8 C8          0.7268  -15.6838  -49.5858 C.3       23 UNK        -0.0205 
      9 C9          1.2015  -17.1043  -49.8481 C.ar      23 UNK        -0.0193 
     10 C10         0.7996  -17.7666  -51.0116 C.ar      23 UNK        -0.1150 
     11 C11         1.2454  -19.0624  -51.2798 C.ar      23 UNK        -0.0193 
     12 C12         2.0786  -19.7053  -50.3629 C.ar      23 UNK        -0.1150 
     13 C13         2.4548  -19.0739  -49.1727 C.ar      23 UNK        -0.0193 
     14 C14         2.0272  -17.7637  -48.9321 C.ar      23 UNK        -0.1150 
     15 C15         3.3192  -19.7957  -48.1418 C.3       23 UNK        -0.0205 
     16 S16         2.8263  -21.5334  -47.8613 S.3       23 UNK        -0.2404 
     17 C17         1.0781  -21.3282  -47.3789 C.3       23 UNK        -0.0398 
     18 CA          0.5047  -22.5342  -46.6014 C.3       11 UNK         0.1400 
     19 N           1.3473  -22.9058  -45.4638 N.am      11 UNK        -0.5000 
     20 C           1.3540  -24.1030  -44.8690 C.2       10 UNK         0.5000 
     21 O           0.4875  -24.9569  -45.0689 O.2       10 UNK        -0.5000 
     22 CA          2.5482  -24.4113  -43.9378 C.3       10 UNK         0.1400 
     23 CB          3.7165  -23.4136  -44.0632 C.3       10 UNK        -0.1800 
     24 N           2.1147  -24.4482  -42.5482 N.am      10 UNK        -0.5000 
     25 C           1.5669  -25.5100  -41.9447 C.2       9 UNK         0.5000 
     26 O           1.5267  -26.6349  -42.4445 O.2       9 UNK        -0.5000 
     27 CA          0.9596  -25.2939  -40.5422 C.3       9 UNK         0.1400 
     28 CB          1.8504  -25.9353  -39.4666 C.3       9 UNK        -0.1800 
     29 N           0.7176  -23.8958  -40.1724 N.am      9 UNK        -0.5000 
     30 C          -0.0627  -23.0187  -40.8196 C.2       8 UNK         0.5000 
     31 O          -0.6593  -23.2790  -41.8646 O.2       8 UNK        -0.5000 
     32 CA         -0.1815  -21.6053  -40.2082 C.3       8 UNK         0.1400 
     33 CB          0.2083  -21.5441  -38.7146 C.3       8 UNK        -0.1800 
     34 N           0.5620  -20.5808  -40.9513 N.am      8 UNK        -0.5000 
     35 C           1.8505  -20.6068  -41.3281 C.2       7 UNK         0.5000 
     36 O           2.5896  -21.5826  -41.1819 O.2       7 UNK        -0.5000 
     37 CA          2.4068  -19.2994  -41.9419 C.3       7 UNK         0.1400 
     38 CB          3.7037  -19.5092  -42.7524 C.3       7 UNK        -0.1800 
     39 N           1.4316  -18.5339  -42.7309 N.am      7 UNK        -0.5000 
     40 C           0.7904  -18.9591  -43.8295 C.2       6 UNK         0.5000 
     41 O           0.8854  -20.1030  -44.2684 O.2       6 UNK        -0.5000 
     42 CA         -0.1099  -17.9464  -44.5642 C.3       6 UNK         0.1400 
     43 CB         -1.5887  -18.1928  -44.2404 C.3       6 UNK        -0.1800 
     44 N           0.2087  -16.5496  -44.2631 N.am      6 UNK        -0.5000 
     45 C           1.2204  -15.8815  -44.8281 C.2       5 UNK         0.5000 
     46 O           2.0201  -16.3863  -45.6183 O.2       5 UNK        -0.5000 
     47 CA          1.3662  -14.4040  -44.4392 C.3       5 UNK         0.1400 
     48 CB          2.4052  -14.2541  -43.3175 C.3       5 UNK        -0.1800 
     49 N           1.8230  -13.6523  -45.6078 N.am      5 UNK        -0.5000 
     50 C           1.1275  -12.8310  -46.4058 C.2       4 UNK         0.5000 
     51 O           1.6399  -12.3678  -47.4233 O.2       4 UNK        -0.5000 
     52 CA         -0.3393  -12.4774  -46.0822 C.3       4 UNK         0.1400 
     53 CB         -0.7887  -11.1730  -46.7691 C.3       4 UNK        -0.1800 
     54 N          -1.2190  -13.5541  -46.5350 N.am      4 UNK        -0.5000 
     55 C          -2.1214  -14.1877  -45.7762 C.2       3 UNK         0.5000 
     56 O          -2.2216  -14.0188  -44.5602 O.2       3 UNK        -0.5000 
     57 CA         -3.0552  -15.1904  -46.4935 C.3       3 UNK         0.1400 
     58 CB         -4.3677  -15.4430  -45.7242 C.3       3 UNK        -0.1800 
     59 N          -3.3447  -14.8655  -47.8956 N.am      3 UNK        -0.5000 
     60 C          -3.9027  -13.7472  -48.3764 C.2       2 UNK         0.5000 
     61 O          -4.2079  -12.7700  -47.6910 O.2       2 UNK        -0.5000 
     62 CA         -4.0719  -13.6944  -49.9001 C.3       2 UNK         0.1400 
     63 CB         -5.3251  -12.9084  -50.3227 C.3       2 UNK        -0.1800 
     64 N          -2.8876  -13.0348  -50.4381 N.am      2 UNK        -0.5000 
     65 C          -1.9449  -13.6269  -51.1789 C.2       1 UNK         0.5000 
     66 O          -2.0018  -14.7967  -51.5620 O.2       1 UNK        -0.5000 
     67 C          -0.9777  -22.2985  -46.2410 C.2       11 UNK         0.5000 
     68 O          -1.8140  -22.3229  -47.1469 O.2       11 UNK        -0.5000 
     69 N          -1.2887  -22.0743  -44.9552 N.am      12 UNK        -0.5000 
     70 CA         -2.6581  -21.9431  -44.4500 C.3       12 UNK         0.1400 
     71 CB         -2.6760  -21.2264  -43.0846 C.3       12 UNK        -0.1800 
     72 C          -3.3343  -23.3185  -44.3596 C.2       12 UNK         0.5000 
     73 O          -4.4510  -23.4791  -44.8490 O.2       12 UNK        -0.5000 
     74 N          -2.6258  -24.2947  -43.7756 N.am      13 UNK        -0.5000 
     75 CA         -3.0595  -25.6885  -43.6609 C.3       13 UNK         0.1400 
     76 CB         -2.1053  -26.4441  -42.7280 C.3       13 UNK        -0.1800 
     77 C          -3.1630  -26.3928  -45.0259 C.2       13 UNK         0.5000 
     78 O          -4.0784  -27.1907  -45.2299 O.2       13 UNK        -0.5000 
     79 N          -2.2539  -26.0500  -45.9501 N.am      14 UNK        -0.5000 
     80 CA         -2.2960  -26.4766  -47.3518 C.3       14 UNK         0.1400 
     81 CB         -0.9168  -26.2376  -47.9846 C.3       14 UNK        -0.1800 
     82 C          -3.3892  -25.7613  -48.1760 C.2       14 UNK         0.5000 
     83 O          -3.6975  -26.2103  -49.2795 O.2       14 UNK        -0.5000 
     84 N          -3.9235  -24.6513  -47.6434 N.am      15 UNK        -0.5000 
     85 CA         -4.9432  -23.7515  -48.1978 C.3       15 UNK         0.1400 
     86 CB         -6.2616  -24.5006  -48.4732 C.3       15 UNK        -0.1800 
     87 C          -4.4872  -22.9247  -49.4165 C.2       15 UNK         0.5000 
     88 O          -5.2779  -22.1357  -49.9336 O.2       15 UNK        -0.5000 
     89 N          -3.2247  -23.0718  -49.8369 N.am      16 UNK        -0.5000 
     90 CA         -2.6351  -22.3959  -50.9911 C.3       16 UNK         0.1400 
     91 CB         -1.2459  -22.9892  -51.2645 C.3       16 UNK        -0.1800 
     92 C          -2.5524  -20.8709  -50.8143 C.2       16 UNK         0.5000 
     93 O          -2.7977  -20.1363  -51.7724 O.2       16 UNK        -0.5000 
     94 N          -2.2474  -20.4216  -49.5883 N.am      17 UNK        -0.5000 
     95 CA         -2.2128  -19.0004  -49.2440 C.3       17 UNK         0.1400 
     96 CB         -1.3911  -18.7871  -47.9696 C.3       17 UNK        -0.1800 
     97 C          -3.6155  -18.4031  -49.0747 C.2       17 UNK         0.5000 
     98 O          -3.8111  -17.2362  -49.4086 O.2       17 UNK        -0.5000 
     99 N          -4.5617  -19.2084  -48.5733 N.am      18 UNK        -0.5000 
    100 CA        -5.9629  -18.8260  -48.3909 C.3       18 UNK         0.1400 
    101 CB        -6.6592  -19.8543  -47.4860 C.3       18 UNK        -0.1800 
    102 C         -6.6986  -18.6804  -49.7349 C.2       18 UNK         0.5000 
    103 O         -7.4721  -17.7390  -49.9102 O.2       18 UNK        -0.5000 
    104 N         -6.4079  -19.5940  -50.6709 N.am      19 UNK        -0.5000 
    105 CA        -6.8863  -19.5636  -52.0534 C.3       19 UNK         0.1400 
    106 CB        -6.6791  -20.9555  -52.6719 C.3       19 UNK        -0.1800 
    107 C         -6.1885  -18.4943  -52.9182 C.2       19 UNK         0.5000 
    108 O         -6.6994  -18.1686  -53.9903 O.2       19 UNK        -0.5000 
    109 N         -5.0316  -17.9962  -52.4532 N.am      20 UNK        -0.5000 
    110 CA        -4.1098  -17.0838  -53.1382 C.3       20 UNK         0.1400 
    111 CB        -4.7543  -15.6981  -53.3491 C.3       20 UNK        -0.1800 
    112 C         -3.5525  -17.7003  -54.4387 C.2       20 UNK         0.5000 
    113 O         -3.4218  -17.0149  -55.4554 O.2       20 UNK        -0.5000 
    114 N         -3.2328  -19.0018  -54.3776 N.am      21 UNK        -0.5000 
    115 CA        -2.8081  -19.8391  -55.5047 C.3       21 UNK         0.1400 
    116 CB        -2.7210  -21.2963  -55.0245 C.3       21 UNK        -0.1800 
    117 C         -1.4760  -19.4032  -56.1451 C.2       21 UNK         0.5000 
    118 O         -1.2229  -19.7187  -57.3082 O.2       21 UNK        -0.5000 
    119 N         -0.6642  -18.6776  -55.3713 N.am      22 UNK        -0.5000 
    120 CA         0.6052  -18.0680  -55.7848 C.3       22 UNK         0.1400 
    121 C          0.4333  -16.7024  -56.5147 C.2       22 UNK         0.5000 
    122 N         -0.7714  -16.1601  -56.6595 N.am      22 UNK        -0.7600 
    123 O          1.4147  -16.1273  -56.9767 O.2       22 UNK        -0.5000 
    124 C124        1.5835  -17.9579  -54.5866 C.3       23 UNK        -0.0398 
    125 S125        2.0145  -19.5944  -53.8955 S.3       23 UNK        -0.2404 
    126 C126        0.8114  -19.7877  -52.5410 C.3       23 UNK        -0.0205 
    127 H127       -0.0607  -12.0153  -55.8570 H         1 UNK         0.0600 
    128 H128       -1.2186  -13.3460  -55.9506 H         1 UNK         0.0600 
    129 H129        0.3878  -13.6212  -55.2703 H         1 UNK         0.0600 
    130 H130        0.5217  -13.5383  -53.0317 H         1 UNK         0.3000 
    131 H131       -1.0001  -11.7204  -51.4089 H         1 UNK         0.0600 
    132 H132        1.1472  -12.1777  -50.5665 H         1 UNK         0.0800 
    133 H133        0.0845  -13.0104  -49.4838 H         1 UNK         0.0800 
    134 H134        1.0072  -15.3579  -48.5827 H         1 UNK         0.0800 
    135 H135       -0.3622  -15.6649  -49.6303 H         1 UNK         0.0800 
    136 H136        0.1444  -17.2631  -51.7084 H         1 UNK         0.1150 
    137 H137        2.4189  -20.7102  -50.5695 H         1 UNK         0.1150 
    138 H138        2.3289  -17.2600  -48.0252 H         1 UNK         0.1150 
    139 H139        3.2904  -19.2705  -47.1852 H         1 UNK         0.0800 
    140 H140        4.3564  -19.7730  -48.4777 H         1 UNK         0.0800 
    141 H141        0.5060  -21.1747  -48.2952 H         1 UNK         0.0800 
    142 H142        0.9874  -20.4139  -46.7932 H         1 UNK         0.0800 
    143 H143        0.5177  -23.3807  -47.2892 H         1 UNK         0.0600 
    144 H144        2.0509  -22.2275  -45.2084 H         1 UNK         0.3000 
    145 H145        2.9274  -25.3934  -44.2273 H         1 UNK         0.0600 
    146 H146        4.0694  -23.3414  -45.0931 H         1 UNK         0.0600 
    147 H147        4.5643  -23.7311  -43.4560 H         1 UNK         0.0600 
    148 H148        3.4346  -22.4150  -43.7320 H         1 UNK         0.0600 
    149 H149        2.1069  -23.5631  -42.0546 H         1 UNK         0.3000 
    150 H150       -0.0048  -25.8038  -40.5312 H         1 UNK         0.0600 
    151 H151        2.8235  -25.4458  -39.4088 H         1 UNK         0.0600 
    152 H152        2.0259  -26.9906  -39.6798 H         1 UNK         0.0600 
    153 H153        1.3855  -25.8788  -38.4822 H         1 UNK         0.0600 
    154 H154        1.2006  -23.5690  -39.3486 H         1 UNK         0.3000 
    155 H155       -1.2362  -21.3365  -40.2803 H         1 UNK         0.0600 
    156 H156        1.2735  -21.7185  -38.5581 H         1 UNK         0.0600 
    157 H157       -0.3430  -22.2824  -38.1306 H         1 UNK         0.0600 
    158 H158       -0.0267  -20.5664  -38.2937 H         1 UNK         0.0600 
    159 H159        0.0446  -19.7393  -41.1587 H         1 UNK         0.3000 
    160 H160        2.6626  -18.6701  -41.0885 H         1 UNK         0.0600 
    161 H161        3.5317  -20.1038  -43.6489 H         1 UNK         0.0600 
    162 H162        4.4662  -20.0166  -42.1605 H         1 UNK         0.0600 
    163 H163        4.1244  -18.5543  -43.0674 H         1 UNK         0.0600 
    164 H164        1.2779  -17.5804  -42.4369 H         1 UNK         0.3000 
    165 H165        0.0336  -18.1073  -45.6339 H         1 UNK         0.0600 
    166 H166       -2.2284  -17.4158  -44.6523 H         1 UNK         0.0600 
    167 H167       -1.9193  -19.1342  -44.6752 H         1 UNK         0.0600 
    168 H168       -1.7692  -18.2315  -43.1655 H         1 UNK         0.0600 
    169 H169       -0.4064  -16.0714  -43.6191 H         1 UNK         0.3000 
    170 H170        0.4133  -14.0397  -44.0610 H         1 UNK         0.0600 
    171 H171        2.5283  -13.2088  -43.0333 H         1 UNK         0.0600 
    172 H172        3.3824  -14.6362  -43.6164 H         1 UNK         0.0600 
    173 H173        2.0989  -14.7990  -42.4237 H         1 UNK         0.0600 
    174 H174        2.7533  -13.9027  -45.9093 H         1 UNK         0.3000 
    175 H175       -0.4278  -12.3029  -45.0095 H         1 UNK         0.0600 
    176 H176       -0.1446  -10.3397  -46.4859 H         1 UNK         0.0600 
    177 H177       -0.7666  -11.2532  -47.8563 H         1 UNK         0.0600 
    178 H178       -1.8063  -10.9102  -46.4789 H         1 UNK         0.0600 
    179 H179       -1.1809  -13.7776  -47.5177 H         1 UNK         0.3000 
    180 H180       -2.5077  -16.1302  -46.5188 H         1 UNK         0.0600 
    181 H181       -4.9620  -14.5332  -45.6334 H         1 UNK         0.0600 
    182 H182       -4.1731  -15.8084  -44.7153 H         1 UNK         0.0600 
    183 H183       -4.9782  -16.1939  -46.2254 H         1 UNK         0.0600 
    184 H184       -3.2060  -15.6280  -48.5541 H         1 UNK         0.3000 
    185 H185       -4.1684  -14.7134  -50.2801 H         1 UNK         0.0600 
    186 H186       -6.2258  -13.3622  -49.9075 H         1 UNK         0.0600 
    187 H187       -5.2917  -11.8716  -49.9857 H         1 UNK         0.0600 
    188 H188       -5.4341  -12.9016  -51.4073 H         1 UNK         0.0600 
    189 H189       -2.7584  -12.0761  -50.1460 H         1 UNK         0.3000 
    190 H190       -0.5370  -22.0336  -44.2789 H         1 UNK         0.3000 
    191 H191       -3.2210  -21.3304  -45.1579 H         1 UNK         0.0600 
    192 H192       -1.7370  -20.7159  -42.8755 H         1 UNK         0.0600 
    193 H193       -3.4702  -20.4803  -43.0560 H         1 UNK         0.0600 
    194 H194       -2.8601  -21.9080  -42.2534 H         1 UNK         0.0600 
    195 H195       -1.7362  -24.0538  -43.3480 H         1 UNK         0.3000 
    196 H196       -4.0532  -25.6937  -43.2083 H         1 UNK         0.0600 
    197 H197       -2.4219  -27.4796  -42.5977 H         1 UNK         0.0600 
    198 H198       -2.0775  -25.9841  -41.7405 H         1 UNK         0.0600 
    199 H199       -1.0907  -26.4575  -43.1256 H         1 UNK         0.0600 
    200 H200       -1.4837  -25.4502  -45.6730 H         1 UNK         0.3000 
    201 H201       -2.5056  -27.5478  -47.3817 H         1 UNK         0.0600 
    202 H202       -0.8782  -26.6359  -48.9992 H         1 UNK         0.0600 
    203 H203       -0.1272  -26.7261  -47.4131 H         1 UNK         0.0600 
    204 H204       -0.6830  -25.1755  -48.0425 H         1 UNK         0.0600 
    205 H205       -3.5907  -24.3768  -46.7285 H         1 UNK         0.3000 
    206 H206       -5.1448  -23.0207  -47.4141 H         1 UNK         0.0600 
    207 H207       -6.5908  -25.0537  -47.5935 H         1 UNK         0.0600 
    208 H208       -7.0591  -23.8040  -48.7344 H         1 UNK         0.0600 
    209 H209       -6.1648  -25.2060  -49.2987 H         1 UNK         0.0600 
    210 H210       -2.6308  -23.7034  -49.3215 H         1 UNK         0.3000 
    211 H211       -3.2713  -22.5966  -51.8556 H         1 UNK         0.0600 
    212 H212       -0.5444  -22.7697  -50.4582 H         1 UNK         0.0600 
    213 H213       -0.8291  -22.5879  -52.1881 H         1 UNK         0.0600 
    214 H214       -1.2952  -24.0722  -51.3806 H         1 UNK         0.0600 
    215 H215       -2.0895  -21.0919  -48.8436 H         1 UNK         0.3000 
    216 H216       -1.7261  -18.4545  -50.0541 H         1 UNK         0.0600 
    217 H217       -1.7769  -19.3689  -47.1324 H         1 UNK         0.0600 
    218 H218       -1.3860  -17.7376  -47.6790 H         1 UNK         0.0600 
    219 H219       -0.3541  -19.0634  -48.1338 H         1 UNK         0.0600 
    220 H220       -4.3178  -20.1626  -48.3563 H         1 UNK         0.3000 
    221 H221       -5.9902  -17.8568  -47.8883 H         1 UNK         0.0600 
    222 H222       -6.6716  -20.8480  -47.9345 H         1 UNK         0.0600 
    223 H223       -6.1627  -19.9289  -46.5183 H         1 UNK         0.0600 
    224 H224       -7.6947  -19.5678  -47.2986 H         1 UNK         0.0600 
    225 H225       -5.8236  -20.3868  -50.4167 H         1 UNK         0.3000 
    226 H226       -7.9555  -19.3424  -52.0481 H         1 UNK         0.0600 
    227 H227       -7.2092  -21.7217  -52.1058 H         1 UNK         0.0600 
    228 H228       -7.0524  -20.9909  -53.6961 H         1 UNK         0.0600 
    229 H229       -5.6232  -21.2292  -52.6967 H         1 UNK         0.0600 
    230 H230       -4.7049  -18.3486  -51.5648 H         1 UNK         0.3000 
    231 H231       -3.2585  -16.9582  -52.4683 H         1 UNK         0.0600 
    232 H232       -5.5552  -15.7286  -54.0881 H         1 UNK         0.0600 
    233 H233       -4.0145  -14.9759  -53.6967 H         1 UNK         0.0600 
    234 H234       -5.1710  -15.3128  -52.4193 H         1 UNK         0.0600 
    235 H235       -3.2981  -19.4657  -53.4747 H         1 UNK         0.3000 
    236 H236       -3.5789  -19.7736  -56.2750 H         1 UNK         0.0600 
    237 H237       -1.9676  -21.4161  -54.2449 H         1 UNK         0.0600 
    238 H238       -3.6754  -21.6384  -54.6236 H         1 UNK         0.0600 
    239 H239       -2.4544  -21.9641  -55.8447 H         1 UNK         0.0600 
    240 H240       -0.9832  -18.4559  -54.4416 H         1 UNK         0.3000 
    241 H241        1.0689  -18.7283  -56.5202 H         1 UNK         0.0600 
    242 H242       -0.8579  -15.2904  -57.1588 H         1 UNK         0.3800 
    243 H243       -1.6032  -16.6059  -56.2885 H         1 UNK         0.3800 
    244 H244        1.1754  -17.3131  -53.8086 H         1 UNK         0.0800 
    245 H245        2.5181  -17.4908  -54.9016 H         1 UNK         0.0800 
    246 H246       -0.1808  -19.4577  -52.8469 H         1 UNK         0.0800 
    247 H247        0.7164  -20.8515  -52.3249 H         1 UNK         0.0800 
@<TRIPOS>BOND
     1    1    2 1    
     2    1  127 1    
     3    1  128 1    
     4    1  129 1    
     5    2    3 2    
     6    2    4 am   BACKBONE|DICT|INTERRES
     7    4    5 1    
     8    4  130 1    
     9    5    6 1    
    10    5   65 1    
    11    5  131 1    
    12    6    7 1    
    13    6  132 1    
    14    6  133 1    
    15    7    8 1    
    16    8    9 1    
    17    8  134 1    
    18    8  135 1    
    19    9   10 ar   
    20    9   14 ar   
    21   10   11 ar   
    22   10  136 1    
    23   11   12 ar   
    24   11  126 1    
    25   12   13 ar   
    26   12  137 1    
    27   13   14 ar   
    28   13   15 1    
    29   14  138 1    
    30   15   16 1    
    31   15  139 1    
    32   15  140 1    
    33   16   17 1    
    34   17   18 1    
    35   17  141 1    
    36   17  142 1    
    37   18   19 1    
    38   18   67 1    
    39   18  143 1    
    40   19   20 am   BACKBONE|DICT|INTERRES
    41   19  144 1    
    42   20   21 2    
    43   20   22 1    
    44   22   23 1    
    45   22   24 1    
    46   22  145 1    
    47   23  146 1    
    48   23  147 1    
    49   23  148 1    
    50   24   25 am   BACKBONE|DICT|INTERRES
    51   24  149 1    
    52   25   26 2    
    53   25   27 1    
    54   27   28 1    
    55   27   29 1    
    56   27  150 1    
    57   28  151 1    
    58   28  152 1    
    59   28  153 1    
    60   29   30 am   BACKBONE|DICT|INTERRES
    61   29  154 1    
    62   30   31 2    
    63   30   32 1    
    64   32   33 1    
    65   32   34 1    
    66   32  155 1    
    67   33  156 1    
    68   33  157 1    
    69   33  158 1    
    70   34   35 am   BACKBONE|DICT|INTERRES
    71   34  159 1    
    72   35   36 2    
    73   35   37 1    
    74   37   38 1    
    75   37   39 1    
    76   37  160 1    
    77   38  161 1    
    78   38  162 1    
    79   38  163 1    
    80   39   40 am   BACKBONE|DICT|INTERRES
    81   39  164 1    
    82   40   41 2    
    83   40   42 1    
    84   42   43 1    
    85   42   44 1    
    86   42  165 1    
    87   43  166 1    
    88   43  167 1    
    89   43  168 1    
    90   44   45 am   BACKBONE|DICT|INTERRES
    91   44  169 1    
    92   45   46 2    
    93   45   47 1    
    94   47   48 1    
    95   47   49 1    
    96   47  170 1    
    97   48  171 1    
    98   48  172 1    
    99   48  173 1    
   100   49   50 am   BACKBONE|DICT|INTERRES
   101   49  174 1    
   102   50   51 2    
   103   50   52 1    
   104   52   53 1    
   105   52   54 1    
   106   52  175 1    
   107   53  176 1    
   108   53  177 1    
   109   53  178 1    
   110   54   55 am   BACKBONE|DICT|INTERRES
   111   54  179 1    
   112   55   56 2    
   113   55   57 1    
   114   57   58 1    
   115   57   59 1    
   116   57  180 1    
   117   58  181 1    
   118   58  182 1    
   119   58  183 1    
   120   59   60 am   BACKBONE|DICT|INTERRES
   121   59  184 1    
   122   60   61 2    
   123   60   62 1    
   124   62   63 1    
   125   62   64 1    
   126   62  185 1    
   127   63  186 1    
   128   63  187 1    
   129   63  188 1    
   130   64   65 am   BACKBONE|DICT|INTERRES
   131   64  189 1    
   132   65   66 2    
   133   67   68 2    
   134   67   69 am   BACKBONE|DICT|INTERRES
   135   69   70 1    
   136   69  190 1    
   137   70   71 1    
   138   70   72 1    
   139   70  191 1    
   140   71  192 1    
   141   71  193 1    
   142   71  194 1    
   143   72   73 2    
   144   72   74 am   BACKBONE|DICT|INTERRES
   145   74   75 1    
   146   74  195 1    
   147   75   76 1    
   148   75   77 1    
   149   75  196 1    
   150   76  197 1    
   151   76  198 1    
   152   76  199 1    
   153   77   78 2    
   154   77   79 am   BACKBONE|DICT|INTERRES
   155   79   80 1    
   156   79  200 1    
   157   80   81 1    
   158   80   82 1    
   159   80  201 1    
   160   81  202 1    
   161   81  203 1    
   162   81  204 1    
   163   82   83 2    
   164   82   84 am   BACKBONE|DICT|INTERRES
   165   84   85 1    
   166   84  205 1    
   167   85   86 1    
   168   85   87 1    
   169   85  206 1    
   170   86  207 1    
   171   86  208 1    
   172   86  209 1    
   173   87   88 2    
   174   87   89 am   BACKBONE|DICT|INTERRES
   175   89   90 1    
   176   89  210 1    
   177   90   91 1    
   178   90   92 1    
   179   90  211 1    
   180   91  212 1    
   181   91  213 1    
   182   91  214 1    
   183   92   93 2    
   184   92   94 am   BACKBONE|DICT|INTERRES
   185   94   95 1    
   186   94  215 1    
   187   95   96 1    
   188   95   97 1    
   189   95  216 1    
   190   96  217 1    
   191   96  218 1    
   192   96  219 1    
   193   97   98 2    
   194   97   99 am   BACKBONE|DICT|INTERRES
   195   99  100 1    
   196   99  220 1    
   197  100  101 1    
   198  100  102 1    
   199  100  221 1    
   200  101  222 1    
   201  101  223 1    
   202  101  224 1    
   203  102  103 2    
   204  102  104 am   BACKBONE|DICT|INTERRES
   205  104  105 1    
   206  104  225 1    
   207  105  106 1    
   208  105  107 1    
   209  105  226 1    
   210  106  227 1    
   211  106  228 1    
   212  106  229 1    
   213  107  108 2    
   214  107  109 am   BACKBONE|DICT|INTERRES
   215  109  110 1    
   216  109  230 1    
   217  110  111 1    
   218  110  112 1    
   219  110  231 1    
   220  111  232 1    
   221  111  233 1    
   222  111  234 1    
   223  112  113 2    
   224  112  114 am   BACKBONE|DICT|INTERRES
   225  114  115 1    
   226  114  235 1    
   227  115  116 1    
   228  115  117 1    
   229  115  236 1    
   230  116  237 1    
   231  116  238 1    
   232  116  239 1    
   233  117  118 2    
   234  117  119 am   BACKBONE|DICT|INTERRES
   235  119  120 1    
   236  119  240 1    
   237  120  121 1    
   238  120  124 1    
   239  120  241 1    
   240  121  122 am   BACKBONE|DICT|INTERRES
   241  121  123 2    
   242  122  242 1    
   243  122  243 1    
   244  124  125 1    
   245  124  244 1    
   246  124  245 1    
   247  125  126 1    
   248  126  246 1    
   249  126  247 1    
@<TRIPOS>SUBSTRUCTURE
     1 UNK         1 GROUP             0       ****    0 ROOT    
