@<TRIPOS>MOLECULE
3R540
247   249    1
SMALL
USER_CHARGES


@<TRIPOS>ATOM
      1 CA         -1.4197  -15.1388  -53.3210 C.3       0 UNK        -0.1800 
      2 C          -0.7330  -15.5728  -52.0350 C.2       0 UNK         0.5000 
      3 O           0.2055  -16.3678  -52.0718 O.2       0 UNK        -0.5000 
      4 N          -1.2081  -15.0581  -50.8972 N.am      1 UNK        -0.5000 
      5 CA         -0.6351  -15.2935  -49.5707 C.3       1 UNK         0.1400 
      6 C6         -1.6833  -15.0648  -48.4534 C.3       23 UNK        -0.0398 
      7 S7         -3.0390  -16.2725  -48.5737 S.3       23 UNK        -0.2404 
      8 C8         -4.1782  -15.6850  -47.2876 C.3       23 UNK        -0.0205 
      9 C9         -5.3469  -16.6450  -47.1196 C.ar      23 UNK        -0.0193 
     10 C10        -6.6249  -16.2838  -47.5529 C.ar      23 UNK        -0.1150 
     11 C11        -7.7006  -17.1666  -47.4142 C.ar      23 UNK        -0.0193 
     12 C12        -7.4920  -18.4124  -46.8143 C.ar      23 UNK        -0.1150 
     13 C13        -6.2208  -18.7826  -46.3635 C.ar      23 UNK        -0.0193 
     14 C14        -5.1525  -17.8940  -46.5222 C.ar      23 UNK        -0.1150 
     15 C15        -6.0046  -20.1161  -45.6583 C.3       23 UNK        -0.0205 
     16 S16        -6.5302  -21.5733  -46.6224 S.3       23 UNK        -0.2404 
     17 C17        -5.5521  -21.4587  -48.1652 C.3       23 UNK        -0.0398 
     18 CA         -4.1365  -22.0927  -48.1217 C.3       11 UNK         0.1400 
     19 N          -3.2208  -21.3051  -47.2959 N.am      11 UNK        -0.5000 
     20 C          -1.8907  -21.4446  -47.2595 C.2       10 UNK         0.5000 
     21 O          -1.2561  -22.2475  -47.9446 O.2       10 UNK        -0.5000 
     22 CA         -1.1388  -20.5600  -46.2546 C.3       10 UNK         0.1400 
     23 CB         -0.6994  -19.2633  -46.9379 C.3       10 UNK        -0.1800 
     24 N          -1.8673  -20.2399  -45.0198 N.am      10 UNK        -0.5000 
     25 C          -2.3764  -21.1382  -44.1604 C.2       9 UNK         0.5000 
     26 O          -2.4554  -22.3399  -44.4143 O.2       9 UNK        -0.5000 
     27 CA         -2.8786  -20.6431  -42.7922 C.3       9 UNK         0.1400 
     28 CB         -2.0566  -21.2853  -41.6626 C.3       9 UNK        -0.1800 
     29 N          -2.7936  -19.1897  -42.6604 N.am      9 UNK        -0.5000 
     30 C          -3.8373  -18.3513  -42.7230 C.2       8 UNK         0.5000 
     31 O          -5.0017  -18.7252  -42.8584 O.2       8 UNK        -0.5000 
     32 CA         -3.5476  -16.8386  -42.6154 C.3       8 UNK         0.1400 
     33 CB         -3.9558  -16.3111  -41.2312 C.3       8 UNK        -0.1800 
     34 N          -2.1514  -16.4715  -42.8640 N.am      8 UNK        -0.5000 
     35 C          -1.5176  -16.6198  -44.0341 C.2       7 UNK         0.5000 
     36 O          -2.0433  -17.0941  -45.0374 O.2       7 UNK        -0.5000 
     37 CA         -0.0266  -16.2510  -44.0681 C.3       7 UNK         0.1400 
     38 CB          0.1656  -14.7677  -44.4141 C.3       7 UNK        -0.1800 
     39 N           0.6907  -16.5563  -42.8310 N.am      7 UNK        -0.5000 
     40 C           0.8157  -17.7681  -42.2744 C.2       6 UNK         0.5000 
     41 O           0.2199  -18.7659  -42.6848 O.2       6 UNK        -0.5000 
     42 CA          1.7876  -17.8715  -41.0782 C.3       6 UNK         0.1400 
     43 CB          1.9743  -19.3215  -40.5956 C.3       6 UNK        -0.1800 
     44 N           3.1022  -17.3101  -41.4031 N.am      6 UNK        -0.5000 
     45 C           3.4122  -16.0063  -41.4444 C.2       5 UNK         0.5000 
     46 O           2.6210  -15.1125  -41.1404 O.2       5 UNK        -0.5000 
     47 CA          4.8171  -15.6337  -41.9568 C.3       5 UNK         0.1400 
     48 CB          5.7841  -15.4388  -40.7792 C.3       5 UNK        -0.1800 
     49 N           5.3823  -16.6184  -42.8848 N.am      5 UNK        -0.5000 
     50 C           4.9084  -16.8792  -44.1108 C.2       4 UNK         0.5000 
     51 O           3.9299  -16.3164  -44.6079 O.2       4 UNK        -0.5000 
     52 CA          5.6366  -17.9844  -44.8875 C.3       4 UNK         0.1400 
     53 CB          5.2055  -19.3699  -44.3758 C.3       4 UNK        -0.1800 
     54 N           5.3167  -17.8862  -46.3095 N.am      4 UNK        -0.5000 
     55 C           6.2050  -17.9063  -47.3107 C.2       3 UNK         0.5000 
     56 O           7.4206  -18.0046  -47.1373 O.2       3 UNK        -0.5000 
     57 CA          5.6607  -17.8345  -48.7539 C.3       3 UNK         0.1400 
     58 CB          5.9433  -19.1548  -49.4891 C.3       3 UNK        -0.1800 
     59 N           4.2248  -17.5405  -48.8265 N.am      3 UNK        -0.5000 
     60 C           3.7004  -16.3130  -48.7423 C.2       2 UNK         0.5000 
     61 O           4.3708  -15.2823  -48.6358 O.2       2 UNK        -0.5000 
     62 CA          2.1672  -16.2335  -48.7384 C.3       2 UNK         0.1400 
     63 CB          1.6265  -16.6865  -47.3726 C.3       2 UNK        -0.1800 
     64 N           1.7724  -14.8516  -48.9973 N.am      2 UNK        -0.5000 
     65 C           0.5875  -14.3629  -49.3855 C.2       1 UNK         0.5000 
     66 O           0.4413  -13.1585  -49.5988 O.2       1 UNK        -0.5000 
     67 C          -4.1591  -23.5943  -47.7452 C.2       11 UNK         0.5000 
     68 O          -4.4250  -24.4261  -48.6133 O.2       11 UNK        -0.5000 
     69 N          -3.8662  -23.9112  -46.4754 N.am      12 UNK        -0.5000 
     70 CA         -3.8105  -25.2691  -45.9353 C.3       12 UNK         0.1400 
     71 CB         -4.5766  -25.3047  -44.6037 C.3       12 UNK        -0.1800 
     72 C          -2.3582  -25.7311  -45.7288 C.2       12 UNK         0.5000 
     73 O          -2.0520  -26.8973  -45.9776 O.2       12 UNK        -0.5000 
     74 N          -1.4872  -24.8125  -45.2869 N.am      13 UNK        -0.5000 
     75 CA         -0.0707  -25.0547  -45.0010 C.3       13 UNK         0.1400 
     76 CB          0.4613  -23.9035  -44.1317 C.3       13 UNK        -0.1800 
     77 C           0.8034  -25.2259  -46.2596 C.2       13 UNK         0.5000 
     78 O           1.9385  -25.6873  -46.1387 O.2       13 UNK        -0.5000 
     79 N           0.2710  -24.8432  -47.4301 N.am      14 UNK        -0.5000 
     80 CA          0.9004  -24.8912  -48.7540 C.3       14 UNK         0.1400 
     81 CB          1.2773  -26.3324  -49.1554 C.3       14 UNK        -0.1800 
     82 C           2.0660  -23.8923  -48.9100 C.2       14 UNK         0.5000 
     83 O           2.9644  -24.1100  -49.7244 O.2       14 UNK        -0.5000 
     84 N           2.0088  -22.7778  -48.1678 N.am      15 UNK        -0.5000 
     85 CA          2.9763  -21.6795  -48.2095 C.3       15 UNK         0.1400 
     86 CB          2.9594  -20.9453  -46.8577 C.3       15 UNK        -0.1800 
     87 C           2.6608  -20.7450  -49.3923 C.2       15 UNK         0.5000 
     88 O           2.1798  -19.6310  -49.1851 O.2       15 UNK        -0.5000 
     89 N           2.8913  -21.2558  -50.6096 N.am      16 UNK        -0.5000 
     90 CA          2.4290  -20.7556  -51.9157 C.3       16 UNK         0.1400 
     91 CB          2.7100  -19.2520  -52.1245 C.3       16 UNK        -0.1800 
     92 C           0.9547  -21.1149  -52.2010 C.2       16 UNK         0.5000 
     93 O           0.4080  -20.6899  -53.2203 O.2       16 UNK        -0.5000 
     94 N           0.3367  -21.8945  -51.2976 N.am      17 UNK        -0.5000 
     95 CA         -1.0178  -22.4592  -51.3579 C.3       17 UNK         0.1400 
     96 CB         -1.0944  -23.5318  -52.4633 C.3       17 UNK        -0.1800 
     97 C          -2.1338  -21.4061  -51.4907 C.2       17 UNK         0.5000 
     98 O          -3.2174  -21.7314  -51.9758 O.2       17 UNK        -0.5000 
     99 N          -1.8366  -20.1541  -51.1078 N.am      18 UNK        -0.5000 
    100 CA        -2.6622  -18.9584  -51.3076 C.3       18 UNK         0.1400 
    101 CB        -3.9063  -19.0275  -50.4049 C.3       18 UNK        -0.1800 
    102 C         -3.0199  -18.7156  -52.7932 C.2       18 UNK         0.5000 
    103 O         -4.1027  -18.2068  -53.0899 O.2       18 UNK        -0.5000 
    104 N         -2.1291  -19.1426  -53.7045 N.am      19 UNK        -0.5000 
    105 CA        -2.3129  -19.2084  -55.1600 C.3       19 UNK         0.1400 
    106 CB        -2.3602  -17.7941  -55.7730 C.3       19 UNK        -0.1800 
    107 C         -3.5100  -20.0907  -55.5872 C.2       19 UNK         0.5000 
    108 O         -4.1234  -19.8333  -56.6241 O.2       19 UNK        -0.5000 
    109 N         -3.8239  -21.1073  -54.7674 N.am      20 UNK        -0.5000 
    110 CA        -4.9690  -22.0191  -54.8615 C.3       20 UNK         0.1400 
    111 CB        -4.9061  -22.8684  -56.1486 C.3       20 UNK        -0.1800 
    112 C         -6.3290  -21.3134  -54.6631 C.2       20 UNK         0.5000 
    113 O         -7.3495  -21.8008  -55.1534 O.2       20 UNK        -0.5000 
    114 N         -6.3257  -20.1869  -53.9408 N.am      21 UNK        -0.5000 
    115 CA        -7.4941  -19.3718  -53.6368 C.3       21 UNK         0.1400 
    116 CB        -7.7419  -18.3763  -54.7916 C.3       21 UNK        -0.1800 
    117 C         -7.2866  -18.7227  -52.2574 C.2       21 UNK         0.5000 
    118 O         -7.1654  -19.4471  -51.2689 O.2       21 UNK        -0.5000 
    119 N         -7.2455  -17.3877  -52.2199 N.am      22 UNK        -0.5000 
    120 CA        -7.0286  -16.5448  -51.0343 C.3       22 UNK         0.1400 
    121 C         -5.9578  -15.4455  -51.3089 C.2       22 UNK         0.5000 
    122 N         -5.0255  -15.6499  -52.2316 N.am      22 UNK        -0.7600 
    123 O         -5.9655  -14.3848  -50.6904 O.2       22 UNK        -0.5000 
    124 C124       -8.3685  -15.9620  -50.5002 C.3       23 UNK        -0.0398 
    125 S125       -9.3858  -17.2051  -49.6326 S.3       23 UNK        -0.2404 
    126 C126       -9.0924  -16.7674  -47.8867 C.3       23 UNK        -0.0205 
    127 H127       -0.7073  -15.1186  -54.1458 H         1 UNK         0.0600 
    128 H128       -1.8513  -14.1423  -53.2244 H         1 UNK         0.0600 
    129 H129       -2.2182  -15.8355  -53.5721 H         1 UNK         0.0600 
    130 H130       -1.9671  -14.3936  -50.9272 H         1 UNK         0.3000 
    131 H131       -0.3321  -16.3390  -49.5231 H         1 UNK         0.0600 
    132 H132       -2.0969  -14.0560  -48.5044 H         1 UNK         0.0800 
    133 H133       -1.2325  -15.1672  -47.4662 H         1 UNK         0.0800 
    134 H134       -3.6511  -15.5819  -46.3398 H         1 UNK         0.0800 
    135 H135       -4.5323  -14.6884  -47.5555 H         1 UNK         0.0800 
    136 H136       -6.7785  -15.3146  -48.0050 H         1 UNK         0.1150 
    137 H137       -8.3216  -19.0944  -46.6912 H         1 UNK         0.1150 
    138 H138       -4.1653  -18.1639  -46.1749 H         1 UNK         0.1150 
    139 H139       -4.9631  -20.2361  -45.3649 H         1 UNK         0.0800 
    140 H140       -6.5721  -20.1025  -44.7268 H         1 UNK         0.0800 
    141 H141       -5.4903  -20.4134  -48.4666 H         1 UNK         0.0800 
    142 H142       -6.1347  -21.9404  -48.9522 H         1 UNK         0.0800 
    143 H143       -3.7445  -22.0470  -49.1387 H         1 UNK         0.0600 
    144 H144       -3.6428  -20.6218  -46.6872 H         1 UNK         0.3000 
    145 H145       -0.2420  -21.1055  -45.9602 H         1 UNK         0.0600 
    146 H146       -0.0597  -18.6886  -46.2720 H         1 UNK         0.0600 
    147 H147       -0.1326  -19.4633  -47.8475 H         1 UNK         0.0600 
    148 H148       -1.5519  -18.6411  -47.2127 H         1 UNK         0.0600 
    149 H149       -1.8816  -19.2618  -44.7577 H         1 UNK         0.3000 
    150 H150       -3.9122  -20.9794  -42.6901 H         1 UNK         0.0600 
    151 H151       -2.1328  -22.3732  -41.6907 H         1 UNK         0.0600 
    152 H152       -2.4114  -20.9615  -40.6841 H         1 UNK         0.0600 
    153 H153       -0.9990  -21.0297  -41.7373 H         1 UNK         0.0600 
    154 H154       -1.8573  -18.8110  -42.5637 H         1 UNK         0.3000 
    155 H155       -4.1624  -16.3404  -43.3682 H         1 UNK         0.0600 
    156 H156       -3.3586  -16.7619  -40.4376 H         1 UNK         0.0600 
    157 H157       -5.0028  -16.5330  -41.0206 H         1 UNK         0.0600 
    158 H158       -3.8368  -15.2292  -41.1697 H         1 UNK         0.0600 
    159 H159       -1.6325  -16.0983  -42.0827 H         1 UNK         0.3000 
    160 H160        0.4343  -16.8490  -44.8536 H         1 UNK         0.0600 
    161 H161        1.2216  -14.5300  -44.5468 H         1 UNK         0.0600 
    162 H162       -0.2292  -14.1180  -43.6322 H         1 UNK         0.0600 
    163 H163       -0.3431  -14.5107  -45.3433 H         1 UNK         0.0600 
    164 H164        1.2230  -15.7998  -42.4146 H         1 UNK         0.3000 
    165 H165        1.3511  -17.2997  -40.2568 H         1 UNK         0.0600 
    166 H166        2.6364  -19.3672  -39.7308 H         1 UNK         0.0600 
    167 H167        1.0217  -19.7608  -40.2963 H         1 UNK         0.0600 
    168 H168        2.3973  -19.9544  -41.3768 H         1 UNK         0.0600 
    169 H169        3.8054  -17.9689  -41.7020 H         1 UNK         0.3000 
    170 H170        4.7294  -14.6834  -42.4878 H         1 UNK         0.0600 
    171 H171        5.4045  -14.6909  -40.0817 H         1 UNK         0.0600 
    172 H172        5.9306  -16.3641  -40.2205 H         1 UNK         0.0600 
    173 H173        6.7599  -15.0944  -41.1223 H         1 UNK         0.0600 
    174 H174        6.1887  -17.1293  -42.5544 H         1 UNK         0.3000 
    175 H175        6.7093  -17.8592  -44.7257 H         1 UNK         0.0600 
    176 H176        4.1249  -19.5052  -44.4410 H         1 UNK         0.0600 
    177 H177        5.6781  -20.1669  -44.9502 H         1 UNK         0.0600 
    178 H178        5.4907  -19.5116  -43.3329 H         1 UNK         0.0600 
    179 H179        4.3470  -17.7000  -46.5205 H         1 UNK         0.3000 
    180 H180        6.2092  -17.0423  -49.2679 H         1 UNK         0.0600 
    181 H181        5.4752  -20.0028  -48.9906 H         1 UNK         0.0600 
    182 H182        7.0146  -19.3560  -49.5298 H         1 UNK         0.0600 
    183 H183        5.5871  -19.1233  -50.5175 H         1 UNK         0.0600 
    184 H184        3.5924  -18.3298  -48.9260 H         1 UNK         0.3000 
    185 H185        1.8007  -16.8832  -49.5353 H         1 UNK         0.0600 
    186 H186        1.9472  -17.7020  -47.1383 H         1 UNK         0.0600 
    187 H187        1.9857  -16.0388  -46.5723 H         1 UNK         0.0600 
    188 H188        0.5398  -16.6794  -47.3432 H         1 UNK         0.0600 
    189 H189        2.5556  -14.2151  -48.9122 H         1 UNK         0.3000 
    190 H190       -3.6165  -23.1673  -45.8336 H         1 UNK         0.3000 
    191 H191       -4.2908  -25.9716  -46.6195 H         1 UNK         0.0600 
    192 H192       -4.5637  -26.3062  -44.1717 H         1 UNK         0.0600 
    193 H193       -5.6206  -25.0243  -44.7447 H         1 UNK         0.0600 
    194 H194       -4.1444  -24.6234  -43.8695 H         1 UNK         0.0600 
    195 H195       -1.8368  -23.8866  -45.0488 H         1 UNK         0.3000 
    196 H196        0.0061  -25.9790  -44.4247 H         1 UNK         0.0600 
    197 H197        1.4979  -24.0778  -43.8408 H         1 UNK         0.0600 
    198 H198       -0.1194  -23.7995  -43.2147 H         1 UNK         0.0600 
    199 H199        0.4257  -22.9507  -44.6589 H         1 UNK         0.0600 
    200 H200       -0.6501  -24.4246  -47.4047 H         1 UNK         0.3000 
    201 H201        0.1328  -24.5631  -49.4531 H         1 UNK         0.0600 
    202 H202        0.4353  -27.0118  -49.0224 H         1 UNK         0.0600 
    203 H203        2.1137  -26.7144  -48.5697 H         1 UNK         0.0600 
    204 H204        1.5687  -26.3808  -50.2052 H         1 UNK         0.0600 
    205 H205        1.2056  -22.6539  -47.5680 H         1 UNK         0.3000 
    206 H206        3.9803  -22.0838  -48.3560 H         1 UNK         0.0600 
    207 H207        3.2134  -21.6191  -46.0392 H         1 UNK         0.0600 
    208 H208        3.6899  -20.1374  -46.8516 H         1 UNK         0.0600 
    209 H209        1.9862  -20.5066  -46.6405 H         1 UNK         0.0600 
    210 H210        3.2811  -22.1927  -50.6350 H         1 UNK         0.3000 
    211 H211        3.0146  -21.2982  -52.6590 H         1 UNK         0.0600 
    212 H212        2.0536  -18.6220  -51.5239 H         1 UNK         0.0600 
    213 H213        2.5480  -18.9711  -53.1656 H         1 UNK         0.0600 
    214 H214        3.7402  -18.9986  -51.8815 H         1 UNK         0.0600 
    215 H215        0.8700  -22.1353  -50.4765 H         1 UNK         0.3000 
    216 H216       -1.1985  -22.9570  -50.4071 H         1 UNK         0.0600 
    217 H217       -2.0472  -24.0619  -52.4336 H         1 UNK         0.0600 
    218 H218       -0.3085  -24.2777  -52.3436 H         1 UNK         0.0600 
    219 H219       -0.9939  -23.0951  -53.4576 H         1 UNK         0.0600 
    220 H220       -0.9122  -19.9907  -50.7353 H         1 UNK         0.3000 
    221 H221       -2.0632  -18.1050  -50.9890 H         1 UNK         0.0600 
    222 H222       -4.5717  -19.8410  -50.6916 H         1 UNK         0.0600 
    223 H223       -3.6249  -19.1709  -49.3622 H         1 UNK         0.0600 
    224 H224       -4.4795  -18.1037  -50.4584 H         1 UNK         0.0600 
    225 H225       -1.2691  -19.5674  -53.3692 H         1 UNK         0.3000 
    226 H226       -1.4239  -19.7050  -55.5513 H         1 UNK         0.0600 
    227 H227       -2.3812  -17.8386  -56.8623 H         1 UNK         0.0600 
    228 H228       -3.2433  -17.2411  -55.4522 H         1 UNK         0.0600 
    229 H229       -1.4783  -17.2180  -55.4948 H         1 UNK         0.0600 
    230 H230       -3.2928  -21.2061  -53.9085 H         1 UNK         0.3000 
    231 H231       -4.8690  -22.7045  -54.0188 H         1 UNK         0.0600 
    232 H232       -3.9330  -23.3470  -56.2582 H         1 UNK         0.0600 
    233 H233       -5.0898  -22.2699  -57.0410 H         1 UNK         0.0600 
    234 H234       -5.6550  -23.6609  -56.1298 H         1 UNK         0.0600 
    235 H235       -5.4510  -19.8441  -53.5598 H         1 UNK         0.3000 
    236 H236       -8.3718  -20.0144  -53.5414 H         1 UNK         0.0600 
    237 H237       -7.9424  -18.9049  -55.7237 H         1 UNK         0.0600 
    238 H238       -8.6085  -17.7444  -54.5935 H         1 UNK         0.0600 
    239 H239       -6.8792  -17.7306  -54.9624 H         1 UNK         0.0600 
    240 H240       -7.3142  -16.8836  -53.0922 H         1 UNK         0.3000 
    241 H241       -6.5895  -17.1526  -50.2427 H         1 UNK         0.0600 
    242 H242       -4.9140  -16.5590  -52.6737 H         1 UNK         0.3800 
    243 H243       -4.3626  -14.9180  -52.4192 H         1 UNK         0.3800 
    244 H244       -8.2061  -15.1269  -49.8191 H         1 UNK         0.0800 
    245 H245       -8.9530  -15.5501  -51.3240 H         1 UNK         0.0800 
    246 H246       -9.2517  -15.6982  -47.7390 H         1 UNK         0.0800 
    247 H247       -9.8438  -17.2676  -47.2739 H         1 UNK         0.0800 
@<TRIPOS>BOND
     1    1    2 1    
     2    1  127 1    
     3    1  128 1    
     4    1  129 1    
     5    2    3 2    
     6    2    4 am   BACKBONE|DICT|INTERRES
     7    4    5 1    
     8    4  130 1    
     9    5    6 1    
    10    5   65 1    
    11    5  131 1    
    12    6    7 1    
    13    6  132 1    
    14    6  133 1    
    15    7    8 1    
    16    8    9 1    
    17    8  134 1    
    18    8  135 1    
    19    9   10 ar   
    20    9   14 ar   
    21   10   11 ar   
    22   10  136 1    
    23   11   12 ar   
    24   11  126 1    
    25   12   13 ar   
    26   12  137 1    
    27   13   14 ar   
    28   13   15 1    
    29   14  138 1    
    30   15   16 1    
    31   15  139 1    
    32   15  140 1    
    33   16   17 1    
    34   17   18 1    
    35   17  141 1    
    36   17  142 1    
    37   18   19 1    
    38   18   67 1    
    39   18  143 1    
    40   19   20 am   BACKBONE|DICT|INTERRES
    41   19  144 1    
    42   20   21 2    
    43   20   22 1    
    44   22   23 1    
    45   22   24 1    
    46   22  145 1    
    47   23  146 1    
    48   23  147 1    
    49   23  148 1    
    50   24   25 am   BACKBONE|DICT|INTERRES
    51   24  149 1    
    52   25   26 2    
    53   25   27 1    
    54   27   28 1    
    55   27   29 1    
    56   27  150 1    
    57   28  151 1    
    58   28  152 1    
    59   28  153 1    
    60   29   30 am   BACKBONE|DICT|INTERRES
    61   29  154 1    
    62   30   31 2    
    63   30   32 1    
    64   32   33 1    
    65   32   34 1    
    66   32  155 1    
    67   33  156 1    
    68   33  157 1    
    69   33  158 1    
    70   34   35 am   BACKBONE|DICT|INTERRES
    71   34  159 1    
    72   35   36 2    
    73   35   37 1    
    74   37   38 1    
    75   37   39 1    
    76   37  160 1    
    77   38  161 1    
    78   38  162 1    
    79   38  163 1    
    80   39   40 am   BACKBONE|DICT|INTERRES
    81   39  164 1    
    82   40   41 2    
    83   40   42 1    
    84   42   43 1    
    85   42   44 1    
    86   42  165 1    
    87   43  166 1    
    88   43  167 1    
    89   43  168 1    
    90   44   45 am   BACKBONE|DICT|INTERRES
    91   44  169 1    
    92   45   46 2    
    93   45   47 1    
    94   47   48 1    
    95   47   49 1    
    96   47  170 1    
    97   48  171 1    
    98   48  172 1    
    99   48  173 1    
   100   49   50 am   BACKBONE|DICT|INTERRES
   101   49  174 1    
   102   50   51 2    
   103   50   52 1    
   104   52   53 1    
   105   52   54 1    
   106   52  175 1    
   107   53  176 1    
   108   53  177 1    
   109   53  178 1    
   110   54   55 am   BACKBONE|DICT|INTERRES
   111   54  179 1    
   112   55   56 2    
   113   55   57 1    
   114   57   58 1    
   115   57   59 1    
   116   57  180 1    
   117   58  181 1    
   118   58  182 1    
   119   58  183 1    
   120   59   60 am   BACKBONE|DICT|INTERRES
   121   59  184 1    
   122   60   61 2    
   123   60   62 1    
   124   62   63 1    
   125   62   64 1    
   126   62  185 1    
   127   63  186 1    
   128   63  187 1    
   129   63  188 1    
   130   64   65 am   BACKBONE|DICT|INTERRES
   131   64  189 1    
   132   65   66 2    
   133   67   68 2    
   134   67   69 am   BACKBONE|DICT|INTERRES
   135   69   70 1    
   136   69  190 1    
   137   70   71 1    
   138   70   72 1    
   139   70  191 1    
   140   71  192 1    
   141   71  193 1    
   142   71  194 1    
   143   72   73 2    
   144   72   74 am   BACKBONE|DICT|INTERRES
   145   74   75 1    
   146   74  195 1    
   147   75   76 1    
   148   75   77 1    
   149   75  196 1    
   150   76  197 1    
   151   76  198 1    
   152   76  199 1    
   153   77   78 2    
   154   77   79 am   BACKBONE|DICT|INTERRES
   155   79   80 1    
   156   79  200 1    
   157   80   81 1    
   158   80   82 1    
   159   80  201 1    
   160   81  202 1    
   161   81  203 1    
   162   81  204 1    
   163   82   83 2    
   164   82   84 am   BACKBONE|DICT|INTERRES
   165   84   85 1    
   166   84  205 1    
   167   85   86 1    
   168   85   87 1    
   169   85  206 1    
   170   86  207 1    
   171   86  208 1    
   172   86  209 1    
   173   87   88 2    
   174   87   89 am   BACKBONE|DICT|INTERRES
   175   89   90 1    
   176   89  210 1    
   177   90   91 1    
   178   90   92 1    
   179   90  211 1    
   180   91  212 1    
   181   91  213 1    
   182   91  214 1    
   183   92   93 2    
   184   92   94 am   BACKBONE|DICT|INTERRES
   185   94   95 1    
   186   94  215 1    
   187   95   96 1    
   188   95   97 1    
   189   95  216 1    
   190   96  217 1    
   191   96  218 1    
   192   96  219 1    
   193   97   98 2    
   194   97   99 am   BACKBONE|DICT|INTERRES
   195   99  100 1    
   196   99  220 1    
   197  100  101 1    
   198  100  102 1    
   199  100  221 1    
   200  101  222 1    
   201  101  223 1    
   202  101  224 1    
   203  102  103 2    
   204  102  104 am   BACKBONE|DICT|INTERRES
   205  104  105 1    
   206  104  225 1    
   207  105  106 1    
   208  105  107 1    
   209  105  226 1    
   210  106  227 1    
   211  106  228 1    
   212  106  229 1    
   213  107  108 2    
   214  107  109 am   BACKBONE|DICT|INTERRES
   215  109  110 1    
   216  109  230 1    
   217  110  111 1    
   218  110  112 1    
   219  110  231 1    
   220  111  232 1    
   221  111  233 1    
   222  111  234 1    
   223  112  113 2    
   224  112  114 am   BACKBONE|DICT|INTERRES
   225  114  115 1    
   226  114  235 1    
   227  115  116 1    
   228  115  117 1    
   229  115  236 1    
   230  116  237 1    
   231  116  238 1    
   232  116  239 1    
   233  117  118 2    
   234  117  119 am   BACKBONE|DICT|INTERRES
   235  119  120 1    
   236  119  240 1    
   237  120  121 1    
   238  120  124 1    
   239  120  241 1    
   240  121  122 am   BACKBONE|DICT|INTERRES
   241  121  123 2    
   242  122  242 1    
   243  122  243 1    
   244  124  125 1    
   245  124  244 1    
   246  124  245 1    
   247  125  126 1    
   248  126  246 1    
   249  126  247 1    
@<TRIPOS>SUBSTRUCTURE
     1 UNK         1 GROUP             0       ****    0 ROOT    
