@<TRIPOS>MOLECULE
3R540
247   249    1
SMALL
USER_CHARGES


@<TRIPOS>ATOM
      1 CA          0.5014  -11.2646  -51.2914 C.3       0 UNK        -0.1800 
      2 C           1.4872  -12.1969  -50.6026 C.2       0 UNK         0.5000 
      3 O           2.6937  -12.0911  -50.8233 O.2       0 UNK        -0.5000 
      4 N           0.9853  -13.0986  -49.7513 N.am      1 UNK        -0.5000 
      5 CA          1.7430  -14.1070  -48.9977 C.3       1 UNK         0.1400 
      6 C6          0.8752  -15.3560  -48.6890 C.3       23 UNK        -0.0398 
      7 S7         -0.7057  -14.9863  -47.8417 S.3       23 UNK        -0.2404 
      8 C8         -1.9337  -15.2808  -49.1527 C.3       23 UNK        -0.0205 
      9 C9         -2.3355  -16.7455  -49.2770 C.ar      23 UNK        -0.0193 
     10 C10        -1.6414  -17.5999  -50.1363 C.ar      23 UNK        -0.1150 
     11 C11        -2.0766  -18.9118  -50.3408 C.ar      23 UNK        -0.0193 
     12 C12        -3.2036  -19.3746  -49.6582 C.ar      23 UNK        -0.1150 
     13 C13        -3.8909  -18.5472  -48.7601 C.ar      23 UNK        -0.0193 
     14 C14        -3.4471  -17.2324  -48.5827 C.ar      23 UNK        -0.1150 
     15 C15        -5.1504  -19.0018  -48.0174 C.3       23 UNK        -0.0205 
     16 S16        -5.3805  -20.8097  -47.8819 S.3       23 UNK        -0.2404 
     17 C17        -4.3755  -21.2148  -46.4145 C.3       23 UNK        -0.0398 
     18 CA         -2.9204  -21.6285  -46.7713 C.3       11 UNK         0.1400 
     19 N          -1.9365  -20.6286  -46.3560 N.am      11 UNK        -0.5000 
     20 C          -0.6271  -20.6748  -46.6412 C.2       10 UNK         0.5000 
     21 O          -0.0978  -21.5535  -47.3220 O.2       10 UNK        -0.5000 
     22 CA          0.2464  -19.5854  -46.0000 C.3       10 UNK         0.1400 
     23 CB          0.0434  -18.2503  -46.7262 C.3       10 UNK        -0.1800 
     24 N          -0.0331  -19.4280  -44.5711 N.am      10 UNK        -0.5000 
     25 C           0.1298  -20.3947  -43.6547 C.2       9 UNK         0.5000 
     26 O           0.6065  -21.5017  -43.9022 O.2       9 UNK        -0.5000 
     27 CA         -0.3782  -20.0995  -42.2336 C.3       9 UNK         0.1400 
     28 CB          0.6682  -19.3213  -41.4199 C.3       9 UNK        -0.1800 
     29 N          -1.6479  -19.3726  -42.2474 N.am      9 UNK        -0.5000 
     30 C          -2.8150  -19.8964  -42.6518 C.2       8 UNK         0.5000 
     31 O          -2.9503  -21.0598  -43.0299 O.2       8 UNK        -0.5000 
     32 CA         -4.0263  -18.9461  -42.6810 C.3       8 UNK         0.1400 
     33 CB         -4.6648  -18.8388  -41.2884 C.3       8 UNK        -0.1800 
     34 N          -3.6766  -17.6082  -43.1589 N.am      8 UNK        -0.5000 
     35 C          -3.2407  -17.3377  -44.3976 C.2       7 UNK         0.5000 
     36 O          -3.1465  -18.1835  -45.2846 O.2       7 UNK        -0.5000 
     37 CA         -2.7704  -15.8961  -44.6652 C.3       7 UNK         0.1400 
     38 CB         -3.9454  -15.0101  -45.1036 C.3       7 UNK        -0.1800 
     39 N          -2.1076  -15.2908  -43.5057 N.am      7 UNK        -0.5000 
     40 C          -0.9740  -15.7541  -42.9650 C.2       6 UNK         0.5000 
     41 O          -0.3425  -16.7134  -43.4186 O.2       6 UNK        -0.5000 
     42 CA         -0.5112  -15.0866  -41.6636 C.3       6 UNK         0.1400 
     43 CB         -1.3955  -15.5400  -40.4845 C.3       6 UNK        -0.1800 
     44 N           0.8737  -15.4725  -41.4302 N.am      6 UNK        -0.5000 
     45 C           1.7243  -14.9276  -40.5542 C.2       5 UNK         0.5000 
     46 O           1.4303  -14.0030  -39.7956 O.2       5 UNK        -0.5000 
     47 CA          3.1507  -15.5145  -40.5208 C.3       5 UNK         0.1400 
     48 CB          3.2651  -16.5730  -39.4127 C.3       5 UNK        -0.1800 
     49 N           3.5654  -16.1142  -41.7932 N.am      5 UNK        -0.5000 
     50 C           3.7991  -15.4225  -42.9161 C.2       4 UNK         0.5000 
     51 O           3.7170  -14.1941  -42.9905 O.2       4 UNK        -0.5000 
     52 CA          4.1429  -16.2588  -44.1610 C.3       4 UNK         0.1400 
     53 CB          2.8732  -16.9019  -44.7392 C.3       4 UNK        -0.1800 
     54 N           4.7681  -15.4338  -45.1934 N.am      4 UNK        -0.5000 
     55 C           6.0766  -15.1451  -45.2406 C.2       3 UNK         0.5000 
     56 O           6.9026  -15.6093  -44.4529 O.2       3 UNK        -0.5000 
     57 CA          6.5599  -14.1920  -46.3541 C.3       3 UNK         0.1400 
     58 CB          7.1598  -14.9916  -47.5211 C.3       3 UNK        -0.1800 
     59 N           5.5034  -13.3240  -46.8733 N.am      3 UNK        -0.5000 
     60 C           4.9751  -12.2821  -46.2172 C.2       2 UNK         0.5000 
     61 O           5.4017  -11.8717  -45.1374 O.2       2 UNK        -0.5000 
     62 CA          3.7676  -11.5766  -46.8706 C.3       2 UNK         0.1400 
     63 CB          4.1888  -10.2220  -47.4613 C.3       2 UNK        -0.1800 
     64 N           3.0912  -12.3516  -47.9171 N.am      2 UNK        -0.5000 
     65 C           2.4529  -13.5181  -47.7523 C.2       1 UNK         0.5000 
     66 O           2.4381  -14.1228  -46.6801 O.2       1 UNK        -0.5000 
     67 C          -2.5733  -23.0302  -46.2310 C.2       11 UNK         0.5000 
     68 O          -2.5752  -23.9854  -47.0055 O.2       11 UNK        -0.5000 
     69 N          -2.2415  -23.1293  -44.9362 N.am      12 UNK        -0.5000 
     70 CA         -1.8367  -24.3760  -44.2840 C.3       12 UNK         0.1400 
     71 CB         -1.6868  -24.1449  -42.7729 C.3       12 UNK        -0.1800 
     72 C          -0.5499  -24.9825  -44.8754 C.2       12 UNK         0.5000 
     73 O          -0.5032  -26.1914  -45.1054 O.2       12 UNK        -0.5000 
     74 N           0.4568  -24.1360  -45.1313 N.am      13 UNK        -0.5000 
     75 CA          1.7416  -24.5271  -45.7119 C.3       13 UNK         0.1400 
     76 CB          2.7354  -23.3623  -45.5841 C.3       13 UNK        -0.1800 
     77 C           1.6292  -24.9834  -47.1778 C.2       13 UNK         0.5000 
     78 O           2.2444  -25.9828  -47.5515 O.2       13 UNK        -0.5000 
     79 N           0.8502  -24.2470  -47.9801 N.am      14 UNK        -0.5000 
     80 CA          0.6745  -24.4949  -49.4123 C.3       14 UNK         0.1400 
     81 CB          0.2577  -23.1765  -50.0856 C.3       14 UNK        -0.1800 
     82 C          -0.3619  -25.5872  -49.7358 C.2       14 UNK         0.5000 
     83 O          -0.4732  -25.9682  -50.9018 O.2       14 UNK        -0.5000 
     84 N          -1.1602  -26.0051  -48.7396 N.am      15 UNK        -0.5000 
     85 CA         -2.4124  -26.7664  -48.8844 C.3       15 UNK         0.1400 
     86 CB         -2.1424  -28.2053  -49.3692 C.3       15 UNK        -0.1800 
     87 C          -3.4165  -25.9975  -49.7734 C.2       15 UNK         0.5000 
     88 O          -4.0182  -26.5566  -50.6931 O.2       15 UNK        -0.5000 
     89 N          -3.4731  -24.6801  -49.5298 N.am      16 UNK        -0.5000 
     90 CA         -4.1400  -23.6131  -50.2796 C.3       16 UNK         0.1400 
     91 CB         -5.6669  -23.8173  -50.2443 C.3       16 UNK        -0.1800 
     92 C          -3.6367  -23.4139  -51.7256 C.2       16 UNK         0.5000 
     93 O          -4.1600  -22.5426  -52.4166 O.2       16 UNK        -0.5000 
     94 N          -2.6929  -24.2478  -52.1932 N.am      17 UNK        -0.5000 
     95 CA         -2.3549  -24.4778  -53.6039 C.3       17 UNK         0.1400 
     96 CB         -1.6059  -23.2662  -54.1933 C.3       17 UNK        -0.1800 
     97 C          -3.6007  -24.8770  -54.4321 C.2       17 UNK         0.5000 
     98 O          -3.7192  -24.4965  -55.5979 O.2       17 UNK        -0.5000 
     99 N          -4.5452  -25.5699  -53.7732 N.am      18 UNK        -0.5000 
    100 CA        -5.9223  -25.8890  -54.1704 C.3       18 UNK         0.1400 
    101 CB        -5.9533  -26.7710  -55.4327 C.3       18 UNK        -0.1800 
    102 C         -6.8585  -24.6671  -54.3224 C.2       18 UNK         0.5000 
    103 O         -8.0207  -24.7519  -53.9242 O.2       18 UNK        -0.5000 
    104 N         -6.3617  -23.5719  -54.9087 N.am      19 UNK        -0.5000 
    105 CA        -7.1339  -22.3860  -55.2791 C.3       19 UNK         0.1400 
    106 CB        -6.3462  -21.6006  -56.3398 C.3       19 UNK        -0.1800 
    107 C         -7.5027  -21.4627  -54.1021 C.2       19 UNK         0.5000 
    108 O         -8.5942  -20.8913  -54.1195 O.2       19 UNK        -0.5000 
    109 N         -6.5869  -21.3205  -53.1317 N.am      20 UNK        -0.5000 
    110 CA        -6.5610  -20.3488  -52.0284 C.3       20 UNK         0.1400 
    111 CB        -7.8199  -20.4540  -51.1429 C.3       20 UNK        -0.1800 
    112 C         -6.3247  -18.8971  -52.4992 C.2       20 UNK         0.5000 
    113 O         -6.5687  -18.5621  -53.6605 O.2       20 UNK        -0.5000 
    114 N         -5.8582  -18.0556  -51.5628 N.am      21 UNK        -0.5000 
    115 CA        -5.5856  -16.6194  -51.7155 C.3       21 UNK         0.1400 
    116 CB        -6.9069  -15.8344  -51.8482 C.3       21 UNK        -0.1800 
    117 C         -4.5869  -16.3237  -52.8545 C.2       21 UNK         0.5000 
    118 O         -4.8938  -15.5676  -53.7780 O.2       21 UNK        -0.5000 
    119 N         -3.4166  -16.9671  -52.7735 N.am      22 UNK        -0.5000 
    120 CA        -2.3720  -16.9911  -53.8129 C.3       22 UNK         0.1400 
    121 C         -1.6669  -15.6317  -54.1061 C.2       22 UNK         0.5000 
    122 N         -1.8567  -14.5908  -53.3048 N.am      22 UNK        -0.7600 
    123 O         -0.9301  -15.5218  -55.0822 O.2       22 UNK        -0.5000 
    124 C124       -1.3086  -18.0955  -53.5558 C.3       23 UNK        -0.0398 
    125 S125       -1.9937  -19.7000  -53.0069 S.3       23 UNK        -0.2404 
    126 C126       -1.3431  -19.8293  -51.3086 C.3       23 UNK        -0.0205 
    127 H127       -0.5281  -11.4791  -51.0036 H         1 UNK         0.0600 
    128 H128        0.5807  -11.3690  -52.3735 H         1 UNK         0.0600 
    129 H129        0.7195  -10.2290  -51.0305 H         1 UNK         0.0600 
    130 H130       -0.0075  -13.0989  -49.5660 H         1 UNK         0.3000 
    131 H131        2.5529  -14.4550  -49.6424 H         1 UNK         0.0600 
    132 H132        1.4358  -16.0731  -48.0883 H         1 UNK         0.0800 
    133 H133        0.6677  -15.8746  -49.6232 H         1 UNK         0.0800 
    134 H134       -1.5549  -14.9110  -50.1065 H         1 UNK         0.0800 
    135 H135       -2.8181  -14.6813  -48.9319 H         1 UNK         0.0800 
    136 H136       -0.7805  -17.2324  -50.6726 H         1 UNK         0.1150 
    137 H137       -3.5423  -20.3816  -49.8447 H         1 UNK         0.1150 
    138 H138       -3.9869  -16.5744  -47.9181 H         1 UNK         0.1150 
    139 H139       -5.1697  -18.5651  -47.0182 H         1 UNK         0.0800 
    140 H140       -6.0164  -18.5917  -48.5370 H         1 UNK         0.0800 
    141 H141       -4.9098  -22.0131  -45.8955 H         1 UNK         0.0800 
    142 H142       -4.3961  -20.3801  -45.7152 H         1 UNK         0.0800 
    143 H143       -2.8266  -21.7005  -47.8558 H         1 UNK         0.0600 
    144 H144       -2.2904  -19.8325  -45.8326 H         1 UNK         0.3000 
    145 H145        1.2928  -19.8792  -46.1040 H         1 UNK         0.0600 
    146 H146        0.6065  -17.4481  -46.2546 H         1 UNK         0.0600 
    147 H147        0.3716  -18.3214  -47.7635 H         1 UNK         0.0600 
    148 H148       -1.0028  -17.9475  -46.7422 H         1 UNK         0.0600 
    149 H149       -0.3905  -18.5273  -44.2697 H         1 UNK         0.3000 
    150 H150       -0.5461  -21.0558  -41.7339 H         1 UNK         0.0600 
    151 H151        1.5867  -19.9008  -41.3193 H         1 UNK         0.0600 
    152 H152        0.3086  -19.1058  -40.4137 H         1 UNK         0.0600 
    153 H153        0.9335  -18.3767  -41.8913 H         1 UNK         0.0600 
    154 H154       -1.6116  -18.3928  -42.0128 H         1 UNK         0.3000 
    155 H155       -4.7654  -19.3681  -43.3652 H         1 UNK         0.0600 
    156 H156       -3.9816  -18.3951  -40.5631 H         1 UNK         0.0600 
    157 H157       -4.9487  -19.8230  -40.9131 H         1 UNK         0.0600 
    158 H158       -5.5685  -18.2297  -41.3151 H         1 UNK         0.0600 
    159 H159       -3.7296  -16.8545  -42.4905 H         1 UNK         0.3000 
    160 H160       -2.0480  -15.9409  -45.4807 H         1 UNK         0.0600 
    161 H161       -4.6687  -14.8718  -44.2993 H         1 UNK         0.0600 
    162 H162       -4.4769  -15.4499  -45.9475 H         1 UNK         0.0600 
    163 H163       -3.5978  -14.0259  -45.4181 H         1 UNK         0.0600 
    164 H164       -2.5715  -14.5008  -43.0809 H         1 UNK         0.3000 
    165 H165       -0.5674  -14.0030  -41.7840 H         1 UNK         0.0600 
    166 H166       -1.1003  -15.0548  -39.5543 H         1 UNK         0.0600 
    167 H167       -2.4429  -15.2885  -40.6541 H         1 UNK         0.0600 
    168 H168       -1.3359  -16.6180  -40.3294 H         1 UNK         0.0600 
    169 H169        1.2004  -16.1974  -42.0560 H         1 UNK         0.3000 
    170 H170        3.8380  -14.6984  -40.2880 H         1 UNK         0.0600 
    171 H171        2.9898  -16.1549  -38.4435 H         1 UNK         0.0600 
    172 H172        2.6100  -17.4248  -39.6000 H         1 UNK         0.0600 
    173 H173        4.2859  -16.9456  -39.3256 H         1 UNK         0.0600 
    174 H174        3.6599  -17.1193  -41.8059 H         1 UNK         0.3000 
    175 H175        4.8306  -17.0556  -43.8696 H         1 UNK         0.0600 
    176 H176        2.1127  -16.1527  -44.9624 H         1 UNK         0.0600 
    177 H177        3.0877  -17.4480  -45.6578 H         1 UNK         0.0600 
    178 H178        2.4327  -17.6109  -44.0374 H         1 UNK         0.0600 
    179 H179        4.1311  -14.9478  -45.8152 H         1 UNK         0.3000 
    180 H180        7.3465  -13.5635  -45.9312 H         1 UNK         0.0600 
    181 H181        6.4155  -15.6340  -47.9936 H         1 UNK         0.0600 
    182 H182        7.9749  -15.6306  -47.1788 H         1 UNK         0.0600 
    183 H183        7.5673  -14.3295  -48.2854 H         1 UNK         0.0600 
    184 H184        5.1005  -13.5785  -47.7625 H         1 UNK         0.3000 
    185 H185        3.0401  -11.3927  -46.0775 H         1 UNK         0.0600 
    186 H186        4.6657   -9.5953  -46.7065 H         1 UNK         0.0600 
    187 H187        4.8969  -10.3455  -48.2816 H         1 UNK         0.0600 
    188 H188        3.3276   -9.6717  -47.8408 H         1 UNK         0.0600 
    189 H189        3.0892  -11.9531  -48.8502 H         1 UNK         0.3000 
    190 H190       -2.2988  -22.3046  -44.3447 H         1 UNK         0.3000 
    191 H191       -2.6401  -25.1001  -44.4349 H         1 UNK         0.0600 
    192 H192       -0.9181  -23.4040  -42.5532 H         1 UNK         0.0600 
    193 H193       -1.4097  -25.0677  -42.2618 H         1 UNK         0.0600 
    194 H194       -2.6216  -23.7975  -42.3326 H         1 UNK         0.0600 
    195 H195        0.3547  -23.1579  -44.8735 H         1 UNK         0.3000 
    196 H196        2.1305  -25.3669  -45.1322 H         1 UNK         0.0600 
    197 H197        3.7057  -23.6260  -46.0067 H         1 UNK         0.0600 
    198 H198        2.8969  -23.0962  -44.5394 H         1 UNK         0.0600 
    199 H199        2.3799  -22.4714  -46.1036 H         1 UNK         0.0600 
    200 H200        0.4089  -23.4095  -47.6077 H         1 UNK         0.3000 
    201 H201        1.6287  -24.8089  -49.8403 H         1 UNK         0.0600 
    202 H202        0.9896  -22.3895  -49.9032 H         1 UNK         0.0600 
    203 H203       -0.7071  -22.8285  -49.7141 H         1 UNK         0.0600 
    204 H204        0.1703  -23.2934  -51.1665 H         1 UNK         0.0600 
    205 H205       -1.0077  -25.5971  -47.8262 H         1 UNK         0.3000 
    206 H206       -2.8579  -26.8259  -47.8903 H         1 UNK         0.0600 
    207 H207       -3.0592  -28.7956  -49.3598 H         1 UNK         0.0600 
    208 H208       -1.4242  -28.7094  -48.7227 H         1 UNK         0.0600 
    209 H209       -1.7519  -28.2288  -50.3868 H         1 UNK         0.0600 
    210 H210       -2.9708  -24.3658  -48.7006 H         1 UNK         0.3000 
    211 H211       -3.9130  -22.6881  -49.7528 H         1 UNK         0.0600 
    212 H212       -5.9727  -24.7071  -50.7950 H         1 UNK         0.0600 
    213 H213       -6.1862  -22.9701  -50.6884 H         1 UNK         0.0600 
    214 H214       -6.0274  -23.9132  -49.2202 H         1 UNK         0.0600 
    215 H215       -2.2957  -24.9225  -51.5510 H         1 UNK         0.3000 
    216 H216       -1.6789  -25.3336  -53.6238 H         1 UNK         0.0600 
    217 H217       -1.2013  -23.5000  -55.1784 H         1 UNK         0.0600 
    218 H218       -0.7704  -22.9692  -53.5596 H         1 UNK         0.0600 
    219 H219       -2.2626  -22.4040  -54.3085 H         1 UNK         0.0600 
    220 H220       -4.3289  -25.8178  -52.8141 H         1 UNK         0.3000 
    221 H221       -6.3255  -26.4836  -53.3491 H         1 UNK         0.0600 
    222 H222       -5.5901  -26.2398  -56.3127 H         1 UNK         0.0600 
    223 H223       -5.3432  -27.6650  -55.3041 H         1 UNK         0.0600 
    224 H224       -6.9702  -27.0998  -55.6503 H         1 UNK         0.0600 
    225 H225       -5.3950  -23.6080  -55.2172 H         1 UNK         0.3000 
    226 H226       -8.0672  -22.7211  -55.7369 H         1 UNK         0.0600 
    227 H227       -5.3812  -21.2663  -55.9559 H         1 UNK         0.0600 
    228 H228       -6.1630  -22.2080  -57.2263 H         1 UNK         0.0600 
    229 H229       -6.8965  -20.7148  -56.6599 H         1 UNK         0.0600 
    230 H230       -5.7269  -21.8583  -53.2105 H         1 UNK         0.3000 
    231 H231       -5.7022  -20.6255  -51.4157 H         1 UNK         0.0600 
    232 H232       -8.0327  -21.4871  -50.8698 H         1 UNK         0.0600 
    233 H233       -8.7027  -20.0511  -51.6397 H         1 UNK         0.0600 
    234 H234       -7.6905  -19.8954  -50.2155 H         1 UNK         0.0600 
    235 H235       -5.6555  -18.4328  -50.6492 H         1 UNK         0.3000 
    236 H236       -5.1049  -16.2917  -50.7931 H         1 UNK         0.0600 
    237 H237       -6.7215  -14.7600  -51.8747 H         1 UNK         0.0600 
    238 H238       -7.4455  -16.0962  -52.7595 H         1 UNK         0.0600 
    239 H239       -7.5664  -16.0287  -51.0024 H         1 UNK         0.0600 
    240 H240       -3.2561  -17.5850  -51.9902 H         1 UNK         0.3000 
    241 H241       -2.8856  -17.2568  -54.7387 H         1 UNK         0.0600 
    242 H242       -1.4024  -13.7167  -53.5149 H         1 UNK         0.3800 
    243 H243       -2.4951  -14.6552  -52.5301 H         1 UNK         0.3800 
    244 H244       -0.7499  -18.2819  -54.4745 H         1 UNK         0.0800 
    245 H245       -0.5647  -17.7564  -52.8357 H         1 UNK         0.0800 
    246 H246       -0.2726  -19.6194  -51.2996 H         1 UNK         0.0800 
    247 H247       -1.4485  -20.8639  -50.9810 H         1 UNK         0.0800 
@<TRIPOS>BOND
     1    1    2 1    
     2    1  127 1    
     3    1  128 1    
     4    1  129 1    
     5    2    3 2    
     6    2    4 am   BACKBONE|DICT|INTERRES
     7    4    5 1    
     8    4  130 1    
     9    5    6 1    
    10    5   65 1    
    11    5  131 1    
    12    6    7 1    
    13    6  132 1    
    14    6  133 1    
    15    7    8 1    
    16    8    9 1    
    17    8  134 1    
    18    8  135 1    
    19    9   10 ar   
    20    9   14 ar   
    21   10   11 ar   
    22   10  136 1    
    23   11   12 ar   
    24   11  126 1    
    25   12   13 ar   
    26   12  137 1    
    27   13   14 ar   
    28   13   15 1    
    29   14  138 1    
    30   15   16 1    
    31   15  139 1    
    32   15  140 1    
    33   16   17 1    
    34   17   18 1    
    35   17  141 1    
    36   17  142 1    
    37   18   19 1    
    38   18   67 1    
    39   18  143 1    
    40   19   20 am   BACKBONE|DICT|INTERRES
    41   19  144 1    
    42   20   21 2    
    43   20   22 1    
    44   22   23 1    
    45   22   24 1    
    46   22  145 1    
    47   23  146 1    
    48   23  147 1    
    49   23  148 1    
    50   24   25 am   BACKBONE|DICT|INTERRES
    51   24  149 1    
    52   25   26 2    
    53   25   27 1    
    54   27   28 1    
    55   27   29 1    
    56   27  150 1    
    57   28  151 1    
    58   28  152 1    
    59   28  153 1    
    60   29   30 am   BACKBONE|DICT|INTERRES
    61   29  154 1    
    62   30   31 2    
    63   30   32 1    
    64   32   33 1    
    65   32   34 1    
    66   32  155 1    
    67   33  156 1    
    68   33  157 1    
    69   33  158 1    
    70   34   35 am   BACKBONE|DICT|INTERRES
    71   34  159 1    
    72   35   36 2    
    73   35   37 1    
    74   37   38 1    
    75   37   39 1    
    76   37  160 1    
    77   38  161 1    
    78   38  162 1    
    79   38  163 1    
    80   39   40 am   BACKBONE|DICT|INTERRES
    81   39  164 1    
    82   40   41 2    
    83   40   42 1    
    84   42   43 1    
    85   42   44 1    
    86   42  165 1    
    87   43  166 1    
    88   43  167 1    
    89   43  168 1    
    90   44   45 am   BACKBONE|DICT|INTERRES
    91   44  169 1    
    92   45   46 2    
    93   45   47 1    
    94   47   48 1    
    95   47   49 1    
    96   47  170 1    
    97   48  171 1    
    98   48  172 1    
    99   48  173 1    
   100   49   50 am   BACKBONE|DICT|INTERRES
   101   49  174 1    
   102   50   51 2    
   103   50   52 1    
   104   52   53 1    
   105   52   54 1    
   106   52  175 1    
   107   53  176 1    
   108   53  177 1    
   109   53  178 1    
   110   54   55 am   BACKBONE|DICT|INTERRES
   111   54  179 1    
   112   55   56 2    
   113   55   57 1    
   114   57   58 1    
   115   57   59 1    
   116   57  180 1    
   117   58  181 1    
   118   58  182 1    
   119   58  183 1    
   120   59   60 am   BACKBONE|DICT|INTERRES
   121   59  184 1    
   122   60   61 2    
   123   60   62 1    
   124   62   63 1    
   125   62   64 1    
   126   62  185 1    
   127   63  186 1    
   128   63  187 1    
   129   63  188 1    
   130   64   65 am   BACKBONE|DICT|INTERRES
   131   64  189 1    
   132   65   66 2    
   133   67   68 2    
   134   67   69 am   BACKBONE|DICT|INTERRES
   135   69   70 1    
   136   69  190 1    
   137   70   71 1    
   138   70   72 1    
   139   70  191 1    
   140   71  192 1    
   141   71  193 1    
   142   71  194 1    
   143   72   73 2    
   144   72   74 am   BACKBONE|DICT|INTERRES
   145   74   75 1    
   146   74  195 1    
   147   75   76 1    
   148   75   77 1    
   149   75  196 1    
   150   76  197 1    
   151   76  198 1    
   152   76  199 1    
   153   77   78 2    
   154   77   79 am   BACKBONE|DICT|INTERRES
   155   79   80 1    
   156   79  200 1    
   157   80   81 1    
   158   80   82 1    
   159   80  201 1    
   160   81  202 1    
   161   81  203 1    
   162   81  204 1    
   163   82   83 2    
   164   82   84 am   BACKBONE|DICT|INTERRES
   165   84   85 1    
   166   84  205 1    
   167   85   86 1    
   168   85   87 1    
   169   85  206 1    
   170   86  207 1    
   171   86  208 1    
   172   86  209 1    
   173   87   88 2    
   174   87   89 am   BACKBONE|DICT|INTERRES
   175   89   90 1    
   176   89  210 1    
   177   90   91 1    
   178   90   92 1    
   179   90  211 1    
   180   91  212 1    
   181   91  213 1    
   182   91  214 1    
   183   92   93 2    
   184   92   94 am   BACKBONE|DICT|INTERRES
   185   94   95 1    
   186   94  215 1    
   187   95   96 1    
   188   95   97 1    
   189   95  216 1    
   190   96  217 1    
   191   96  218 1    
   192   96  219 1    
   193   97   98 2    
   194   97   99 am   BACKBONE|DICT|INTERRES
   195   99  100 1    
   196   99  220 1    
   197  100  101 1    
   198  100  102 1    
   199  100  221 1    
   200  101  222 1    
   201  101  223 1    
   202  101  224 1    
   203  102  103 2    
   204  102  104 am   BACKBONE|DICT|INTERRES
   205  104  105 1    
   206  104  225 1    
   207  105  106 1    
   208  105  107 1    
   209  105  226 1    
   210  106  227 1    
   211  106  228 1    
   212  106  229 1    
   213  107  108 2    
   214  107  109 am   BACKBONE|DICT|INTERRES
   215  109  110 1    
   216  109  230 1    
   217  110  111 1    
   218  110  112 1    
   219  110  231 1    
   220  111  232 1    
   221  111  233 1    
   222  111  234 1    
   223  112  113 2    
   224  112  114 am   BACKBONE|DICT|INTERRES
   225  114  115 1    
   226  114  235 1    
   227  115  116 1    
   228  115  117 1    
   229  115  236 1    
   230  116  237 1    
   231  116  238 1    
   232  116  239 1    
   233  117  118 2    
   234  117  119 am   BACKBONE|DICT|INTERRES
   235  119  120 1    
   236  119  240 1    
   237  120  121 1    
   238  120  124 1    
   239  120  241 1    
   240  121  122 am   BACKBONE|DICT|INTERRES
   241  121  123 2    
   242  122  242 1    
   243  122  243 1    
   244  124  125 1    
   245  124  244 1    
   246  124  245 1    
   247  125  126 1    
   248  126  246 1    
   249  126  247 1    
@<TRIPOS>SUBSTRUCTURE
     1 UNK         1 GROUP             0       ****    0 ROOT    
