@<TRIPOS>MOLECULE
3R540
247   249    1
SMALL
USER_CHARGES


@<TRIPOS>ATOM
      1 CA          6.3661   -9.5863  -50.3541 C.3       0 UNK        -0.1800 
      2 C           5.1253  -10.4683  -50.3694 C.2       0 UNK         0.5000 
      3 O           4.1676  -10.1612  -51.0793 O.2       0 UNK        -0.5000 
      4 N           5.1455  -11.5609  -49.5944 N.am      1 UNK        -0.5000 
      5 CA          4.0474  -12.5160  -49.4146 C.3       1 UNK         0.1400 
      6 C6          3.7148  -13.3009  -50.7178 C.3       23 UNK        -0.0398 
      7 S7          2.6851  -14.7795  -50.4269 S.3       23 UNK        -0.2404 
      8 C8          3.8823  -16.1491  -50.5197 C.3       23 UNK        -0.0205 
      9 C9          3.2005  -17.4630  -50.1642 C.ar      23 UNK        -0.0193 
     10 C10         2.1243  -17.9115  -50.9338 C.ar      23 UNK        -0.1150 
     11 C11         1.4129  -19.0521  -50.5627 C.ar      23 UNK        -0.0193 
     12 C12         1.7981  -19.7625  -49.4244 C.ar      23 UNK        -0.1150 
     13 C13         2.9052  -19.3590  -48.6698 C.ar      23 UNK        -0.0193 
     14 C14         3.6044  -18.2077  -49.0500 C.ar      23 UNK        -0.1150 
     15 C15         3.3241  -20.1331  -47.4235 C.3       23 UNK        -0.0205 
     16 S16         4.3602  -21.5782  -47.8158 S.3       23 UNK        -0.2404 
     17 C17         3.1095  -22.8330  -48.2642 C.3       23 UNK        -0.0398 
     18 CA          2.9593  -23.9515  -47.2081 C.3       11 UNK         0.1400 
     19 N           2.5612  -23.4499  -45.8907 N.am      11 UNK        -0.5000 
     20 C           2.8781  -24.0480  -44.7338 C.2       10 UNK         0.5000 
     21 O           3.5860  -25.0529  -44.6548 O.2       10 UNK        -0.5000 
     22 CA          2.3071  -23.4321  -43.4433 C.3       10 UNK         0.1400 
     23 CB          3.3173  -22.4559  -42.8207 C.3       10 UNK        -0.1800 
     24 N           1.0323  -22.7479  -43.6648 N.am      10 UNK        -0.5000 
     25 C          -0.1310  -23.3850  -43.8653 C.2       9 UNK         0.5000 
     26 O          -0.2475  -24.6100  -43.8306 O.2       9 UNK        -0.5000 
     27 CA         -1.3813  -22.5319  -44.1595 C.3       9 UNK         0.1400 
     28 CB         -2.2355  -22.3754  -42.8927 C.3       9 UNK        -0.1800 
     29 N          -1.1131  -21.2062  -44.7138 N.am      9 UNK        -0.5000 
     30 C          -0.4722  -20.9432  -45.8610 C.2       8 UNK         0.5000 
     31 O           0.0135  -21.8016  -46.6008 O.2       8 UNK        -0.5000 
     32 CA         -0.2879  -19.4485  -46.1882 C.3       8 UNK         0.1400 
     33 CB         -1.5811  -18.8806  -46.7851 C.3       8 UNK        -0.1800 
     34 N           0.1280  -18.6064  -45.0569 N.am      8 UNK        -0.5000 
     35 C           1.0755  -18.8837  -44.1473 C.2       7 UNK         0.5000 
     36 O           1.6982  -19.9446  -44.0982 O.2       7 UNK        -0.5000 
     37 CA          1.3808  -17.7575  -43.1441 C.3       7 UNK         0.1400 
     38 CB          2.3151  -18.1942  -41.9961 C.3       7 UNK        -0.1800 
     39 N           1.8987  -16.5788  -43.8395 N.am      7 UNK        -0.5000 
     40 C           3.0297  -16.4792  -44.5550 C.2       6 UNK         0.5000 
     41 O           3.8787  -17.3659  -44.6475 O.2       6 UNK        -0.5000 
     42 CA          3.2401  -15.1644  -45.3264 C.3       6 UNK         0.1400 
     43 CB          2.8040  -15.3500  -46.7851 C.3       6 UNK        -0.1800 
     44 N           2.5038  -14.0333  -44.7661 N.am      6 UNK        -0.5000 
     45 C           2.7776  -13.4200  -43.6076 C.2       5 UNK         0.5000 
     46 O           3.7121  -13.7305  -42.8684 O.2       5 UNK        -0.5000 
     47 CA          1.8290  -12.2797  -43.2034 C.3       5 UNK         0.1400 
     48 CB          2.2573  -10.9589  -43.8617 C.3       5 UNK        -0.1800 
     49 N           0.4495  -12.5824  -43.5857 N.am      5 UNK        -0.5000 
     50 C          -0.4168  -13.2646  -42.8267 C.2       4 UNK         0.5000 
     51 O          -0.1598  -13.6716  -41.6933 O.2       4 UNK        -0.5000 
     52 CA         -1.8050  -13.5458  -43.4322 C.3       4 UNK         0.1400 
     53 CB         -2.7777  -12.4054  -43.0958 C.3       4 UNK        -0.1800 
     54 N          -1.7817  -13.7400  -44.8829 N.am      4 UNK        -0.5000 
     55 C          -1.2888  -14.8242  -45.4955 C.2       3 UNK         0.5000 
     56 O          -0.7757  -15.7763  -44.9048 O.2       3 UNK        -0.5000 
     57 CA         -1.3933  -14.8598  -47.0319 C.3       3 UNK         0.1400 
     58 CB         -2.8346  -15.2209  -47.4301 C.3       3 UNK        -0.1800 
     59 N          -0.9938  -13.6534  -47.7694 N.am      3 UNK        -0.5000 
     60 C          -0.0082  -12.7860  -47.5022 C.2       2 UNK         0.5000 
     61 O           0.6428  -12.7751  -46.4584 O.2       2 UNK        -0.5000 
     62 CA          0.3107  -11.7670  -48.6102 C.3       2 UNK         0.1400 
     63 CB          0.1697  -10.3117  -48.1216 C.3       2 UNK        -0.1800 
     64 N           1.6235  -12.0480  -49.2007 N.am      2 UNK        -0.5000 
     65 C           2.8483  -11.8489  -48.6875 C.2       1 UNK         0.5000 
     66 O           3.0761  -11.1981  -47.6658 O.2       1 UNK        -0.5000 
     67 C           1.9527  -25.0133  -47.6884 C.2       11 UNK         0.5000 
     68 O           2.3685  -26.0843  -48.1331 O.2       11 UNK        -0.5000 
     69 N           0.6527  -24.7095  -47.5750 N.am      12 UNK        -0.5000 
     70 CA         -0.4443  -25.6026  -47.9293 C.3       12 UNK         0.1400 
     71 CB         -0.7048  -25.5514  -49.4442 C.3       12 UNK        -0.1800 
     72 C          -1.6806  -25.1681  -47.1382 C.2       12 UNK         0.5000 
     73 O          -2.0767  -24.0059  -47.2461 O.2       12 UNK        -0.5000 
     74 N          -2.2546  -26.0987  -46.3630 N.am      13 UNK        -0.5000 
     75 CA         -3.3417  -25.8964  -45.3983 C.3       13 UNK         0.1400 
     76 CB         -3.8424  -27.2659  -44.9152 C.3       13 UNK        -0.1800 
     77 C          -4.5146  -25.0553  -45.9356 C.2       13 UNK         0.5000 
     78 O          -5.0983  -25.4105  -46.9613 O.2       13 UNK        -0.5000 
     79 N          -4.8091  -23.9466  -45.2409 N.am      14 UNK        -0.5000 
     80 CA         -5.8421  -22.9542  -45.5600 C.3       14 UNK         0.1400 
     81 CB         -7.2446  -23.5475  -45.3100 C.3       14 UNK        -0.1800 
     82 C          -5.6913  -22.3431  -46.9710 C.2       14 UNK         0.5000 
     83 O          -6.6889  -22.1686  -47.6704 O.2       14 UNK        -0.5000 
     84 N          -4.4422  -22.0632  -47.3765 N.am      15 UNK        -0.5000 
     85 CA         -4.0418  -21.5788  -48.7049 C.3       15 UNK         0.1400 
     86 CB         -4.6033  -20.1671  -48.9726 C.3       15 UNK        -0.1800 
     87 C          -4.4012  -22.5910  -49.8118 C.2       15 UNK         0.5000 
     88 O          -4.9933  -22.2240  -50.8311 O.2       15 UNK        -0.5000 
     89 N          -4.0658  -23.8621  -49.5462 N.am      16 UNK        -0.5000 
     90 CA         -4.4047  -25.0591  -50.3227 C.3       16 UNK         0.1400 
     91 CB         -3.6754  -25.0515  -51.6831 C.3       16 UNK        -0.1800 
     92 C          -5.9301  -25.2346  -50.4663 C.2       16 UNK         0.5000 
     93 O          -6.4290  -25.4028  -51.5780 O.2       16 UNK        -0.5000 
     94 N          -6.6510  -25.1291  -49.3403 N.am      17 UNK        -0.5000 
     95 CA         -8.1171  -25.0915  -49.2386 C.3       17 UNK         0.1400 
     96 CB         -8.7144  -26.4841  -49.5256 C.3       17 UNK        -0.1800 
     97 C          -8.7355  -23.9734  -50.1099 C.2       17 UNK         0.5000 
     98 O          -9.7080  -24.2025  -50.8310 O.2       17 UNK        -0.5000 
     99 N          -8.1066  -22.7924  -50.0477 N.am      18 UNK        -0.5000 
    100 CA        -8.3600  -21.5683  -50.8099 C.3       18 UNK         0.1400 
    101 CB        -9.7689  -21.0168  -50.5111 C.3       18 UNK        -0.1800 
    102 C         -8.0803  -21.6637  -52.3267 C.2       18 UNK         0.5000 
    103 O         -8.3745  -20.7025  -53.0390 O.2       18 UNK        -0.5000 
    104 N         -7.5074  -22.7763  -52.8127 N.am      19 UNK        -0.5000 
    105 CA        -7.1900  -22.9709  -54.2299 C.3       19 UNK         0.1400 
    106 CB        -7.0056  -24.4648  -54.5332 C.3       19 UNK        -0.1800 
    107 C         -5.9513  -22.1764  -54.6778 C.2       19 UNK         0.5000 
    108 O         -5.9141  -21.7246  -55.8234 O.2       19 UNK        -0.5000 
    109 N         -4.9680  -22.0092  -53.7809 N.am      20 UNK        -0.5000 
    110 CA        -3.7840  -21.1840  -54.0283 C.3       20 UNK         0.1400 
    111 CB        -2.5980  -21.6982  -53.1970 C.3       20 UNK        -0.1800 
    112 C         -4.0634  -19.7043  -53.7198 C.2       20 UNK         0.5000 
    113 O         -3.4875  -18.8337  -54.3734 O.2       20 UNK        -0.5000 
    114 N         -4.9384  -19.4540  -52.7325 N.am      21 UNK        -0.5000 
    115 CA        -5.4221  -18.1650  -52.2141 C.3       21 UNK         0.1400 
    116 CB        -6.1516  -17.3591  -53.3043 C.3       21 UNK        -0.1800 
    117 C         -4.3476  -17.3124  -51.5077 C.2       21 UNK         0.5000 
    118 O         -4.6162  -16.7803  -50.4308 O.2       21 UNK        -0.5000 
    119 N         -3.1511  -17.2353  -52.1007 N.am      22 UNK        -0.5000 
    120 CA        -1.9167  -16.6602  -51.5405 C.3       22 UNK         0.1400 
    121 C         -1.9481  -15.1125  -51.3402 C.2       22 UNK         0.5000 
    122 N         -2.8290  -14.3831  -52.0134 N.am      22 UNK        -0.7600 
    123 O         -1.1587  -14.5543  -50.5833 O.2       22 UNK        -0.5000 
    124 C124       -1.4137  -17.4276  -50.2839 C.3       23 UNK        -0.0398 
    125 S125       -1.3531  -19.2460  -50.4942 S.3       23 UNK        -0.2404 
    126 C126        0.2134  -19.5013  -51.3798 C.3       23 UNK        -0.0205 
    127 H127        6.7863   -9.5123  -51.3571 H         1 UNK         0.0600 
    128 H128        7.1367   -9.9805  -49.6911 H         1 UNK         0.0600 
    129 H129        6.1083   -8.5825  -50.0164 H         1 UNK         0.0600 
    130 H130        5.9556  -11.7288  -49.0143 H         1 UNK         0.3000 
    131 H131        4.4396  -13.2446  -48.7040 H         1 UNK         0.0600 
    132 H132        3.2110  -12.6600  -51.4428 H         1 UNK         0.0800 
    133 H133        4.6394  -13.6181  -51.2021 H         1 UNK         0.0800 
    134 H134        4.2945  -16.2118  -51.5277 H         1 UNK         0.0800 
    135 H135        4.7153  -15.9484  -49.8442 H         1 UNK         0.0800 
    136 H136        1.8136  -17.3418  -51.7984 H         1 UNK         0.1150 
    137 H137        1.2102  -20.6164  -49.1266 H         1 UNK         0.1150 
    138 H138        4.4464  -17.8763  -48.4589 H         1 UNK         0.1150 
    139 H139        3.8810  -19.4783  -46.7511 H         1 UNK         0.0800 
    140 H140        2.4540  -20.4609  -46.8576 H         1 UNK         0.0800 
    141 H141        3.4072  -23.2581  -49.2245 H         1 UNK         0.0800 
    142 H142        2.1451  -22.3620  -48.4321 H         1 UNK         0.0800 
    143 H143        3.9319  -24.4409  -47.1192 H         1 UNK         0.0600 
    144 H144        1.9384  -22.6528  -45.8756 H         1 UNK         0.3000 
    145 H145        2.1423  -24.2431  -42.7306 H         1 UNK         0.0600 
    146 H146        2.9156  -21.9869  -41.9223 H         1 UNK         0.0600 
    147 H147        4.2331  -22.9754  -42.5364 H         1 UNK         0.0600 
    148 H148        3.5967  -21.6646  -43.5171 H         1 UNK         0.0600 
    149 H149        1.0737  -21.7351  -43.7441 H         1 UNK         0.3000 
    150 H150       -1.9730  -23.0728  -44.8951 H         1 UNK         0.0600 
    151 H151       -2.4884  -23.3472  -42.4664 H         1 UNK         0.0600 
    152 H152       -3.1725  -21.8609  -43.1067 H         1 UNK         0.0600 
    153 H153       -1.7093  -21.8083  -42.1237 H         1 UNK         0.0600 
    154 H154       -1.4296  -20.4207  -44.1648 H         1 UNK         0.3000 
    155 H155        0.4854  -19.3676  -46.9495 H         1 UNK         0.0600 
    156 H156       -1.9456  -19.5107  -47.5957 H         1 UNK         0.0600 
    157 H157       -1.4126  -17.8898  -47.2004 H         1 UNK         0.0600 
    158 H158       -2.3761  -18.8063  -46.0423 H         1 UNK         0.0600 
    159 H159       -0.2935  -17.6827  -45.0138 H         1 UNK         0.3000 
    160 H160        0.4292  -17.4627  -42.6991 H         1 UNK         0.0600 
    161 H161        3.2806  -18.5457  -42.3608 H         1 UNK         0.0600 
    162 H162        1.8700  -19.0098  -41.4252 H         1 UNK         0.0600 
    163 H163        2.4975  -17.3725  -41.3036 H         1 UNK         0.0600 
    164 H164        1.2509  -15.8042  -43.9029 H         1 UNK         0.3000 
    165 H165        4.3048  -14.9233  -45.3065 H         1 UNK         0.0600 
    166 H166        2.8966  -14.4230  -47.3452 H         1 UNK         0.0600 
    167 H167        3.4260  -16.0924  -47.2811 H         1 UNK         0.0600 
    168 H168        1.7677  -15.6814  -46.8612 H         1 UNK         0.0600 
    169 H169        1.7509  -13.6562  -45.3386 H         1 UNK         0.3000 
    170 H170        1.8914  -12.1535  -42.1204 H         1 UNK         0.0600 
    171 H171        3.2800  -10.6991  -43.5859 H         1 UNK         0.0600 
    172 H172        2.2160  -11.0175  -44.9502 H         1 UNK         0.0600 
    173 H173        1.6156  -10.1360  -43.5468 H         1 UNK         0.0600 
    174 H174        0.1938  -12.3662  -44.5432 H         1 UNK         0.3000 
    175 H175       -2.1845  -14.4613  -42.9730 H         1 UNK         0.0600 
    176 H176       -2.4648  -11.4629  -43.5468 H         1 UNK         0.0600 
    177 H177       -3.7849  -12.6291  -43.4481 H         1 UNK         0.0600 
    178 H178       -2.8390  -12.2493  -42.0179 H         1 UNK         0.0600 
    179 H179       -2.1692  -13.0005  -45.4502 H         1 UNK         0.3000 
    180 H180       -0.7318  -15.6536  -47.3813 H         1 UNK         0.0600 
    181 H181       -3.5421  -14.4562  -47.1074 H         1 UNK         0.0600 
    182 H182       -3.1469  -16.1640  -46.9801 H         1 UNK         0.0600 
    183 H183       -2.9426  -15.3243  -48.5083 H         1 UNK         0.0600 
    184 H184       -1.3875  -13.6043  -48.7022 H         1 UNK         0.3000 
    185 H185       -0.4088  -11.9046  -49.4191 H         1 UNK         0.0600 
    186 H186        0.7761  -10.1109  -47.2380 H         1 UNK         0.0600 
    187 H187        0.4606   -9.6041  -48.8979 H         1 UNK         0.0600 
    188 H188       -0.8651  -10.0961  -47.8539 H         1 UNK         0.0600 
    189 H189        1.5792  -12.6391  -50.0205 H         1 UNK         0.3000 
    190 H190        0.3683  -23.8090  -47.1986 H         1 UNK         0.3000 
    191 H191       -0.1829  -26.6247  -47.6469 H         1 UNK         0.0600 
    192 H192       -0.9600  -24.5429  -49.7723 H         1 UNK         0.0600 
    193 H193        0.1690  -25.8749  -50.0097 H         1 UNK         0.0600 
    194 H194       -1.5285  -26.2108  -49.7182 H         1 UNK         0.0600 
    195 H195       -1.8608  -27.0279  -46.3729 H         1 UNK         0.3000 
    196 H196       -2.9082  -25.3805  -44.5400 H         1 UNK         0.0600 
    197 H197       -3.0442  -27.8334  -44.4365 H         1 UNK         0.0600 
    198 H198       -4.2327  -27.8638  -45.7400 H         1 UNK         0.0600 
    199 H199       -4.6436  -27.1543  -44.1833 H         1 UNK         0.0600 
    200 H200       -4.2769  -23.7535  -44.4055 H         1 UNK         0.3000 
    201 H201       -5.7053  -22.1281  -44.8608 H         1 UNK         0.0600 
    202 H202       -8.0219  -22.7955  -45.4515 H         1 UNK         0.0600 
    203 H203       -7.3377  -23.9185  -44.2894 H         1 UNK         0.0600 
    204 H204       -7.4610  -24.3746  -45.9858 H         1 UNK         0.0600 
    205 H205       -3.6771  -22.3286  -46.7706 H         1 UNK         0.3000 
    206 H206       -2.9530  -21.5088  -48.6963 H         1 UNK         0.0600 
    207 H207       -4.3246  -19.4704  -48.1828 H         1 UNK         0.0600 
    208 H208       -5.6898  -20.1624  -49.0538 H         1 UNK         0.0600 
    209 H209       -4.2084  -19.7715  -49.9065 H         1 UNK         0.0600 
    210 H210       -3.5951  -24.0331  -48.6642 H         1 UNK         0.3000 
    211 H211       -4.0439  -25.9144  -49.7500 H         1 UNK         0.0600 
    212 H212       -2.6070  -24.8762  -51.5664 H         1 UNK         0.0600 
    213 H213       -3.7953  -26.0082  -52.1923 H         1 UNK         0.0600 
    214 H214       -4.0654  -24.2814  -52.3471 H         1 UNK         0.0600 
    215 H215       -6.1421  -25.0357  -48.4634 H         1 UNK         0.3000 
    216 H216       -8.3498  -24.8372  -48.2042 H         1 UNK         0.0600 
    217 H217       -9.7901  -26.4920  -49.3466 H         1 UNK         0.0600 
    218 H218       -8.5523  -26.7897  -50.5597 H         1 UNK         0.0600 
    219 H219       -8.2724  -27.2420  -48.8788 H         1 UNK         0.0600 
    220 H220       -7.3525  -22.7087  -49.3701 H         1 UNK         0.3000 
    221 H221       -7.6412  -20.8420  -50.4289 H         1 UNK         0.0600 
    222 H222      -10.5504  -21.6555  -50.9233 H         1 UNK         0.0600 
    223 H223       -9.9375  -20.9280  -49.4379 H         1 UNK         0.0600 
    224 H224       -9.9009  -20.0233  -50.9410 H         1 UNK         0.0600 
    225 H225       -7.2678  -23.5330  -52.1820 H         1 UNK         0.3000 
    226 H226       -8.0410  -22.6199  -54.8177 H         1 UNK         0.0600 
    227 H227       -7.8458  -25.0532  -54.1640 H         1 UNK         0.0600 
    228 H228       -6.9351  -24.6344  -55.6082 H         1 UNK         0.0600 
    229 H229       -6.0932  -24.8585  -54.0849 H         1 UNK         0.0600 
    230 H230       -5.0853  -22.3706  -52.8392 H         1 UNK         0.3000 
    231 H231       -3.5040  -21.2588  -55.0813 H         1 UNK         0.0600 
    232 H232       -1.6945  -21.1305  -53.4222 H         1 UNK         0.0600 
    233 H233       -2.3855  -22.7446  -53.4147 H         1 UNK         0.0600 
    234 H234       -2.7768  -21.6051  -52.1266 H         1 UNK         0.0600 
    235 H235       -5.2971  -20.2645  -52.2461 H         1 UNK         0.3000 
    236 H236       -6.1614  -18.4214  -51.4534 H         1 UNK         0.0600 
    237 H237       -6.9583  -17.9428  -53.7486 H         1 UNK         0.0600 
    238 H238       -6.5960  -16.4550  -52.8866 H         1 UNK         0.0600 
    239 H239       -5.4795  -17.0510  -54.1055 H         1 UNK         0.0600 
    240 H240       -3.0557  -17.7081  -52.9960 H         1 UNK         0.3000 
    241 H241       -1.1636  -16.8085  -52.3144 H         1 UNK         0.0600 
    242 H242       -2.8436  -13.3833  -51.8922 H         1 UNK         0.3800 
    243 H243       -3.4847  -14.8241  -52.6380 H         1 UNK         0.3800 
    244 H244       -0.4328  -17.0654  -49.9738 H         1 UNK         0.0800 
    245 H245       -2.0796  -17.2328  -49.4450 H         1 UNK         0.0800 
    246 H246        0.1740  -18.9821  -52.3384 H         1 UNK         0.0800 
    247 H247        0.3162  -20.5622  -51.6115 H         1 UNK         0.0800 
@<TRIPOS>BOND
     1    1    2 1    
     2    1  127 1    
     3    1  128 1    
     4    1  129 1    
     5    2    3 2    
     6    2    4 am   BACKBONE|DICT|INTERRES
     7    4    5 1    
     8    4  130 1    
     9    5    6 1    
    10    5   65 1    
    11    5  131 1    
    12    6    7 1    
    13    6  132 1    
    14    6  133 1    
    15    7    8 1    
    16    8    9 1    
    17    8  134 1    
    18    8  135 1    
    19    9   10 ar   
    20    9   14 ar   
    21   10   11 ar   
    22   10  136 1    
    23   11   12 ar   
    24   11  126 1    
    25   12   13 ar   
    26   12  137 1    
    27   13   14 ar   
    28   13   15 1    
    29   14  138 1    
    30   15   16 1    
    31   15  139 1    
    32   15  140 1    
    33   16   17 1    
    34   17   18 1    
    35   17  141 1    
    36   17  142 1    
    37   18   19 1    
    38   18   67 1    
    39   18  143 1    
    40   19   20 am   BACKBONE|DICT|INTERRES
    41   19  144 1    
    42   20   21 2    
    43   20   22 1    
    44   22   23 1    
    45   22   24 1    
    46   22  145 1    
    47   23  146 1    
    48   23  147 1    
    49   23  148 1    
    50   24   25 am   BACKBONE|DICT|INTERRES
    51   24  149 1    
    52   25   26 2    
    53   25   27 1    
    54   27   28 1    
    55   27   29 1    
    56   27  150 1    
    57   28  151 1    
    58   28  152 1    
    59   28  153 1    
    60   29   30 am   BACKBONE|DICT|INTERRES
    61   29  154 1    
    62   30   31 2    
    63   30   32 1    
    64   32   33 1    
    65   32   34 1    
    66   32  155 1    
    67   33  156 1    
    68   33  157 1    
    69   33  158 1    
    70   34   35 am   BACKBONE|DICT|INTERRES
    71   34  159 1    
    72   35   36 2    
    73   35   37 1    
    74   37   38 1    
    75   37   39 1    
    76   37  160 1    
    77   38  161 1    
    78   38  162 1    
    79   38  163 1    
    80   39   40 am   BACKBONE|DICT|INTERRES
    81   39  164 1    
    82   40   41 2    
    83   40   42 1    
    84   42   43 1    
    85   42   44 1    
    86   42  165 1    
    87   43  166 1    
    88   43  167 1    
    89   43  168 1    
    90   44   45 am   BACKBONE|DICT|INTERRES
    91   44  169 1    
    92   45   46 2    
    93   45   47 1    
    94   47   48 1    
    95   47   49 1    
    96   47  170 1    
    97   48  171 1    
    98   48  172 1    
    99   48  173 1    
   100   49   50 am   BACKBONE|DICT|INTERRES
   101   49  174 1    
   102   50   51 2    
   103   50   52 1    
   104   52   53 1    
   105   52   54 1    
   106   52  175 1    
   107   53  176 1    
   108   53  177 1    
   109   53  178 1    
   110   54   55 am   BACKBONE|DICT|INTERRES
   111   54  179 1    
   112   55   56 2    
   113   55   57 1    
   114   57   58 1    
   115   57   59 1    
   116   57  180 1    
   117   58  181 1    
   118   58  182 1    
   119   58  183 1    
   120   59   60 am   BACKBONE|DICT|INTERRES
   121   59  184 1    
   122   60   61 2    
   123   60   62 1    
   124   62   63 1    
   125   62   64 1    
   126   62  185 1    
   127   63  186 1    
   128   63  187 1    
   129   63  188 1    
   130   64   65 am   BACKBONE|DICT|INTERRES
   131   64  189 1    
   132   65   66 2    
   133   67   68 2    
   134   67   69 am   BACKBONE|DICT|INTERRES
   135   69   70 1    
   136   69  190 1    
   137   70   71 1    
   138   70   72 1    
   139   70  191 1    
   140   71  192 1    
   141   71  193 1    
   142   71  194 1    
   143   72   73 2    
   144   72   74 am   BACKBONE|DICT|INTERRES
   145   74   75 1    
   146   74  195 1    
   147   75   76 1    
   148   75   77 1    
   149   75  196 1    
   150   76  197 1    
   151   76  198 1    
   152   76  199 1    
   153   77   78 2    
   154   77   79 am   BACKBONE|DICT|INTERRES
   155   79   80 1    
   156   79  200 1    
   157   80   81 1    
   158   80   82 1    
   159   80  201 1    
   160   81  202 1    
   161   81  203 1    
   162   81  204 1    
   163   82   83 2    
   164   82   84 am   BACKBONE|DICT|INTERRES
   165   84   85 1    
   166   84  205 1    
   167   85   86 1    
   168   85   87 1    
   169   85  206 1    
   170   86  207 1    
   171   86  208 1    
   172   86  209 1    
   173   87   88 2    
   174   87   89 am   BACKBONE|DICT|INTERRES
   175   89   90 1    
   176   89  210 1    
   177   90   91 1    
   178   90   92 1    
   179   90  211 1    
   180   91  212 1    
   181   91  213 1    
   182   91  214 1    
   183   92   93 2    
   184   92   94 am   BACKBONE|DICT|INTERRES
   185   94   95 1    
   186   94  215 1    
   187   95   96 1    
   188   95   97 1    
   189   95  216 1    
   190   96  217 1    
   191   96  218 1    
   192   96  219 1    
   193   97   98 2    
   194   97   99 am   BACKBONE|DICT|INTERRES
   195   99  100 1    
   196   99  220 1    
   197  100  101 1    
   198  100  102 1    
   199  100  221 1    
   200  101  222 1    
   201  101  223 1    
   202  101  224 1    
   203  102  103 2    
   204  102  104 am   BACKBONE|DICT|INTERRES
   205  104  105 1    
   206  104  225 1    
   207  105  106 1    
   208  105  107 1    
   209  105  226 1    
   210  106  227 1    
   211  106  228 1    
   212  106  229 1    
   213  107  108 2    
   214  107  109 am   BACKBONE|DICT|INTERRES
   215  109  110 1    
   216  109  230 1    
   217  110  111 1    
   218  110  112 1    
   219  110  231 1    
   220  111  232 1    
   221  111  233 1    
   222  111  234 1    
   223  112  113 2    
   224  112  114 am   BACKBONE|DICT|INTERRES
   225  114  115 1    
   226  114  235 1    
   227  115  116 1    
   228  115  117 1    
   229  115  236 1    
   230  116  237 1    
   231  116  238 1    
   232  116  239 1    
   233  117  118 2    
   234  117  119 am   BACKBONE|DICT|INTERRES
   235  119  120 1    
   236  119  240 1    
   237  120  121 1    
   238  120  124 1    
   239  120  241 1    
   240  121  122 am   BACKBONE|DICT|INTERRES
   241  121  123 2    
   242  122  242 1    
   243  122  243 1    
   244  124  125 1    
   245  124  244 1    
   246  124  245 1    
   247  125  126 1    
   248  126  246 1    
   249  126  247 1    
@<TRIPOS>SUBSTRUCTURE
     1 UNK         1 GROUP             0       ****    0 ROOT    
