@<TRIPOS>MOLECULE
3R540
247   249    1
SMALL
USER_CHARGES


@<TRIPOS>ATOM
      1 CA          2.9247  -14.4937  -47.5921 C.3       0 UNK        -0.1800 
      2 C           1.5505  -14.2520  -46.9879 C.2       0 UNK         0.5000 
      3 O           1.4454  -13.9689  -45.7960 O.2       0 UNK        -0.5000 
      4 N           0.4979  -14.3062  -47.8153 N.am      1 UNK        -0.5000 
      5 CA         -0.8986  -14.0365  -47.4343 C.3       1 UNK         0.1400 
      6 C6         -1.8933  -14.5314  -48.5147 C.3       23 UNK        -0.0398 
      7 S7         -2.1359  -16.3345  -48.4099 S.3       23 UNK        -0.2404 
      8 C8         -2.1253  -16.8591  -50.1586 C.3       23 UNK        -0.0205 
      9 C9         -0.7837  -17.3427  -50.7128 C.ar      23 UNK        -0.0193 
     10 C10        -0.7585  -17.8421  -52.0177 C.ar      23 UNK        -0.1150 
     11 C11         0.4245  -18.3275  -52.5803 C.ar      23 UNK        -0.0193 
     12 C12         1.6005  -18.3156  -51.8251 C.ar      23 UNK        -0.1150 
     13 C13         1.5999  -17.8084  -50.5227 C.ar      23 UNK        -0.0193 
     14 C14         0.4082  -17.3213  -49.9760 C.ar      23 UNK        -0.1150 
     15 C15         2.8963  -17.7377  -49.7256 C.3       23 UNK        -0.0205 
     16 S16         3.2634  -19.2641  -48.8018 S.3       23 UNK        -0.2404 
     17 C17         1.9447  -19.2805  -47.5401 C.3       23 UNK        -0.0398 
     18 CA          0.9742  -20.4582  -47.7706 C.3       11 UNK         0.1400 
     19 N           1.6093  -21.7449  -47.4807 N.am      11 UNK        -0.5000 
     20 C           1.1866  -22.9273  -47.9407 C.2       10 UNK         0.5000 
     21 O           0.2155  -23.0609  -48.6830 O.2       10 UNK        -0.5000 
     22 CA          1.9524  -24.1700  -47.4468 C.3       10 UNK         0.1400 
     23 CB          3.2001  -24.4175  -48.3067 C.3       10 UNK        -0.1800 
     24 N           2.3523  -24.0620  -46.0419 N.am      10 UNK        -0.5000 
     25 C           1.4950  -24.0608  -45.0118 C.2       9 UNK         0.5000 
     26 O           0.2793  -24.2004  -45.1386 O.2       9 UNK        -0.5000 
     27 CA          2.0890  -23.8137  -43.6102 C.3       9 UNK         0.1400 
     28 CB          2.5394  -25.1383  -42.9766 C.3       9 UNK        -0.1800 
     29 N           3.2056  -22.8607  -43.5887 N.am      9 UNK        -0.5000 
     30 C           3.1417  -21.5945  -44.0228 C.2       8 UNK         0.5000 
     31 O           2.1421  -21.1116  -44.5540 O.2       8 UNK        -0.5000 
     32 CA          4.4300  -20.7592  -43.9027 C.3       8 UNK         0.1400 
     33 CB          5.4123  -21.1449  -45.0209 C.3       8 UNK        -0.1800 
     34 N           4.1867  -19.3177  -43.9857 N.am      8 UNK        -0.5000 
     35 C           3.5103  -18.5794  -43.0946 C.2       7 UNK         0.5000 
     36 O           3.0403  -19.0322  -42.0489 O.2       7 UNK        -0.5000 
     37 CA          3.3901  -17.0644  -43.3794 C.3       7 UNK         0.1400 
     38 CB          4.0351  -16.6116  -44.7087 C.3       7 UNK        -0.1800 
     39 N           2.0106  -16.5784  -43.2876 N.am      7 UNK        -0.5000 
     40 C           0.9618  -16.9549  -44.0356 C.2       6 UNK         0.5000 
     41 O           1.0301  -17.7865  -44.9380 O.2       6 UNK        -0.5000 
     42 CA         -0.3828  -16.2488  -43.7521 C.3       6 UNK         0.1400 
     43 CB         -1.6086  -17.1101  -44.1190 C.3       6 UNK        -0.1800 
     44 N          -0.4994  -15.7072  -42.3928 N.am      6 UNK        -0.5000 
     45 C          -0.5042  -16.3876  -41.2348 C.2       5 UNK         0.5000 
     46 O          -0.4591  -17.6153  -41.1617 O.2       5 UNK        -0.5000 
     47 CA         -0.5278  -15.5641  -39.9290 C.3       5 UNK         0.1400 
     48 CB          0.8177  -15.6893  -39.1953 C.3       5 UNK        -0.1800 
     49 N          -0.8037  -14.1425  -40.1460 N.am      5 UNK        -0.5000 
     50 C          -2.0217  -13.6154  -40.3290 C.2       4 UNK         0.5000 
     51 O          -3.0659  -14.2645  -40.2632 O.2       4 UNK        -0.5000 
     52 CA         -2.0771  -12.1120  -40.6706 C.3       4 UNK         0.1400 
     53 CB         -2.2782  -11.2781  -39.3960 C.3       4 UNK        -0.1800 
     54 N          -0.8911  -11.6205  -41.3845 N.am      4 UNK        -0.5000 
     55 C          -0.5156  -12.0255  -42.6048 C.2       3 UNK         0.5000 
     56 O          -1.1032  -12.9019  -43.2421 O.2       3 UNK        -0.5000 
     57 CA          0.7631  -11.3968  -43.1803 C.3       3 UNK         0.1400 
     58 CB          1.9782  -12.2838  -42.8632 C.3       3 UNK        -0.1800 
     59 N           0.6410  -11.2493  -44.6290 N.am      3 UNK        -0.5000 
     60 C           0.0135  -10.2282  -45.2324 C.2       2 UNK         0.5000 
     61 O          -0.4265   -9.2494  -44.6273 O.2       2 UNK        -0.5000 
     62 CA         -0.1618  -10.3023  -46.7646 C.3       2 UNK         0.1400 
     63 CB          0.9584   -9.5248  -47.4726 C.3       2 UNK        -0.1800 
     64 N          -0.1789  -11.6745  -47.2703 N.am      2 UNK        -0.5000 
     65 C          -1.1630  -12.5590  -47.0528 C.2       1 UNK         0.5000 
     66 O          -2.2426  -12.2513  -46.5462 O.2       1 UNK        -0.5000 
     67 C          -0.3440  -20.2979  -46.9856 C.2       11 UNK         0.5000 
     68 O          -1.3115  -19.7761  -47.5347 O.2       11 UNK        -0.5000 
     69 N          -0.3989  -20.8150  -45.7508 N.am      12 UNK        -0.5000 
     70 CA         -1.6187  -20.9022  -44.9476 C.3       12 UNK         0.1400 
     71 CB         -1.2628  -21.3007  -43.5089 C.3       12 UNK        -0.1800 
     72 C          -2.6583  -21.8634  -45.5564 C.2       12 UNK         0.5000 
     73 O          -3.8518  -21.5627  -45.5282 O.2       12 UNK        -0.5000 
     74 N          -2.1940  -22.9765  -46.1426 N.am      13 UNK        -0.5000 
     75 CA         -3.0204  -23.8875  -46.9349 C.3       13 UNK         0.1400 
     76 CB         -2.2481  -25.1816  -47.2300 C.3       13 UNK        -0.1800 
     77 C          -3.5224  -23.2262  -48.2316 C.2       13 UNK         0.5000 
     78 O          -4.7032  -23.3527  -48.5529 O.2       13 UNK        -0.5000 
     79 N          -2.6423  -22.4847  -48.9207 N.am      14 UNK        -0.5000 
     80 CA         -2.9700  -21.6927  -50.1087 C.3       14 UNK         0.1400 
     81 CB         -1.6896  -21.1136  -50.7233 C.3       14 UNK        -0.1800 
     82 C          -3.9926  -20.5733  -49.8354 C.2       14 UNK         0.5000 
     83 O          -4.7979  -20.2717  -50.7145 O.2       14 UNK        -0.5000 
     84 N          -3.9780  -19.9975  -48.6250 N.am      15 UNK        -0.5000 
     85 CA         -4.9648  -19.0217  -48.1569 C.3       15 UNK         0.1400 
     86 CB         -4.5516  -18.4739  -46.7800 C.3       15 UNK        -0.1800 
     87 C          -6.3829  -19.6181  -48.0870 C.2       15 UNK         0.5000 
     88 O          -7.3394  -18.9682  -48.5093 O.2       15 UNK        -0.5000 
     89 N          -6.4842  -20.8530  -47.5762 N.am      16 UNK        -0.5000 
     90 CA         -7.7321  -21.6082  -47.4746 C.3       16 UNK         0.1400 
     91 CB         -7.5534  -22.7475  -46.4592 C.3       16 UNK        -0.1800 
     92 C          -8.2000  -22.1540  -48.8361 C.2       16 UNK         0.5000 
     93 O          -9.3941  -22.1055  -49.1331 O.2       16 UNK        -0.5000 
     94 N          -7.2530  -22.6568  -49.6393 N.am      17 UNK        -0.5000 
     95 CA         -7.4964  -23.2431  -50.9596 C.3       17 UNK         0.1400 
     96 CB         -6.2918  -24.1172  -51.3405 C.3       17 UNK        -0.1800 
     97 C          -7.7798  -22.2093  -52.0683 C.2       17 UNK         0.5000 
     98 O          -8.2495  -22.6033  -53.1362 O.2       17 UNK        -0.5000 
     99 N          -7.4849  -20.9272  -51.8034 N.am      18 UNK        -0.5000 
    100 CA        -7.5319  -19.7880  -52.7257 C.3       18 UNK         0.1400 
    101 CB        -8.9681  -19.5181  -53.2221 C.3       18 UNK        -0.1800 
    102 C         -6.5057  -19.9638  -53.8623 C.2       18 UNK         0.5000 
    103 O         -6.8746  -20.0683  -55.0336 O.2       18 UNK        -0.5000 
    104 N         -5.2302  -20.0289  -53.4579 N.am      19 UNK        -0.5000 
    105 CA        -4.0491  -20.3966  -54.2372 C.3       19 UNK         0.1400 
    106 CB        -3.8175  -19.4543  -55.4402 C.3       19 UNK        -0.1800 
    107 C         -4.1042  -21.8950  -54.5818 C.2       19 UNK         0.5000 
    108 O         -3.9049  -22.7099  -53.6806 O.2       19 UNK        -0.5000 
    109 N         -4.3990  -22.2243  -55.8487 N.am      20 UNK        -0.5000 
    110 CA        -4.6233  -23.5740  -56.3800 C.3       20 UNK         0.1400 
    111 CB        -5.9270  -24.1648  -55.8008 C.3       20 UNK        -0.1800 
    112 C         -3.4027  -24.5006  -56.1943 C.2       20 UNK         0.5000 
    113 O         -3.5173  -25.5578  -55.5717 O.2       20 UNK        -0.5000 
    114 N         -2.2608  -24.0638  -56.7490 N.am      21 UNK        -0.5000 
    115 CA        -0.9299  -24.6788  -56.6730 C.3       21 UNK         0.1400 
    116 CB        -0.9193  -26.1083  -57.2559 C.3       21 UNK        -0.1800 
    117 C         -0.3686  -24.6038  -55.2405 C.2       21 UNK         0.5000 
    118 O         -0.4736  -25.5603  -54.4709 O.2       21 UNK        -0.5000 
    119 N          0.1942  -23.4349  -54.9132 N.am      22 UNK        -0.5000 
    120 CA         0.6987  -23.0575  -53.5801 C.3       22 UNK         0.1400 
    121 C          1.9206  -23.8733  -53.0604 C.2       22 UNK         0.5000 
    122 N          2.6139  -24.6435  -53.8901 N.am      22 UNK        -0.7600 
    123 O          2.2501  -23.7995  -51.8812 O.2       22 UNK        -0.5000 
    124 C124        1.0088  -21.5385  -53.4947 C.3       23 UNK        -0.0398 
    125 S125       -0.3259  -20.4841  -54.1545 S.3       23 UNK        -0.2404 
    126 C126        0.4267  -18.8353  -54.0141 C.3       23 UNK        -0.0205 
    127 H127        2.8941  -14.4853  -48.6818 H         1 UNK         0.0600 
    128 H128        3.3168  -15.4544  -47.2646 H         1 UNK         0.0600 
    129 H129        3.6173  -13.7165  -47.2691 H         1 UNK         0.0600 
    130 H130        0.6464  -14.5269  -48.7894 H         1 UNK         0.3000 
    131 H131       -1.0964  -14.5961  -46.5181 H         1 UNK         0.0600 
    132 H132       -2.8805  -14.0832  -48.3876 H         1 UNK         0.0800 
    133 H133       -1.5569  -14.2447  -49.5121 H         1 UNK         0.0800 
    134 H134       -2.8370  -17.6803  -50.2511 H         1 UNK         0.0800 
    135 H135       -2.5100  -16.0539  -50.7856 H         1 UNK         0.0800 
    136 H136       -1.6686  -17.8605  -52.6013 H         1 UNK         0.1150 
    137 H137        2.5208  -18.6850  -52.2553 H         1 UNK         0.1150 
    138 H138        0.4191  -16.9270  -48.9724 H         1 UNK         0.1150 
    139 H139        3.7277  -17.5319  -50.4013 H         1 UNK         0.0800 
    140 H140        2.8632  -16.9017  -49.0305 H         1 UNK         0.0800 
    141 H141        1.4176  -18.3273  -47.5464 H         1 UNK         0.0800 
    142 H142        2.4091  -19.3522  -46.5562 H         1 UNK         0.0800 
    143 H143        0.7040  -20.4526  -48.8283 H         1 UNK         0.0600 
    144 H144        2.3681  -21.7242  -46.8158 H         1 UNK         0.3000 
    145 H145        1.2903  -25.0326  -47.5486 H         1 UNK         0.0600 
    146 H146        3.7186  -25.3257  -47.9992 H         1 UNK         0.0600 
    147 H147        2.9296  -24.5393  -49.3559 H         1 UNK         0.0600 
    148 H148        3.9059  -23.5882  -48.2442 H         1 UNK         0.0600 
    149 H149        3.3362  -23.9445  -45.8514 H         1 UNK         0.3000 
    150 H150        1.2943  -23.3958  -42.9896 H         1 UNK         0.0600 
    151 H151        3.3649  -25.5892  -43.5288 H         1 UNK         0.0600 
    152 H152        1.7222  -25.8608  -42.9595 H         1 UNK         0.0600 
    153 H153        2.8634  -24.9931  -41.9459 H         1 UNK         0.0600 
    154 H154        4.0683  -23.1941  -43.1830 H         1 UNK         0.3000 
    155 H155        4.8890  -20.9713  -42.9351 H         1 UNK         0.0600 
    156 H156        4.9962  -20.9428  -46.0092 H         1 UNK         0.0600 
    157 H157        5.6626  -22.2057  -44.9810 H         1 UNK         0.0600 
    158 H158        6.3475  -20.5917  -44.9323 H         1 UNK         0.0600 
    159 H159        4.5185  -18.8598  -44.8208 H         1 UNK         0.3000 
    160 H160        3.9339  -16.5693  -42.5737 H         1 UNK         0.0600 
    161 H161        3.5763  -17.0963  -45.5710 H         1 UNK         0.0600 
    162 H162        5.1030  -16.8320  -44.7281 H         1 UNK         0.0600 
    163 H163        3.9317  -15.5343  -44.8399 H         1 UNK         0.0600 
    164 H164        1.8347  -15.9069  -42.5562 H         1 UNK         0.3000 
    165 H165       -0.3955  -15.3799  -44.4092 H         1 UNK         0.0600 
    166 H166       -2.5370  -16.5613  -43.9621 H         1 UNK         0.0600 
    167 H167       -1.5814  -17.4035  -45.1695 H         1 UNK         0.0600 
    168 H168       -1.6514  -18.0222  -43.5243 H         1 UNK         0.0600 
    169 H169       -0.5975  -14.6990  -42.3555 H         1 UNK         0.3000 
    170 H170       -1.3063  -15.9854  -39.2892 H         1 UNK         0.0600 
    171 H171        1.0516  -16.7329  -38.9800 H         1 UNK         0.0600 
    172 H172        1.6396  -15.2848  -39.7873 H         1 UNK         0.0600 
    173 H173        0.7977  -15.1605  -38.2421 H         1 UNK         0.0600 
    174 H174       -0.0050  -13.5279  -40.2014 H         1 UNK         0.3000 
    175 H175       -2.9424  -11.9579  -41.3188 H         1 UNK         0.0600 
    176 H176       -1.4292  -11.3689  -38.7172 H         1 UNK         0.0600 
    177 H177       -2.4096  -10.2218  -39.6315 H         1 UNK         0.0600 
    178 H178       -3.1679  -11.6013  -38.8538 H         1 UNK         0.0600 
    179 H179       -0.3502  -10.9077  -40.9157 H         1 UNK         0.3000 
    180 H180        0.9212  -10.4158  -42.7270 H         1 UNK         0.0600 
    181 H181        2.1371  -12.3587  -41.7868 H         1 UNK         0.0600 
    182 H182        2.8899  -11.8741  -43.2983 H         1 UNK         0.0600 
    183 H183        1.8520  -13.2972  -43.2462 H         1 UNK         0.0600 
    184 H184        0.9109  -12.0587  -45.1776 H         1 UNK         0.3000 
    185 H185       -1.1156   -9.8319  -47.0128 H         1 UNK         0.0600 
    186 H186        1.9389   -9.9583  -47.2712 H         1 UNK         0.0600 
    187 H187        0.8102   -9.5142  -48.5526 H         1 UNK         0.0600 
    188 H188        0.9837   -8.4865  -47.1391 H         1 UNK         0.0600 
    189 H189        0.6704  -12.0090  -47.7004 H         1 UNK         0.3000 
    190 H190        0.4653  -21.1392  -45.3229 H         1 UNK         0.3000 
    191 H191       -2.0713  -19.9099  -44.9233 H         1 UNK         0.0600 
    192 H192       -0.5505  -20.5998  -43.0717 H         1 UNK         0.0600 
    193 H193       -2.1504  -21.3025  -42.8753 H         1 UNK         0.0600 
    194 H194       -0.8250  -22.2974  -43.4640 H         1 UNK         0.0600 
    195 H195       -1.2094  -23.2051  -46.0549 H         1 UNK         0.3000 
    196 H196       -3.8961  -24.1506  -46.3378 H         1 UNK         0.0600 
    197 H197       -2.8672  -25.8844  -47.7889 H         1 UNK         0.0600 
    198 H198       -1.9441  -25.6770  -46.3078 H         1 UNK         0.0600 
    199 H199       -1.3511  -24.9958  -47.8195 H         1 UNK         0.0600 
    200 H200       -1.6702  -22.4817  -48.6279 H         1 UNK         0.3000 
    201 H201       -3.4115  -22.3709  -50.8405 H         1 UNK         0.0600 
    202 H202       -1.9097  -20.6164  -51.6660 H         1 UNK         0.0600 
    203 H203       -0.9551  -21.8917  -50.9286 H         1 UNK         0.0600 
    204 H204       -1.2269  -20.3711  -50.0760 H         1 UNK         0.0600 
    205 H205       -3.2075  -20.2102  -47.9996 H         1 UNK         0.3000 
    206 H206       -4.9717  -18.1940  -48.8687 H         1 UNK         0.0600 
    207 H207       -3.4931  -18.2219  -46.7447 H         1 UNK         0.0600 
    208 H208       -5.1117  -17.5691  -46.5430 H         1 UNK         0.0600 
    209 H209       -4.7413  -19.1881  -45.9796 H         1 UNK         0.0600 
    210 H210       -5.6414  -21.3158  -47.2609 H         1 UNK         0.3000 
    211 H211       -8.5094  -20.9401  -47.0973 H         1 UNK         0.0600 
    212 H212       -6.7784  -23.4492  -46.7693 H         1 UNK         0.0600 
    213 H213       -8.4789  -23.3122  -46.3398 H         1 UNK         0.0600 
    214 H214       -7.2790  -22.3604  -45.4777 H         1 UNK         0.0600 
    215 H215       -6.3005  -22.7200  -49.2866 H         1 UNK         0.3000 
    216 H216       -8.3729  -23.8904  -50.8891 H         1 UNK         0.0600 
    217 H217       -6.4568  -24.6213  -52.2932 H         1 UNK         0.0600 
    218 H218       -6.1086  -24.8883  -50.5920 H         1 UNK         0.0600 
    219 H219       -5.3838  -23.5226  -51.4390 H         1 UNK         0.0600 
    220 H220       -7.0432  -20.7377  -50.9131 H         1 UNK         0.3000 
    221 H221       -7.2177  -18.9155  -52.1505 H         1 UNK         0.0600 
    222 H222       -9.3480  -20.3260  -53.8476 H         1 UNK         0.0600 
    223 H223       -9.6552  -19.3903  -52.3857 H         1 UNK         0.0600 
    224 H224       -9.0049  -18.6047  -53.8166 H         1 UNK         0.0600 
    225 H225       -5.0734  -20.0114  -52.4503 H         1 UNK         0.3000 
    226 H226       -3.2026  -20.2683  -53.5642 H         1 UNK         0.0600 
    227 H227       -2.8948  -19.7132  -55.9609 H         1 UNK         0.0600 
    228 H228       -4.6260  -19.4867  -56.1698 H         1 UNK         0.0600 
    229 H229       -3.7165  -18.4215  -55.1067 H         1 UNK         0.0600 
    230 H230       -4.5555  -21.4680  -56.5000 H         1 UNK         0.3000 
    231 H231       -4.7671  -23.4646  -57.4559 H         1 UNK         0.0600 
    232 H232       -5.8569  -24.3283  -54.7251 H         1 UNK         0.0600 
    233 H233       -6.1610  -25.1242  -56.2634 H         1 UNK         0.0600 
    234 H234       -6.7737  -23.5016  -55.9797 H         1 UNK         0.0600 
    235 H235       -2.2906  -23.1681  -57.2157 H         1 UNK         0.3000 
    236 H236       -0.2789  -24.0766  -57.3090 H         1 UNK         0.0600 
    237 H237       -1.3069  -26.1209  -58.2745 H         1 UNK         0.0600 
    238 H238        0.0973  -26.5013  -57.2899 H         1 UNK         0.0600 
    239 H239       -1.5124  -26.8048  -56.6634 H         1 UNK         0.0600 
    240 H240        0.2206  -22.6981  -55.6027 H         1 UNK         0.3000 
    241 H241       -0.1133  -23.2629  -52.8800 H         1 UNK         0.0600 
    242 H242        2.3521  -24.7206  -54.8594 H         1 UNK         0.3800 
    243 H243        3.4010  -25.1661  -53.5394 H         1 UNK         0.3800 
    244 H244        1.1902  -21.2495  -52.4575 H         1 UNK         0.0800 
    245 H245        1.9236  -21.3082  -54.0439 H         1 UNK         0.0800 
    246 H246        1.4392  -18.8549  -54.4201 H         1 UNK         0.0800 
    247 H247       -0.1365  -18.1409  -54.6392 H         1 UNK         0.0800 
@<TRIPOS>BOND
     1    1    2 1    
     2    1  127 1    
     3    1  128 1    
     4    1  129 1    
     5    2    3 2    
     6    2    4 am   BACKBONE|DICT|INTERRES
     7    4    5 1    
     8    4  130 1    
     9    5    6 1    
    10    5   65 1    
    11    5  131 1    
    12    6    7 1    
    13    6  132 1    
    14    6  133 1    
    15    7    8 1    
    16    8    9 1    
    17    8  134 1    
    18    8  135 1    
    19    9   10 ar   
    20    9   14 ar   
    21   10   11 ar   
    22   10  136 1    
    23   11   12 ar   
    24   11  126 1    
    25   12   13 ar   
    26   12  137 1    
    27   13   14 ar   
    28   13   15 1    
    29   14  138 1    
    30   15   16 1    
    31   15  139 1    
    32   15  140 1    
    33   16   17 1    
    34   17   18 1    
    35   17  141 1    
    36   17  142 1    
    37   18   19 1    
    38   18   67 1    
    39   18  143 1    
    40   19   20 am   BACKBONE|DICT|INTERRES
    41   19  144 1    
    42   20   21 2    
    43   20   22 1    
    44   22   23 1    
    45   22   24 1    
    46   22  145 1    
    47   23  146 1    
    48   23  147 1    
    49   23  148 1    
    50   24   25 am   BACKBONE|DICT|INTERRES
    51   24  149 1    
    52   25   26 2    
    53   25   27 1    
    54   27   28 1    
    55   27   29 1    
    56   27  150 1    
    57   28  151 1    
    58   28  152 1    
    59   28  153 1    
    60   29   30 am   BACKBONE|DICT|INTERRES
    61   29  154 1    
    62   30   31 2    
    63   30   32 1    
    64   32   33 1    
    65   32   34 1    
    66   32  155 1    
    67   33  156 1    
    68   33  157 1    
    69   33  158 1    
    70   34   35 am   BACKBONE|DICT|INTERRES
    71   34  159 1    
    72   35   36 2    
    73   35   37 1    
    74   37   38 1    
    75   37   39 1    
    76   37  160 1    
    77   38  161 1    
    78   38  162 1    
    79   38  163 1    
    80   39   40 am   BACKBONE|DICT|INTERRES
    81   39  164 1    
    82   40   41 2    
    83   40   42 1    
    84   42   43 1    
    85   42   44 1    
    86   42  165 1    
    87   43  166 1    
    88   43  167 1    
    89   43  168 1    
    90   44   45 am   BACKBONE|DICT|INTERRES
    91   44  169 1    
    92   45   46 2    
    93   45   47 1    
    94   47   48 1    
    95   47   49 1    
    96   47  170 1    
    97   48  171 1    
    98   48  172 1    
    99   48  173 1    
   100   49   50 am   BACKBONE|DICT|INTERRES
   101   49  174 1    
   102   50   51 2    
   103   50   52 1    
   104   52   53 1    
   105   52   54 1    
   106   52  175 1    
   107   53  176 1    
   108   53  177 1    
   109   53  178 1    
   110   54   55 am   BACKBONE|DICT|INTERRES
   111   54  179 1    
   112   55   56 2    
   113   55   57 1    
   114   57   58 1    
   115   57   59 1    
   116   57  180 1    
   117   58  181 1    
   118   58  182 1    
   119   58  183 1    
   120   59   60 am   BACKBONE|DICT|INTERRES
   121   59  184 1    
   122   60   61 2    
   123   60   62 1    
   124   62   63 1    
   125   62   64 1    
   126   62  185 1    
   127   63  186 1    
   128   63  187 1    
   129   63  188 1    
   130   64   65 am   BACKBONE|DICT|INTERRES
   131   64  189 1    
   132   65   66 2    
   133   67   68 2    
   134   67   69 am   BACKBONE|DICT|INTERRES
   135   69   70 1    
   136   69  190 1    
   137   70   71 1    
   138   70   72 1    
   139   70  191 1    
   140   71  192 1    
   141   71  193 1    
   142   71  194 1    
   143   72   73 2    
   144   72   74 am   BACKBONE|DICT|INTERRES
   145   74   75 1    
   146   74  195 1    
   147   75   76 1    
   148   75   77 1    
   149   75  196 1    
   150   76  197 1    
   151   76  198 1    
   152   76  199 1    
   153   77   78 2    
   154   77   79 am   BACKBONE|DICT|INTERRES
   155   79   80 1    
   156   79  200 1    
   157   80   81 1    
   158   80   82 1    
   159   80  201 1    
   160   81  202 1    
   161   81  203 1    
   162   81  204 1    
   163   82   83 2    
   164   82   84 am   BACKBONE|DICT|INTERRES
   165   84   85 1    
   166   84  205 1    
   167   85   86 1    
   168   85   87 1    
   169   85  206 1    
   170   86  207 1    
   171   86  208 1    
   172   86  209 1    
   173   87   88 2    
   174   87   89 am   BACKBONE|DICT|INTERRES
   175   89   90 1    
   176   89  210 1    
   177   90   91 1    
   178   90   92 1    
   179   90  211 1    
   180   91  212 1    
   181   91  213 1    
   182   91  214 1    
   183   92   93 2    
   184   92   94 am   BACKBONE|DICT|INTERRES
   185   94   95 1    
   186   94  215 1    
   187   95   96 1    
   188   95   97 1    
   189   95  216 1    
   190   96  217 1    
   191   96  218 1    
   192   96  219 1    
   193   97   98 2    
   194   97   99 am   BACKBONE|DICT|INTERRES
   195   99  100 1    
   196   99  220 1    
   197  100  101 1    
   198  100  102 1    
   199  100  221 1    
   200  101  222 1    
   201  101  223 1    
   202  101  224 1    
   203  102  103 2    
   204  102  104 am   BACKBONE|DICT|INTERRES
   205  104  105 1    
   206  104  225 1    
   207  105  106 1    
   208  105  107 1    
   209  105  226 1    
   210  106  227 1    
   211  106  228 1    
   212  106  229 1    
   213  107  108 2    
   214  107  109 am   BACKBONE|DICT|INTERRES
   215  109  110 1    
   216  109  230 1    
   217  110  111 1    
   218  110  112 1    
   219  110  231 1    
   220  111  232 1    
   221  111  233 1    
   222  111  234 1    
   223  112  113 2    
   224  112  114 am   BACKBONE|DICT|INTERRES
   225  114  115 1    
   226  114  235 1    
   227  115  116 1    
   228  115  117 1    
   229  115  236 1    
   230  116  237 1    
   231  116  238 1    
   232  116  239 1    
   233  117  118 2    
   234  117  119 am   BACKBONE|DICT|INTERRES
   235  119  120 1    
   236  119  240 1    
   237  120  121 1    
   238  120  124 1    
   239  120  241 1    
   240  121  122 am   BACKBONE|DICT|INTERRES
   241  121  123 2    
   242  122  242 1    
   243  122  243 1    
   244  124  125 1    
   245  124  244 1    
   246  124  245 1    
   247  125  126 1    
   248  126  246 1    
   249  126  247 1    
@<TRIPOS>SUBSTRUCTURE
     1 UNK         1 GROUP             0       ****    0 ROOT    
