@<TRIPOS>MOLECULE
3R540
247   249    1
SMALL
USER_CHARGES


@<TRIPOS>ATOM
      1 CA          0.1556  -11.0975  -50.3861 C.3       0 UNK        -0.1800 
      2 C           0.2168  -12.4122  -49.6130 C.2       0 UNK         0.5000 
      3 O          -0.8182  -12.9047  -49.1738 O.2       0 UNK        -0.5000 
      4 N           1.3921  -13.0256  -49.4224 N.am      1 UNK        -0.5000 
      5 CA          2.7138  -12.5873  -49.8943 C.3       1 UNK         0.1400 
      6 C6          3.7193  -13.7651  -49.9431 C.3       23 UNK        -0.0398 
      7 S7          3.2276  -15.0976  -51.0934 S.3       23 UNK        -0.2404 
      8 C8          2.2545  -16.1737  -49.9926 C.3       23 UNK        -0.0205 
      9 C9          1.9875  -17.5440  -50.5958 C.ar      23 UNK        -0.0193 
     10 C10         1.2219  -17.6772  -51.7586 C.ar      23 UNK        -0.1150 
     11 C11         0.9548  -18.9422  -52.2921 C.ar      23 UNK        -0.0193 
     12 C12         1.4463  -20.0796  -51.6431 C.ar      23 UNK        -0.1150 
     13 C13         2.2121  -19.9602  -50.4794 C.ar      23 UNK        -0.0193 
     14 C14         2.4849  -18.6884  -49.9679 C.ar      23 UNK        -0.1150 
     15 C15         2.7850  -21.1958  -49.7966 C.3       23 UNK        -0.0205 
     16 S16         2.2759  -21.3323  -48.0515 S.3       23 UNK        -0.2404 
     17 C17         0.5908  -22.0198  -48.1917 C.3       23 UNK        -0.0398 
     18 CA          0.3011  -23.0321  -47.0596 C.3       11 UNK         0.1400 
     19 N           0.3748  -22.4226  -45.7267 N.am      11 UNK        -0.5000 
     20 C           0.6394  -23.1023  -44.6035 C.2       10 UNK         0.5000 
     21 O           0.7068  -24.3309  -44.5551 O.2       10 UNK        -0.5000 
     22 CA          0.8538  -22.2747  -43.3248 C.3       10 UNK         0.1400 
     23 CB          2.1174  -21.4059  -43.4335 C.3       10 UNK        -0.1800 
     24 N          -0.2962  -21.4303  -43.0137 N.am      10 UNK        -0.5000 
     25 C          -1.4851  -21.8882  -42.5992 C.2       9 UNK         0.5000 
     26 O          -1.7261  -23.0771  -42.3880 O.2       9 UNK        -0.5000 
     27 CA         -2.6028  -20.8449  -42.4087 C.3       9 UNK         0.1400 
     28 CB         -2.5045  -20.1873  -41.0241 C.3       9 UNK        -0.1800 
     29 N          -2.6088  -19.8091  -43.4436 N.am      9 UNK        -0.5000 
     30 C          -2.7983  -20.0493  -44.7487 C.2       8 UNK         0.5000 
     31 O          -2.9972  -21.1660  -45.2212 O.2       8 UNK        -0.5000 
     32 CA         -2.6942  -18.8519  -45.7017 C.3       8 UNK         0.1400 
     33 CB         -3.9647  -17.9912  -45.6603 C.3       8 UNK        -0.1800 
     34 N          -1.5102  -18.0345  -45.4469 N.am      8 UNK        -0.5000 
     35 C          -0.2482  -18.4701  -45.5724 C.2       7 UNK         0.5000 
     36 O           0.0447  -19.5943  -45.9760 O.2       7 UNK        -0.5000 
     37 CA          0.8711  -17.5131  -45.1252 C.3       7 UNK         0.1400 
     38 CB          1.1926  -16.4827  -46.2168 C.3       7 UNK        -0.1800 
     39 N           0.5472  -16.8220  -43.8789 N.am      7 UNK        -0.5000 
     40 C           0.3573  -17.4297  -42.6995 C.2       6 UNK         0.5000 
     41 O           0.4781  -18.6417  -42.5234 O.2       6 UNK        -0.5000 
     42 CA         -0.0934  -16.5359  -41.5337 C.3       6 UNK         0.1400 
     43 CB          1.0997  -15.7899  -40.9175 C.3       6 UNK        -0.1800 
     44 N          -1.1139  -15.5762  -41.9535 N.am      6 UNK        -0.5000 
     45 C          -2.3708  -15.9079  -42.2798 C.2       5 UNK         0.5000 
     46 O          -2.8091  -17.0579  -42.2363 O.2       5 UNK        -0.5000 
     47 CA         -3.2784  -14.7649  -42.7701 C.3       5 UNK         0.1400 
     48 CB         -3.8624  -13.9868  -41.5816 C.3       5 UNK        -0.1800 
     49 N          -2.5893  -13.8364  -43.6689 N.am      5 UNK        -0.5000 
     50 C          -2.1424  -14.1660  -44.8886 C.2       4 UNK         0.5000 
     51 O          -2.2558  -15.2880  -45.3766 O.2       4 UNK        -0.5000 
     52 CA         -1.4082  -13.0725  -45.6824 C.3       4 UNK         0.1400 
     53 CB         -2.4169  -12.1366  -46.3647 C.3       4 UNK        -0.1800 
     54 N          -0.4684  -12.2721  -44.8932 N.am      4 UNK        -0.5000 
     55 C           0.5294  -12.7445  -44.1351 C.2       3 UNK         0.5000 
     56 O           0.7266  -13.9423  -43.9251 O.2       3 UNK        -0.5000 
     57 CA          1.5075  -11.6923  -43.5809 C.3       3 UNK         0.1400 
     58 CB          2.2913  -12.2075  -42.3610 C.3       3 UNK        -0.1800 
     59 N           2.4546  -11.3119  -44.6278 N.am      3 UNK        -0.5000 
     60 C           2.1905  -10.4808  -45.6442 C.2       2 UNK         0.5000 
     61 O           1.1374   -9.8518  -45.7570 O.2       2 UNK        -0.5000 
     62 CA          3.2408  -10.3989  -46.7589 C.3       2 UNK         0.1400 
     63 CB          4.6892  -10.6170  -46.2692 C.3       2 UNK        -0.1800 
     64 N           2.8726  -11.4009  -47.7517 N.am      2 UNK        -0.5000 
     65 C           3.2832  -11.4452  -49.0241 C.2       1 UNK         0.5000 
     66 O           4.0612  -10.6315  -49.5224 O.2       1 UNK        -0.5000 
     67 C          -0.9977  -23.8326  -47.2955 C.2       11 UNK         0.5000 
     68 O          -1.0607  -24.5944  -48.2617 O.2       11 UNK        -0.5000 
     69 N          -1.9826  -23.7329  -46.3893 N.am      12 UNK        -0.5000 
     70 CA         -3.1394  -24.6313  -46.3167 C.3       12 UNK         0.1400 
     71 CB         -4.0977  -24.1733  -45.2072 C.3       12 UNK        -0.1800 
     72 C          -2.7499  -26.1069  -46.0990 C.2       12 UNK         0.5000 
     73 O          -3.4441  -26.9878  -46.6050 O.2       12 UNK        -0.5000 
     74 N          -1.6224  -26.3585  -45.4146 N.am      13 UNK        -0.5000 
     75 CA         -1.0496  -27.6965  -45.2303 C.3       13 UNK         0.1400 
     76 CB          0.0577  -27.6338  -44.1682 C.3       13 UNK        -0.1800 
     77 C          -0.5085  -28.3086  -46.5395 C.2       13 UNK         0.5000 
     78 O          -0.4630  -29.5326  -46.6630 O.2       13 UNK        -0.5000 
     79 N          -0.1380  -27.4489  -47.4982 N.am      14 UNK        -0.5000 
     80 CA          0.2650  -27.8138  -48.8571 C.3       14 UNK         0.1400 
     81 CB          1.3851  -26.8582  -49.3045 C.3       14 UNK        -0.1800 
     82 C          -0.9190  -27.7687  -49.8470 C.2       14 UNK         0.5000 
     83 O          -0.7181  -28.0431  -51.0305 O.2       14 UNK        -0.5000 
     84 N          -2.1170  -27.4072  -49.3572 N.am      15 UNK        -0.5000 
     85 CA         -3.3613  -27.1789  -50.0988 C.3       15 UNK         0.1400 
     86 CB         -3.8906  -28.4967  -50.7022 C.3       15 UNK        -0.1800 
     87 C          -3.2455  -26.0379  -51.1332 C.2       15 UNK         0.5000 
     88 O          -3.8530  -26.1123  -52.2023 O.2       15 UNK        -0.5000 
     89 N          -2.4653  -25.0030  -50.7958 N.am      16 UNK        -0.5000 
     90 CA         -2.1515  -23.8703  -51.6628 C.3       16 UNK         0.1400 
     91 CB         -0.8370  -24.1519  -52.4155 C.3       16 UNK        -0.1800 
     92 C          -2.1072  -22.5745  -50.8385 C.2       16 UNK         0.5000 
     93 O          -1.1606  -21.8012  -50.9627 O.2       16 UNK        -0.5000 
     94 N          -3.1163  -22.3826  -49.9765 N.am      17 UNK        -0.5000 
     95 CA         -3.2833  -21.2266  -49.0935 C.3       17 UNK         0.1400 
     96 CB         -4.6026  -21.3806  -48.3241 C.3       17 UNK        -0.1800 
     97 C          -3.2474  -19.8796  -49.8432 C.2       17 UNK         0.5000 
     98 O          -3.9550  -19.7275  -50.8435 O.2       17 UNK        -0.5000 
     99 N          -2.4326  -18.9485  -49.3256 N.am      18 UNK        -0.5000 
    100 CA        -2.1257  -17.6200  -49.8597 C.3       18 UNK         0.1400 
    101 CB        -1.3387  -16.8280  -48.8062 C.3       18 UNK        -0.1800 
    102 C         -3.3574  -16.8282  -50.3330 C.2       18 UNK         0.5000 
    103 O         -4.1620  -16.3914  -49.5087 O.2       18 UNK        -0.5000 
    104 N         -3.4787  -16.6991  -51.6615 N.am      19 UNK        -0.5000 
    105 CA        -4.5398  -16.0213  -52.4155 C.3       19 UNK         0.1400 
    106 CB        -4.5650  -14.5141  -52.0866 C.3       19 UNK        -0.1800 
    107 C         -5.9385  -16.6683  -52.2947 C.2       19 UNK         0.5000 
    108 O         -6.9094  -16.0860  -52.7813 O.2       19 UNK        -0.5000 
    109 N         -6.0259  -17.8546  -51.6802 N.am      20 UNK        -0.5000 
    110 CA        -7.2630  -18.6040  -51.4691 C.3       20 UNK         0.1400 
    111 CB        -7.3971  -18.9366  -49.9751 C.3       20 UNK        -0.1800 
    112 C         -7.2938  -19.8855  -52.3162 C.2       20 UNK         0.5000 
    113 O         -8.3597  -20.2444  -52.8184 O.2       20 UNK        -0.5000 
    114 N         -6.1376  -20.5443  -52.4740 N.am      21 UNK        -0.5000 
    115 CA        -5.9873  -21.7943  -53.2225 C.3       21 UNK         0.1400 
    116 CB        -6.0512  -22.9847  -52.2481 C.3       21 UNK        -0.1800 
    117 C         -4.7191  -21.8045  -54.0979 C.2       21 UNK         0.5000 
    118 O         -4.2957  -22.8736  -54.5377 O.2       21 UNK        -0.5000 
    119 N         -4.1402  -20.6247  -54.3593 N.am      22 UNK        -0.5000 
    120 CA        -2.9710  -20.4463  -55.2420 C.3       22 UNK         0.1400 
    121 C         -3.2666  -20.6382  -56.7604 C.2       22 UNK         0.5000 
    122 N         -4.5187  -20.6719  -57.2011 N.am      22 UNK        -0.7600 
    123 O         -2.3386  -20.7629  -57.5548 O.2       22 UNK        -0.5000 
    124 C124       -2.2667  -19.0870  -55.0023 C.3       23 UNK        -0.0398 
    125 S125       -1.6245  -18.9207  -53.3054 S.3       23 UNK        -0.2404 
    126 C126        0.1646  -19.0762  -53.5857 C.3       23 UNK        -0.0205 
    127 H127        0.5448  -11.2204  -51.3964 H         1 UNK         0.0600 
    128 H128        0.7242  -10.3188  -49.8786 H         1 UNK         0.0600 
    129 H129       -0.8756  -10.7534  -50.4686 H         1 UNK         0.0600 
    130 H130        1.3890  -13.8965  -48.9153 H         1 UNK         0.3000 
    131 H131        2.6127  -12.2010  -50.9101 H         1 UNK         0.0600 
    132 H132        4.6956  -13.4081  -50.2769 H         1 UNK         0.0800 
    133 H133        3.8821  -14.1824  -48.9477 H         1 UNK         0.0800 
    134 H134        2.7789  -16.2770  -49.0420 H         1 UNK         0.0800 
    135 H135        1.2973  -15.7025  -49.7748 H         1 UNK         0.0800 
    136 H136        0.8383  -16.7947  -52.2512 H         1 UNK         0.1150 
    137 H137        1.2362  -21.0590  -52.0495 H         1 UNK         0.1150 
    138 H138        3.0802  -18.5952  -49.0704 H         1 UNK         0.1150 
    139 H139        2.5138  -22.1063  -50.3331 H         1 UNK         0.0800 
    140 H140        3.8733  -21.1342  -49.8347 H         1 UNK         0.0800 
    141 H141        0.5050  -22.5127  -49.1601 H         1 UNK         0.0800 
    142 H142       -0.1268  -21.1996  -48.1895 H         1 UNK         0.0800 
    143 H143        1.0959  -23.7801  -47.1100 H         1 UNK         0.0600 
    144 H144        0.3103  -21.4065  -45.6989 H         1 UNK         0.3000 
    145 H145        0.9978  -22.9724  -42.4972 H         1 UNK         0.0600 
    146 H146        2.3236  -20.8944  -42.4931 H         1 UNK         0.0600 
    147 H147        2.9909  -22.0137  -43.6724 H         1 UNK         0.0600 
    148 H148        2.0228  -20.6461  -44.2101 H         1 UNK         0.0600 
    149 H149       -0.1640  -20.4275  -43.1048 H         1 UNK         0.3000 
    150 H150       -3.5570  -21.3727  -42.4666 H         1 UNK         0.0600 
    151 H151       -2.5158  -20.9377  -40.2327 H         1 UNK         0.0600 
    152 H152       -3.3441  -19.5150  -40.8470 H         1 UNK         0.0600 
    153 H153       -1.5860  -19.6096  -40.9172 H         1 UNK         0.0600 
    154 H154       -2.4730  -18.8527  -43.1317 H         1 UNK         0.3000 
    155 H155       -2.6025  -19.2585  -46.7065 H         1 UNK         0.0600 
    156 H156       -4.0825  -17.4913  -44.6988 H         1 UNK         0.0600 
    157 H157       -3.9455  -17.2256  -46.4363 H         1 UNK         0.0600 
    158 H158       -4.8552  -18.5982  -45.8281 H         1 UNK         0.0600 
    159 H159       -1.6774  -17.0699  -45.1715 H         1 UNK         0.3000 
    160 H160        1.7675  -18.1115  -44.9498 H         1 UNK         0.0600 
    161 H161        2.0145  -15.8326  -45.9163 H         1 UNK         0.0600 
    162 H162        0.3329  -15.8513  -46.4426 H         1 UNK         0.0600 
    163 H163        1.4921  -16.9824  -47.1376 H         1 UNK         0.0600 
    164 H164        0.4612  -15.8095  -43.9243 H         1 UNK         0.3000 
    165 H165       -0.5248  -17.1796  -40.7641 H         1 UNK         0.0600 
    166 H166        0.7889  -15.1788  -40.0702 H         1 UNK         0.0600 
    167 H167        1.8503  -16.4927  -40.5539 H         1 UNK         0.0600 
    168 H168        1.5877  -15.1373  -41.6415 H         1 UNK         0.0600 
    169 H169       -0.8129  -14.6221  -42.0878 H         1 UNK         0.3000 
    170 H170       -4.1070  -15.2148  -43.3212 H         1 UNK         0.0600 
    171 H171       -3.0844  -13.4852  -41.0048 H         1 UNK         0.0600 
    172 H172       -4.5728  -13.2308  -41.9164 H         1 UNK         0.0600 
    173 H173       -4.3956  -14.6542  -40.9030 H         1 UNK         0.0600 
    174 H174       -2.4441  -12.8940  -43.3379 H         1 UNK         0.3000 
    175 H175       -0.8283  -13.5718  -46.4608 H         1 UNK         0.0600 
    176 H176       -1.9120  -11.4122  -47.0043 H         1 UNK         0.0600 
    177 H177       -3.0135  -11.5845  -45.6376 H         1 UNK         0.0600 
    178 H178       -3.1040  -12.7003  -46.9975 H         1 UNK         0.0600 
    179 H179       -0.4973  -11.2727  -45.0512 H         1 UNK         0.3000 
    180 H180        0.9342  -10.8167  -43.2688 H         1 UNK         0.0600 
    181 H181        2.9143  -13.0674  -42.6107 H         1 UNK         0.0600 
    182 H182        1.6135  -12.5127  -41.5629 H         1 UNK         0.0600 
    183 H183        2.9410  -11.4317  -41.9557 H         1 UNK         0.0600 
    184 H184        3.3314  -11.8125  -44.6347 H         1 UNK         0.3000 
    185 H185        3.1658   -9.4051  -47.2053 H         1 UNK         0.0600 
    186 H186        4.8633  -11.6423  -45.9414 H         1 UNK         0.0600 
    187 H187        5.4060  -10.4019  -47.0617 H         1 UNK         0.0600 
    188 H188        4.9261   -9.9532  -45.4366 H         1 UNK         0.0600 
    189 H189        2.1897  -12.0804  -47.4466 H         1 UNK         0.3000 
    190 H190       -1.9093  -23.0321  -45.6613 H         1 UNK         0.3000 
    191 H191       -3.6671  -24.5731  -47.2707 H         1 UNK         0.0600 
    192 H192       -4.5490  -23.2110  -45.4437 H         1 UNK         0.0600 
    193 H193       -4.9168  -24.8818  -45.0766 H         1 UNK         0.0600 
    194 H194       -3.5875  -24.0802  -44.2479 H         1 UNK         0.0600 
    195 H195       -1.0872  -25.5830  -45.0410 H         1 UNK         0.3000 
    196 H196       -1.8393  -28.3536  -44.8599 H         1 UNK         0.0600 
    197 H197        0.4445  -28.6299  -43.9496 H         1 UNK         0.0600 
    198 H198       -0.3138  -27.2161  -43.2322 H         1 UNK         0.0600 
    199 H199        0.8982  -27.0227  -44.4988 H         1 UNK         0.0600 
    200 H200       -0.2400  -26.4582  -47.3240 H         1 UNK         0.3000 
    201 H201        0.6617  -28.8310  -48.8669 H         1 UNK         0.0600 
    202 H202        2.2256  -26.8831  -48.6108 H         1 UNK         0.0600 
    203 H203        1.0365  -25.8273  -49.3724 H         1 UNK         0.0600 
    204 H204        1.7688  -27.1373  -50.2866 H         1 UNK         0.0600 
    205 H205       -2.1799  -27.2288  -48.3634 H         1 UNK         0.3000 
    206 H206       -4.0928  -26.8411  -49.3637 H         1 UNK         0.0600 
    207 H207       -3.9677  -29.2744  -49.9424 H         1 UNK         0.0600 
    208 H208       -4.8858  -28.3603  -51.1269 H         1 UNK         0.0600 
    209 H209       -3.2444  -28.8675  -51.4983 H         1 UNK         0.0600 
    210 H210       -2.0009  -25.0017  -49.8901 H         1 UNK         0.3000 
    211 H211       -2.9439  -23.7353  -52.3996 H         1 UNK         0.0600 
    212 H212       -0.0007  -24.2737  -51.7258 H         1 UNK         0.0600 
    213 H213       -0.5914  -23.3350  -53.0954 H         1 UNK         0.0600 
    214 H214       -0.9125  -25.0602  -53.0135 H         1 UNK         0.0600 
    215 H215       -3.8416  -23.0817  -49.9368 H         1 UNK         0.3000 
    216 H216       -2.4684  -21.2487  -48.3691 H         1 UNK         0.0600 
    217 H217       -4.7948  -20.5138  -47.6907 H         1 UNK         0.0600 
    218 H218       -4.5767  -22.2536  -47.6736 H         1 UNK         0.0600 
    219 H219       -5.4509  -21.4937  -48.9996 H         1 UNK         0.0600 
    220 H220       -1.8940  -19.2006  -48.5123 H         1 UNK         0.3000 
    221 H221       -1.4586  -17.7687  -50.7076 H         1 UNK         0.0600 
    222 H222       -1.9171  -16.6837  -47.8935 H         1 UNK         0.0600 
    223 H223       -0.4133  -17.3404  -48.5467 H         1 UNK         0.0600 
    224 H224       -1.0729  -15.8382  -49.1792 H         1 UNK         0.0600 
    225 H225       -2.7874  -17.1675  -52.2344 H         1 UNK         0.3000 
    226 H226       -4.2611  -16.1204  -53.4654 H         1 UNK         0.0600 
    227 H227       -3.5756  -14.0696  -52.1951 H         1 UNK         0.0600 
    228 H228       -5.2353  -13.9766  -52.7583 H         1 UNK         0.0600 
    229 H229       -4.9069  -14.3269  -51.0684 H         1 UNK         0.0600 
    230 H230       -5.1766  -18.2794  -51.3212 H         1 UNK         0.3000 
    231 H231       -8.1300  -18.0049  -51.7546 H         1 UNK         0.0600 
    232 H232       -6.5411  -19.5026  -49.6105 H         1 UNK         0.0600 
    233 H233       -8.2929  -19.5281  -49.7820 H         1 UNK         0.0600 
    234 H234       -7.4708  -18.0276  -49.3780 H         1 UNK         0.0600 
    235 H235       -5.3083  -20.2160  -51.9819 H         1 UNK         0.3000 
    236 H236       -6.8135  -21.9003  -53.9281 H         1 UNK         0.0600 
    237 H237       -7.0031  -23.0059  -51.7174 H         1 UNK         0.0600 
    238 H238       -5.9534  -23.9366  -52.7716 H         1 UNK         0.0600 
    239 H239       -5.2587  -22.9350  -51.5052 H         1 UNK         0.0600 
    240 H240       -4.5435  -19.7870  -53.9691 H         1 UNK         0.3000 
    241 H241       -2.2535  -21.2285  -54.9852 H         1 UNK         0.0600 
    242 H242       -5.2924  -20.5703  -56.5647 H         1 UNK         0.3800 
    243 H243       -4.6939  -20.8007  -58.1855 H         1 UNK         0.3800 
    244 H244       -1.4414  -18.9483  -55.7032 H         1 UNK         0.0800 
    245 H245       -2.9585  -18.2644  -55.1896 H         1 UNK         0.0800 
    246 H246        0.4909  -18.3092  -54.2897 H         1 UNK         0.0800 
    247 H247        0.3702  -20.0384  -54.0574 H         1 UNK         0.0800 
@<TRIPOS>BOND
     1    1    2 1    
     2    1  127 1    
     3    1  128 1    
     4    1  129 1    
     5    2    3 2    
     6    2    4 am   BACKBONE|DICT|INTERRES
     7    4    5 1    
     8    4  130 1    
     9    5    6 1    
    10    5   65 1    
    11    5  131 1    
    12    6    7 1    
    13    6  132 1    
    14    6  133 1    
    15    7    8 1    
    16    8    9 1    
    17    8  134 1    
    18    8  135 1    
    19    9   10 ar   
    20    9   14 ar   
    21   10   11 ar   
    22   10  136 1    
    23   11   12 ar   
    24   11  126 1    
    25   12   13 ar   
    26   12  137 1    
    27   13   14 ar   
    28   13   15 1    
    29   14  138 1    
    30   15   16 1    
    31   15  139 1    
    32   15  140 1    
    33   16   17 1    
    34   17   18 1    
    35   17  141 1    
    36   17  142 1    
    37   18   19 1    
    38   18   67 1    
    39   18  143 1    
    40   19   20 am   BACKBONE|DICT|INTERRES
    41   19  144 1    
    42   20   21 2    
    43   20   22 1    
    44   22   23 1    
    45   22   24 1    
    46   22  145 1    
    47   23  146 1    
    48   23  147 1    
    49   23  148 1    
    50   24   25 am   BACKBONE|DICT|INTERRES
    51   24  149 1    
    52   25   26 2    
    53   25   27 1    
    54   27   28 1    
    55   27   29 1    
    56   27  150 1    
    57   28  151 1    
    58   28  152 1    
    59   28  153 1    
    60   29   30 am   BACKBONE|DICT|INTERRES
    61   29  154 1    
    62   30   31 2    
    63   30   32 1    
    64   32   33 1    
    65   32   34 1    
    66   32  155 1    
    67   33  156 1    
    68   33  157 1    
    69   33  158 1    
    70   34   35 am   BACKBONE|DICT|INTERRES
    71   34  159 1    
    72   35   36 2    
    73   35   37 1    
    74   37   38 1    
    75   37   39 1    
    76   37  160 1    
    77   38  161 1    
    78   38  162 1    
    79   38  163 1    
    80   39   40 am   BACKBONE|DICT|INTERRES
    81   39  164 1    
    82   40   41 2    
    83   40   42 1    
    84   42   43 1    
    85   42   44 1    
    86   42  165 1    
    87   43  166 1    
    88   43  167 1    
    89   43  168 1    
    90   44   45 am   BACKBONE|DICT|INTERRES
    91   44  169 1    
    92   45   46 2    
    93   45   47 1    
    94   47   48 1    
    95   47   49 1    
    96   47  170 1    
    97   48  171 1    
    98   48  172 1    
    99   48  173 1    
   100   49   50 am   BACKBONE|DICT|INTERRES
   101   49  174 1    
   102   50   51 2    
   103   50   52 1    
   104   52   53 1    
   105   52   54 1    
   106   52  175 1    
   107   53  176 1    
   108   53  177 1    
   109   53  178 1    
   110   54   55 am   BACKBONE|DICT|INTERRES
   111   54  179 1    
   112   55   56 2    
   113   55   57 1    
   114   57   58 1    
   115   57   59 1    
   116   57  180 1    
   117   58  181 1    
   118   58  182 1    
   119   58  183 1    
   120   59   60 am   BACKBONE|DICT|INTERRES
   121   59  184 1    
   122   60   61 2    
   123   60   62 1    
   124   62   63 1    
   125   62   64 1    
   126   62  185 1    
   127   63  186 1    
   128   63  187 1    
   129   63  188 1    
   130   64   65 am   BACKBONE|DICT|INTERRES
   131   64  189 1    
   132   65   66 2    
   133   67   68 2    
   134   67   69 am   BACKBONE|DICT|INTERRES
   135   69   70 1    
   136   69  190 1    
   137   70   71 1    
   138   70   72 1    
   139   70  191 1    
   140   71  192 1    
   141   71  193 1    
   142   71  194 1    
   143   72   73 2    
   144   72   74 am   BACKBONE|DICT|INTERRES
   145   74   75 1    
   146   74  195 1    
   147   75   76 1    
   148   75   77 1    
   149   75  196 1    
   150   76  197 1    
   151   76  198 1    
   152   76  199 1    
   153   77   78 2    
   154   77   79 am   BACKBONE|DICT|INTERRES
   155   79   80 1    
   156   79  200 1    
   157   80   81 1    
   158   80   82 1    
   159   80  201 1    
   160   81  202 1    
   161   81  203 1    
   162   81  204 1    
   163   82   83 2    
   164   82   84 am   BACKBONE|DICT|INTERRES
   165   84   85 1    
   166   84  205 1    
   167   85   86 1    
   168   85   87 1    
   169   85  206 1    
   170   86  207 1    
   171   86  208 1    
   172   86  209 1    
   173   87   88 2    
   174   87   89 am   BACKBONE|DICT|INTERRES
   175   89   90 1    
   176   89  210 1    
   177   90   91 1    
   178   90   92 1    
   179   90  211 1    
   180   91  212 1    
   181   91  213 1    
   182   91  214 1    
   183   92   93 2    
   184   92   94 am   BACKBONE|DICT|INTERRES
   185   94   95 1    
   186   94  215 1    
   187   95   96 1    
   188   95   97 1    
   189   95  216 1    
   190   96  217 1    
   191   96  218 1    
   192   96  219 1    
   193   97   98 2    
   194   97   99 am   BACKBONE|DICT|INTERRES
   195   99  100 1    
   196   99  220 1    
   197  100  101 1    
   198  100  102 1    
   199  100  221 1    
   200  101  222 1    
   201  101  223 1    
   202  101  224 1    
   203  102  103 2    
   204  102  104 am   BACKBONE|DICT|INTERRES
   205  104  105 1    
   206  104  225 1    
   207  105  106 1    
   208  105  107 1    
   209  105  226 1    
   210  106  227 1    
   211  106  228 1    
   212  106  229 1    
   213  107  108 2    
   214  107  109 am   BACKBONE|DICT|INTERRES
   215  109  110 1    
   216  109  230 1    
   217  110  111 1    
   218  110  112 1    
   219  110  231 1    
   220  111  232 1    
   221  111  233 1    
   222  111  234 1    
   223  112  113 2    
   224  112  114 am   BACKBONE|DICT|INTERRES
   225  114  115 1    
   226  114  235 1    
   227  115  116 1    
   228  115  117 1    
   229  115  236 1    
   230  116  237 1    
   231  116  238 1    
   232  116  239 1    
   233  117  118 2    
   234  117  119 am   BACKBONE|DICT|INTERRES
   235  119  120 1    
   236  119  240 1    
   237  120  121 1    
   238  120  124 1    
   239  120  241 1    
   240  121  122 am   BACKBONE|DICT|INTERRES
   241  121  123 2    
   242  122  242 1    
   243  122  243 1    
   244  124  125 1    
   245  124  244 1    
   246  124  245 1    
   247  125  126 1    
   248  126  246 1    
   249  126  247 1    
@<TRIPOS>SUBSTRUCTURE
     1 UNK         1 GROUP             0       ****    0 ROOT    
