@<TRIPOS>MOLECULE
3R540
247   249    1
SMALL
USER_CHARGES


@<TRIPOS>ATOM
      1 CA         -1.4245  -11.3670  -51.9598 C.3       0 UNK        -0.1800 
      2 C          -0.3520  -12.2703  -51.3681 C.2       0 UNK         0.5000 
      3 O          -0.2314  -13.4240  -51.7793 O.2       0 UNK        -0.5000 
      4 N           0.4243  -11.7486  -50.4122 N.am      1 UNK        -0.5000 
      5 CA          1.4919  -12.4640  -49.7111 C.3       1 UNK         0.1400 
      6 C6          1.0168  -13.6137  -48.7775 C.3       23 UNK        -0.0398 
      7 S7         -0.2639  -13.1484  -47.5622 S.3       23 UNK        -0.2404 
      8 C8         -0.6323  -14.7331  -46.7561 C.3       23 UNK        -0.0205 
      9 C9         -1.1394  -15.7773  -47.7362 C.ar      23 UNK        -0.0193 
     10 C10        -2.4180  -15.6734  -48.2868 C.ar      23 UNK        -0.1150 
     11 C11        -2.8744  -16.6199  -49.2092 C.ar      23 UNK        -0.0193 
     12 C12        -2.0439  -17.6925  -49.5571 C.ar      23 UNK        -0.1150 
     13 C13        -0.7616  -17.8109  -49.0059 C.ar      23 UNK        -0.0193 
     14 C14        -0.3189  -16.8442  -48.1024 C.ar      23 UNK        -0.1150 
     15 C15         0.1865  -18.9423  -49.3923 C.3       23 UNK        -0.0205 
     16 S16        -0.6231  -20.5513  -49.6445 S.3       23 UNK        -0.2404 
     17 C17        -1.4659  -20.8376  -48.0552 C.3       23 UNK        -0.0398 
     18 CA         -1.1706  -22.2586  -47.5077 C.3       11 UNK         0.1400 
     19 N          -0.1176  -22.2390  -46.4890 N.am      11 UNK        -0.5000 
     20 C           0.4803  -23.3211  -45.9752 C.2       10 UNK         0.5000 
     21 O           0.2340  -24.4711  -46.3358 O.2       10 UNK        -0.5000 
     22 CA          1.4796  -23.0819  -44.8277 C.3       10 UNK         0.1400 
     23 CB          2.8461  -22.6316  -45.3654 C.3       10 UNK        -0.1800 
     24 N           0.9836  -22.1100  -43.8509 N.am      10 UNK        -0.5000 
     25 C          -0.0890  -22.3108  -43.0715 C.2       9 UNK         0.5000 
     26 O          -0.7379  -23.3569  -43.0626 O.2       9 UNK        -0.5000 
     27 CA         -0.5449  -21.1336  -42.1900 C.3       9 UNK         0.1400 
     28 CB          0.2953  -21.0530  -40.9071 C.3       9 UNK        -0.1800 
     29 N          -0.4988  -19.8491  -42.8888 N.am      9 UNK        -0.5000 
     30 C          -1.2245  -19.5440  -43.9746 C.2       8 UNK         0.5000 
     31 O          -2.0488  -20.3013  -44.4842 O.2       8 UNK        -0.5000 
     32 CA         -0.9370  -18.1863  -44.6379 C.3       8 UNK         0.1400 
     33 CB         -1.6297  -17.0534  -43.8660 C.3       8 UNK        -0.1800 
     34 N           0.4972  -17.9139  -44.7458 N.am      8 UNK        -0.5000 
     35 C           1.3745  -18.6812  -45.4098 C.2       7 UNK         0.5000 
     36 O           1.0616  -19.6856  -46.0452 O.2       7 UNK        -0.5000 
     37 CA          2.8565  -18.2913  -45.3071 C.3       7 UNK         0.1400 
     38 CB          3.2086  -17.1874  -46.3148 C.3       7 UNK        -0.1800 
     39 N           3.1997  -17.8626  -43.9527 N.am      7 UNK        -0.5000 
     40 C           3.2936  -18.6950  -42.9061 C.2       6 UNK         0.5000 
     41 O           3.1530  -19.9160  -42.9890 O.2       6 UNK        -0.5000 
     42 CA          3.5496  -18.0469  -41.5326 C.3       6 UNK         0.1400 
     43 CB          5.0495  -17.7882  -41.3263 C.3       6 UNK        -0.1800 
     44 N           2.8114  -16.7943  -41.3543 N.am      6 UNK        -0.5000 
     45 C           1.4769  -16.7152  -41.2579 C.2       5 UNK         0.5000 
     46 O           0.7345  -17.6969  -41.2765 O.2       5 UNK        -0.5000 
     47 CA          0.8649  -15.3024  -41.1668 C.3       5 UNK         0.1400 
     48 CB          0.8024  -14.8375  -39.7045 C.3       5 UNK        -0.1800 
     49 N           1.5557  -14.2854  -41.9688 N.am      5 UNK        -0.5000 
     50 C           1.7524  -14.3515  -43.2915 C.2       4 UNK         0.5000 
     51 O           1.4166  -15.3151  -43.9803 O.2       4 UNK        -0.5000 
     52 CA          2.4121  -13.1325  -43.9556 C.3       4 UNK         0.1400 
     53 CB          3.2640  -13.5287  -45.1733 C.3       4 UNK        -0.1800 
     54 N           1.3880  -12.1910  -44.3949 N.am      4 UNK        -0.5000 
     55 C           0.8269  -11.2448  -43.6315 C.2       3 UNK         0.5000 
     56 O           1.1099  -11.0831  -42.4428 O.2       3 UNK        -0.5000 
     57 CA         -0.2259  -10.3346  -44.3092 C.3       3 UNK         0.1400 
     58 CB         -0.2950   -8.9304  -43.6728 C.3       3 UNK        -0.1800 
     59 N          -0.0845  -10.2390  -45.7708 N.am      3 UNK        -0.5000 
     60 C           0.9633   -9.7585  -46.4566 C.2       2 UNK         0.5000 
     61 O           1.9690   -9.2678  -45.9380 O.2       2 UNK        -0.5000 
     62 CA          0.8854   -9.8684  -47.9879 C.3       2 UNK         0.1400 
     63 CB          0.6088   -8.4947  -48.6182 C.3       2 UNK        -0.1800 
     64 N           2.1793  -10.3605  -48.4580 N.am      2 UNK        -0.5000 
     65 C           2.5230  -11.5143  -49.0557 C.2       1 UNK         0.5000 
     66 O           3.7105  -11.8230  -49.1422 O.2       1 UNK        -0.5000 
     67 C          -2.4549  -22.9596  -47.0146 C.2       11 UNK         0.5000 
     68 O          -3.0732  -23.7000  -47.7816 O.2       11 UNK        -0.5000 
     69 N          -2.8230  -22.7418  -45.7448 N.am      12 UNK        -0.5000 
     70 CA         -3.9360  -23.4184  -45.0800 C.3       12 UNK         0.1400 
     71 CB         -4.2334  -22.7376  -43.7358 C.3       12 UNK        -0.1800 
     72 C          -3.6754  -24.9236  -44.8923 C.2       12 UNK         0.5000 
     73 O          -4.5699  -25.7259  -45.1586 O.2       12 UNK        -0.5000 
     74 N          -2.4496  -25.2831  -44.4832 N.am      13 UNK        -0.5000 
     75 CA         -1.9932  -26.6678  -44.3324 C.3       13 UNK         0.1400 
     76 CB         -0.6303  -26.6859  -43.6240 C.3       13 UNK        -0.1800 
     77 C          -1.9257  -27.4317  -45.6695 C.2       13 UNK         0.5000 
     78 O          -2.2480  -28.6197  -45.7064 O.2       13 UNK        -0.5000 
     79 N          -1.5427  -26.7312  -46.7462 N.am      14 UNK        -0.5000 
     80 CA         -1.5339  -27.2351  -48.1227 C.3       14 UNK         0.1400 
     81 CB         -0.7330  -26.2624  -49.0014 C.3       14 UNK        -0.1800 
     82 C          -2.9434  -27.4526  -48.7137 C.2       14 UNK         0.5000 
     83 O          -3.0713  -28.2025  -49.6822 O.2       14 UNK        -0.5000 
     84 N          -3.9524  -26.8060  -48.1101 N.am      15 UNK        -0.5000 
     85 CA         -5.3766  -26.7665  -48.4534 C.3       15 UNK         0.1400 
     86 CB         -5.9832  -28.1782  -48.5722 C.3       15 UNK        -0.1800 
     87 C          -5.6733  -25.9155  -49.7015 C.2       15 UNK         0.5000 
     88 O          -4.8454  -25.8087  -50.6090 O.2       15 UNK        -0.5000 
     89 N          -6.8662  -25.3003  -49.7077 N.am      16 UNK        -0.5000 
     90 CA         -7.4061  -24.4253  -50.7599 C.3       16 UNK         0.1400 
     91 CB         -7.7445  -25.2514  -52.0191 C.3       16 UNK        -0.1800 
     92 C          -6.5029  -23.2122  -51.0763 C.2       16 UNK         0.5000 
     93 O          -6.4328  -22.7826  -52.2280 O.2       16 UNK        -0.5000 
     94 N          -5.7884  -22.7161  -50.0544 N.am      17 UNK        -0.5000 
     95 CA         -4.7396  -21.6931  -50.1298 C.3       17 UNK         0.1400 
     96 CB         -5.3416  -20.3074  -50.4384 C.3       17 UNK        -0.1800 
     97 C          -3.5987  -22.0910  -51.0930 C.2       17 UNK         0.5000 
     98 O          -3.1837  -21.2840  -51.9260 O.2       17 UNK        -0.5000 
     99 N          -3.1658  -23.3578  -50.9900 N.am      18 UNK        -0.5000 
    100 CA        -2.2132  -24.0527  -51.8638 C.3       18 UNK         0.1400 
    101 CB        -0.7813  -23.5265  -51.6475 C.3       18 UNK        -0.1800 
    102 C         -2.6526  -24.0314  -53.3433 C.2       18 UNK         0.5000 
    103 O         -1.8425  -23.7546  -54.2294 O.2       18 UNK        -0.5000 
    104 N         -3.9484  -24.3006  -53.5632 N.am      19 UNK        -0.5000 
    105 CA        -4.6747  -24.1905  -54.8328 C.3       19 UNK         0.1400 
    106 CB        -4.1759  -25.2375  -55.8507 C.3       19 UNK        -0.1800 
    107 C         -4.6674  -22.7455  -55.3794 C.2       19 UNK         0.5000 
    108 O         -4.3252  -22.5182  -56.5415 O.2       19 UNK        -0.5000 
    109 N         -5.0529  -21.8028  -54.5074 N.am      20 UNK        -0.5000 
    110 CA        -5.1535  -20.3573  -54.7230 C.3       20 UNK         0.1400 
    111 CB        -6.3276  -20.0382  -55.6710 C.3       20 UNK        -0.1800 
    112 C         -3.8253  -19.7089  -55.1659 C.2       20 UNK         0.5000 
    113 O         -3.7981  -18.9546  -56.1411 O.2       20 UNK        -0.5000 
    114 N         -2.7428  -19.9930  -54.4282 N.am      21 UNK        -0.5000 
    115 CA        -1.3934  -19.4729  -54.6838 C.3       21 UNK         0.1400 
    116 CB        -0.4001  -20.1553  -53.7336 C.3       21 UNK        -0.1800 
    117 C         -1.2866  -17.9379  -54.5714 C.2       21 UNK         0.5000 
    118 O         -0.4684  -17.3292  -55.2618 O.2       21 UNK        -0.5000 
    119 N         -2.1413  -17.3466  -53.7312 N.am      22 UNK        -0.5000 
    120 CA        -2.3770  -15.9004  -53.6050 C.3       22 UNK         0.1400 
    121 C         -3.2266  -15.2724  -54.7521 C.2       22 UNK         0.5000 
    122 N         -3.7547  -16.0329  -55.7049 N.am      22 UNK        -0.7600 
    123 O         -3.3982  -14.0570  -54.7911 O.2       22 UNK        -0.5000 
    124 C124       -2.9368  -15.5389  -52.2019 C.3       23 UNK        -0.0398 
    125 S125       -4.2957  -16.6397  -51.6486 S.3       23 UNK        -0.2404 
    126 C126       -4.2580  -16.4537  -49.8314 C.3       23 UNK        -0.0205 
    127 H127       -2.4098  -11.8073  -51.8059 H         1 UNK         0.0600 
    128 H128       -1.2670  -11.2503  -53.0320 H         1 UNK         0.0600 
    129 H129       -1.4191  -10.3767  -51.5039 H         1 UNK         0.0600 
    130 H130        0.3167  -10.7793  -50.1526 H         1 UNK         0.3000 
    131 H131        2.0646  -12.9539  -50.5024 H         1 UNK         0.0600 
    132 H132        0.6090  -14.4130  -49.3968 H         1 UNK         0.0800 
    133 H133        1.8627  -14.0599  -48.2528 H         1 UNK         0.0800 
    134 H134        0.2605  -15.0896  -46.2439 H         1 UNK         0.0800 
    135 H135       -1.3863  -14.5615  -45.9881 H         1 UNK         0.0800 
    136 H136       -3.0471  -14.8390  -48.0103 H         1 UNK         0.1150 
    137 H137       -2.3887  -18.4221  -50.2758 H         1 UNK         0.1150 
    138 H138        0.6746  -16.9164  -47.6874 H         1 UNK         0.1150 
    139 H139        0.6957  -18.6638  -50.3155 H         1 UNK         0.0800 
    140 H140        0.9635  -19.0679  -48.6375 H         1 UNK         0.0800 
    141 H141       -1.1802  -20.0720  -47.3340 H         1 UNK         0.0800 
    142 H142       -2.5270  -20.6657  -48.2299 H         1 UNK         0.0800 
    143 H143       -0.8006  -22.8842  -48.3221 H         1 UNK         0.0600 
    144 H144        0.1914  -21.3215  -46.1754 H         1 UNK         0.3000 
    145 H145        1.6206  -24.0321  -44.3086 H         1 UNK         0.0600 
    146 H146        3.5650  -22.5034  -44.5559 H         1 UNK         0.0600 
    147 H147        3.2564  -23.3731  -46.0519 H         1 UNK         0.0600 
    148 H148        2.7807  -21.6877  -45.9057 H         1 UNK         0.0600 
    149 H149        1.4757  -21.2272  -43.7905 H         1 UNK         0.3000 
    150 H150       -1.5825  -21.3173  -41.9043 H         1 UNK         0.0600 
    151 H151       -0.0786  -20.2759  -40.2402 H         1 UNK         0.0600 
    152 H152        0.2634  -21.9955  -40.3590 H         1 UNK         0.0600 
    153 H153        1.3411  -20.8324  -41.1225 H         1 UNK         0.0600 
    154 H154        0.1206  -19.1429  -42.5030 H         1 UNK         0.3000 
    155 H155       -1.3441  -18.2090  -45.6506 H         1 UNK         0.0600 
    156 H156       -1.3617  -17.0592  -42.8102 H         1 UNK         0.0600 
    157 H157       -2.7140  -17.1526  -43.9264 H         1 UNK         0.0600 
    158 H158       -1.3677  -16.0762  -44.2660 H         1 UNK         0.0600 
    159 H159        0.8390  -17.0705  -44.2922 H         1 UNK         0.3000 
    160 H160        3.4547  -19.1721  -45.5503 H         1 UNK         0.0600 
    161 H161        2.5930  -16.3002  -46.1744 H         1 UNK         0.0600 
    162 H162        3.0539  -17.5339  -47.3372 H         1 UNK         0.0600 
    163 H163        4.2535  -16.8896  -46.2279 H         1 UNK         0.0600 
    164 H164        3.2545  -16.8676  -43.7912 H         1 UNK         0.3000 
    165 H165        3.2164  -18.7507  -40.7667 H         1 UNK         0.0600 
    166 H166        5.2487  -17.4013  -40.3267 H         1 UNK         0.0600 
    167 H167        5.6227  -18.7097  -41.4371 H         1 UNK         0.0600 
    168 H168        5.4392  -17.0700  -42.0488 H         1 UNK         0.0600 
    169 H169        3.3495  -15.9408  -41.3295 H         1 UNK         0.3000 
    170 H170       -0.1575  -15.3679  -41.5429 H         1 UNK         0.0600 
    171 H171        0.2721  -15.5629  -39.0859 H         1 UNK         0.0600 
    172 H172        1.7988  -14.7092  -39.2798 H         1 UNK         0.0600 
    173 H173        0.2738  -13.8882  -39.6146 H         1 UNK         0.0600 
    174 H174        1.8228  -13.4379  -41.4870 H         1 UNK         0.3000 
    175 H175        3.0712  -12.6526  -43.2290 H         1 UNK         0.0600 
    176 H176        2.6544  -13.9466  -45.9738 H         1 UNK         0.0600 
    177 H177        3.7930  -12.6659  -45.5786 H         1 UNK         0.0600 
    178 H178        4.0135  -14.2739  -44.9038 H         1 UNK         0.0600 
    179 H179        1.0663  -12.2894  -45.3466 H         1 UNK         0.3000 
    180 H180       -1.1877  -10.8183  -44.1332 H         1 UNK         0.0600 
    181 H181        0.6591   -8.4071  -43.7400 H         1 UNK         0.0600 
    182 H182       -0.5593   -8.9911  -42.6165 H         1 UNK         0.0600 
    183 H183       -1.0511   -8.3139  -44.1588 H         1 UNK         0.0600 
    184 H184       -0.8529  -10.6340  -46.2960 H         1 UNK         0.3000 
    185 H185        0.0645  -10.5292  -48.2479 H         1 UNK         0.0600 
    186 H186       -0.3473   -8.0951  -48.2776 H         1 UNK         0.0600 
    187 H187        1.3795   -7.7679  -48.3575 H         1 UNK         0.0600 
    188 H188        0.5665   -8.5578  -49.7055 H         1 UNK         0.0600 
    189 H189        2.9437   -9.8234  -48.0723 H         1 UNK         0.3000 
    190 H190       -2.3167  -22.0511  -45.1970 H         1 UNK         0.3000 
    191 H191       -4.8191  -23.3108  -45.7133 H         1 UNK         0.0600 
    192 H192       -4.4850  -21.6861  -43.8746 H         1 UNK         0.0600 
    193 H193       -5.0795  -23.2118  -43.2371 H         1 UNK         0.0600 
    194 H194       -3.3816  -22.7898  -43.0579 H         1 UNK         0.0600 
    195 H195       -1.7844  -24.5568  -44.2342 H         1 UNK         0.3000 
    196 H196       -2.7119  -27.1858  -43.6940 H         1 UNK         0.0600 
    197 H197       -0.2830  -27.7084  -43.4710 H         1 UNK         0.0600 
    198 H198       -0.6895  -26.2122  -42.6439 H         1 UNK         0.0600 
    199 H199        0.1318  -26.1631  -44.2019 H         1 UNK         0.0600 
    200 H200       -1.2018  -25.7841  -46.6088 H         1 UNK         0.3000 
    201 H201       -1.0232  -28.2001  -48.1274 H         1 UNK         0.0600 
    202 H202        0.2885  -26.1489  -48.6381 H         1 UNK         0.0600 
    203 H203       -1.1941  -25.2753  -49.0197 H         1 UNK         0.0600 
    204 H204       -0.6749  -26.6182  -50.0307 H         1 UNK         0.0600 
    205 H205       -3.6961  -26.2034  -47.3393 H         1 UNK         0.3000 
    206 H206       -5.8548  -26.2747  -47.6051 H         1 UNK         0.0600 
    207 H207       -5.7486  -28.7838  -47.6967 H         1 UNK         0.0600 
    208 H208       -7.0697  -28.1280  -48.6509 H         1 UNK         0.0600 
    209 H209       -5.6223  -28.7064  -49.4550 H         1 UNK         0.0600 
    210 H210       -7.4775  -25.4411  -48.9150 H         1 UNK         0.3000 
    211 H211       -8.3393  -24.0134  -50.3734 H         1 UNK         0.0600 
    212 H212       -6.8489  -25.6567  -52.4910 H         1 UNK         0.0600 
    213 H213       -8.2594  -24.6425  -52.7631 H         1 UNK         0.0600 
    214 H214       -8.4012  -26.0868  -51.7766 H         1 UNK         0.0600 
    215 H215       -5.9057  -23.1527  -49.1513 H         1 UNK         0.3000 
    216 H216       -4.3030  -21.6439  -49.1347 H         1 UNK         0.0600 
    217 H217       -5.8106  -20.2756  -51.4211 H         1 UNK         0.0600 
    218 H218       -4.5714  -19.5364  -50.4187 H         1 UNK         0.0600 
    219 H219       -6.0941  -20.0316  -49.7000 H         1 UNK         0.0600 
    220 H220       -3.6137  -23.9508  -50.3017 H         1 UNK         0.3000 
    221 H221       -2.2275  -25.1001  -51.5590 H         1 UNK         0.0600 
    222 H222       -0.6884  -22.4838  -51.9462 H         1 UNK         0.0600 
    223 H223       -0.4848  -23.5997  -50.6026 H         1 UNK         0.0600 
    224 H224       -0.0595  -24.1007  -52.2290 H         1 UNK         0.0600 
    225 H225       -4.5179  -24.5055  -52.7524 H         1 UNK         0.3000 
    226 H226       -5.7163  -24.4252  -54.6088 H         1 UNK         0.0600 
    227 H227       -4.2172  -26.2433  -55.4330 H         1 UNK         0.0600 
    228 H228       -4.7965  -25.2328  -56.7475 H         1 UNK         0.0600 
    229 H229       -3.1496  -25.0463  -56.1647 H         1 UNK         0.0600 
    230 H230       -5.3497  -22.1189  -53.5865 H         1 UNK         0.3000 
    231 H231       -5.3907  -19.9209  -53.7524 H         1 UNK         0.0600 
    232 H232       -6.1524  -20.4222  -56.6764 H         1 UNK         0.0600 
    233 H233       -6.4820  -18.9616  -55.7533 H         1 UNK         0.0600 
    234 H234       -7.2582  -20.4710  -55.3037 H         1 UNK         0.0600 
    235 H235       -2.8540  -20.5882  -53.6082 H         1 UNK         0.3000 
    236 H236       -1.1247  -19.7428  -55.7069 H         1 UNK         0.0600 
    237 H237       -0.3738  -21.2307  -53.9078 H         1 UNK         0.0600 
    238 H238        0.6122  -19.7777  -53.8824 H         1 UNK         0.0600 
    239 H239       -0.6654  -19.9874  -52.6891 H         1 UNK         0.0600 
    240 H240       -2.7752  -17.9313  -53.2057 H         1 UNK         0.3000 
    241 H241       -1.4044  -15.4110  -53.6859 H         1 UNK         0.0600 
    242 H242       -4.2916  -15.5948  -56.4361 H         1 UNK         0.3800 
    243 H243       -3.6241  -17.0388  -55.7231 H         1 UNK         0.3800 
    244 H244       -2.1121  -15.6003  -51.4928 H         1 UNK         0.0800 
    245 H245       -3.2725  -14.5017  -52.1541 H         1 UNK         0.0800 
    246 H246       -4.9312  -17.1886  -49.3888 H         1 UNK         0.0800 
    247 H247       -4.6703  -15.4738  -49.5859 H         1 UNK         0.0800 
@<TRIPOS>BOND
     1    1    2 1    
     2    1  127 1    
     3    1  128 1    
     4    1  129 1    
     5    2    3 2    
     6    2    4 am   BACKBONE|DICT|INTERRES
     7    4    5 1    
     8    4  130 1    
     9    5    6 1    
    10    5   65 1    
    11    5  131 1    
    12    6    7 1    
    13    6  132 1    
    14    6  133 1    
    15    7    8 1    
    16    8    9 1    
    17    8  134 1    
    18    8  135 1    
    19    9   10 ar   
    20    9   14 ar   
    21   10   11 ar   
    22   10  136 1    
    23   11   12 ar   
    24   11  126 1    
    25   12   13 ar   
    26   12  137 1    
    27   13   14 ar   
    28   13   15 1    
    29   14  138 1    
    30   15   16 1    
    31   15  139 1    
    32   15  140 1    
    33   16   17 1    
    34   17   18 1    
    35   17  141 1    
    36   17  142 1    
    37   18   19 1    
    38   18   67 1    
    39   18  143 1    
    40   19   20 am   BACKBONE|DICT|INTERRES
    41   19  144 1    
    42   20   21 2    
    43   20   22 1    
    44   22   23 1    
    45   22   24 1    
    46   22  145 1    
    47   23  146 1    
    48   23  147 1    
    49   23  148 1    
    50   24   25 am   BACKBONE|DICT|INTERRES
    51   24  149 1    
    52   25   26 2    
    53   25   27 1    
    54   27   28 1    
    55   27   29 1    
    56   27  150 1    
    57   28  151 1    
    58   28  152 1    
    59   28  153 1    
    60   29   30 am   BACKBONE|DICT|INTERRES
    61   29  154 1    
    62   30   31 2    
    63   30   32 1    
    64   32   33 1    
    65   32   34 1    
    66   32  155 1    
    67   33  156 1    
    68   33  157 1    
    69   33  158 1    
    70   34   35 am   BACKBONE|DICT|INTERRES
    71   34  159 1    
    72   35   36 2    
    73   35   37 1    
    74   37   38 1    
    75   37   39 1    
    76   37  160 1    
    77   38  161 1    
    78   38  162 1    
    79   38  163 1    
    80   39   40 am   BACKBONE|DICT|INTERRES
    81   39  164 1    
    82   40   41 2    
    83   40   42 1    
    84   42   43 1    
    85   42   44 1    
    86   42  165 1    
    87   43  166 1    
    88   43  167 1    
    89   43  168 1    
    90   44   45 am   BACKBONE|DICT|INTERRES
    91   44  169 1    
    92   45   46 2    
    93   45   47 1    
    94   47   48 1    
    95   47   49 1    
    96   47  170 1    
    97   48  171 1    
    98   48  172 1    
    99   48  173 1    
   100   49   50 am   BACKBONE|DICT|INTERRES
   101   49  174 1    
   102   50   51 2    
   103   50   52 1    
   104   52   53 1    
   105   52   54 1    
   106   52  175 1    
   107   53  176 1    
   108   53  177 1    
   109   53  178 1    
   110   54   55 am   BACKBONE|DICT|INTERRES
   111   54  179 1    
   112   55   56 2    
   113   55   57 1    
   114   57   58 1    
   115   57   59 1    
   116   57  180 1    
   117   58  181 1    
   118   58  182 1    
   119   58  183 1    
   120   59   60 am   BACKBONE|DICT|INTERRES
   121   59  184 1    
   122   60   61 2    
   123   60   62 1    
   124   62   63 1    
   125   62   64 1    
   126   62  185 1    
   127   63  186 1    
   128   63  187 1    
   129   63  188 1    
   130   64   65 am   BACKBONE|DICT|INTERRES
   131   64  189 1    
   132   65   66 2    
   133   67   68 2    
   134   67   69 am   BACKBONE|DICT|INTERRES
   135   69   70 1    
   136   69  190 1    
   137   70   71 1    
   138   70   72 1    
   139   70  191 1    
   140   71  192 1    
   141   71  193 1    
   142   71  194 1    
   143   72   73 2    
   144   72   74 am   BACKBONE|DICT|INTERRES
   145   74   75 1    
   146   74  195 1    
   147   75   76 1    
   148   75   77 1    
   149   75  196 1    
   150   76  197 1    
   151   76  198 1    
   152   76  199 1    
   153   77   78 2    
   154   77   79 am   BACKBONE|DICT|INTERRES
   155   79   80 1    
   156   79  200 1    
   157   80   81 1    
   158   80   82 1    
   159   80  201 1    
   160   81  202 1    
   161   81  203 1    
   162   81  204 1    
   163   82   83 2    
   164   82   84 am   BACKBONE|DICT|INTERRES
   165   84   85 1    
   166   84  205 1    
   167   85   86 1    
   168   85   87 1    
   169   85  206 1    
   170   86  207 1    
   171   86  208 1    
   172   86  209 1    
   173   87   88 2    
   174   87   89 am   BACKBONE|DICT|INTERRES
   175   89   90 1    
   176   89  210 1    
   177   90   91 1    
   178   90   92 1    
   179   90  211 1    
   180   91  212 1    
   181   91  213 1    
   182   91  214 1    
   183   92   93 2    
   184   92   94 am   BACKBONE|DICT|INTERRES
   185   94   95 1    
   186   94  215 1    
   187   95   96 1    
   188   95   97 1    
   189   95  216 1    
   190   96  217 1    
   191   96  218 1    
   192   96  219 1    
   193   97   98 2    
   194   97   99 am   BACKBONE|DICT|INTERRES
   195   99  100 1    
   196   99  220 1    
   197  100  101 1    
   198  100  102 1    
   199  100  221 1    
   200  101  222 1    
   201  101  223 1    
   202  101  224 1    
   203  102  103 2    
   204  102  104 am   BACKBONE|DICT|INTERRES
   205  104  105 1    
   206  104  225 1    
   207  105  106 1    
   208  105  107 1    
   209  105  226 1    
   210  106  227 1    
   211  106  228 1    
   212  106  229 1    
   213  107  108 2    
   214  107  109 am   BACKBONE|DICT|INTERRES
   215  109  110 1    
   216  109  230 1    
   217  110  111 1    
   218  110  112 1    
   219  110  231 1    
   220  111  232 1    
   221  111  233 1    
   222  111  234 1    
   223  112  113 2    
   224  112  114 am   BACKBONE|DICT|INTERRES
   225  114  115 1    
   226  114  235 1    
   227  115  116 1    
   228  115  117 1    
   229  115  236 1    
   230  116  237 1    
   231  116  238 1    
   232  116  239 1    
   233  117  118 2    
   234  117  119 am   BACKBONE|DICT|INTERRES
   235  119  120 1    
   236  119  240 1    
   237  120  121 1    
   238  120  124 1    
   239  120  241 1    
   240  121  122 am   BACKBONE|DICT|INTERRES
   241  121  123 2    
   242  122  242 1    
   243  122  243 1    
   244  124  125 1    
   245  124  244 1    
   246  124  245 1    
   247  125  126 1    
   248  126  246 1    
   249  126  247 1    
@<TRIPOS>SUBSTRUCTURE
     1 UNK         1 GROUP             0       ****    0 ROOT    
