@<TRIPOS>MOLECULE
3R540
247   249    1
SMALL
USER_CHARGES


@<TRIPOS>ATOM
      1 CA         -0.3092   -9.2339  -44.2992 C.3       0 UNK        -0.1800 
      2 C          -0.0552  -10.0554  -45.5556 C.2       0 UNK         0.5000 
      3 O          -0.9339  -10.1374  -46.4134 O.2       0 UNK        -0.5000 
      4 N           1.1331  -10.6595  -45.6689 N.am      1 UNK        -0.5000 
      5 CA          1.5636  -11.4390  -46.8278 C.3       1 UNK         0.1400 
      6 C6          0.8246  -12.7947  -47.0019 C.3       23 UNK        -0.0398 
      7 S7          0.8612  -13.3699  -48.7341 S.3       23 UNK        -0.2404 
      8 C8          2.2429  -14.5638  -48.7167 C.3       23 UNK        -0.0205 
      9 C9          1.8962  -15.9683  -49.2093 C.ar      23 UNK        -0.0193 
     10 C10         0.8997  -16.2035  -50.1673 C.ar      23 UNK        -0.1150 
     11 C11         0.6615  -17.4976  -50.6366 C.ar      23 UNK        -0.0193 
     12 C12         1.4489  -18.5509  -50.1742 C.ar      23 UNK        -0.1150 
     13 C13         2.3979  -18.3545  -49.1666 C.ar      23 UNK        -0.0193 
     14 C14         2.6257  -17.0532  -48.7087 C.ar      23 UNK        -0.1150 
     15 C15         3.1817  -19.5077  -48.5301 C.3       23 UNK        -0.0205 
     16 S16         2.5620  -21.2048  -48.8470 S.3       23 UNK        -0.2404 
     17 C17         0.7820  -21.1048  -48.4436 C.3       23 UNK        -0.0398 
     18 CA          0.3010  -22.2348  -47.4999 C.3       11 UNK         0.1400 
     19 N           0.2430  -21.8036  -46.1015 N.am      11 UNK        -0.5000 
     20 C          -0.0260  -22.6091  -45.0642 C.2       10 UNK         0.5000 
     21 O          -0.1651  -23.8291  -45.1594 O.2       10 UNK        -0.5000 
     22 CA         -0.2204  -21.9296  -43.6971 C.3       10 UNK         0.1400 
     23 CB          1.1345  -21.6205  -43.0429 C.3       10 UNK        -0.1800 
     24 N          -1.0185  -20.7047  -43.7849 N.am      10 UNK        -0.5000 
     25 C          -2.3036  -20.6606  -44.1664 C.2       9 UNK         0.5000 
     26 O          -2.9660  -21.6584  -44.4494 O.2       9 UNK        -0.5000 
     27 CA         -2.9481  -19.2676  -44.2978 C.3       9 UNK         0.1400 
     28 CB         -3.3517  -18.7162  -42.9229 C.3       9 UNK        -0.1800 
     29 N          -2.0852  -18.3053  -44.9836 N.am      9 UNK        -0.5000 
     30 C          -1.6631  -18.4352  -46.2499 C.2       8 UNK         0.5000 
     31 O          -1.9760  -19.3665  -46.9863 O.2       8 UNK        -0.5000 
     32 CA         -0.6822  -17.3745  -46.7653 C.3       8 UNK         0.1400 
     33 CB         -1.4388  -16.1191  -47.2191 C.3       8 UNK        -0.1800 
     34 N           0.3232  -17.0275  -45.7613 N.am      8 UNK        -0.5000 
     35 C           1.2465  -17.8813  -45.2947 C.2       7 UNK         0.5000 
     36 O           1.3607  -19.0466  -45.6743 O.2       7 UNK        -0.5000 
     37 CA          2.1537  -17.3565  -44.1689 C.3       7 UNK         0.1400 
     38 CB          3.2069  -16.3870  -44.7245 C.3       7 UNK        -0.1800 
     39 N           1.3901  -16.6910  -43.1139 N.am      7 UNK        -0.5000 
     40 C           0.4858  -17.3009  -42.3318 C.2       6 UNK         0.5000 
     41 O           0.2525  -18.5079  -42.3711 O.2       6 UNK        -0.5000 
     42 CA         -0.3328  -16.4096  -41.3778 C.3       6 UNK         0.1400 
     43 CB          0.3450  -16.3333  -40.0018 C.3       6 UNK        -0.1800 
     44 N          -0.5416  -15.0524  -41.8831 N.am      6 UNK        -0.5000 
     45 C          -1.1346  -14.7283  -43.0419 C.2       5 UNK         0.5000 
     46 O          -1.6402  -15.5557  -43.8004 O.2       5 UNK        -0.5000 
     47 CA         -1.1206  -13.2383  -43.4398 C.3       5 UNK         0.1400 
     48 CB         -2.5158  -12.6212  -43.2672 C.3       5 UNK        -0.1800 
     49 N          -0.1458  -12.4467  -42.6806 N.am      5 UNK        -0.5000 
     50 C           1.1840  -12.5370  -42.8139 C.2       4 UNK         0.5000 
     51 O           1.7461  -13.2533  -43.6496 O.2       4 UNK        -0.5000 
     52 CA          2.0108  -11.7285  -41.7992 C.3       4 UNK         0.1400 
     53 CB          2.0465  -12.4583  -40.4468 C.3       4 UNK        -0.1800 
     54 N           3.3828  -11.5443  -42.2591 N.am      4 UNK        -0.5000 
     55 C           3.7793  -10.6424  -43.1651 C.2       3 UNK         0.5000 
     56 O           3.0319   -9.8096  -43.6750 O.2       3 UNK        -0.5000 
     57 CA          5.2430  -10.7291  -43.6277 C.3       3 UNK         0.1400 
     58 CB          6.1343   -9.8433  -42.7448 C.3       3 UNK        -0.1800 
     59 N           5.7288  -12.1105  -43.5660 N.am      3 UNK        -0.5000 
     60 C           5.5935  -13.0717  -44.4915 C.2       2 UNK         0.5000 
     61 O           5.8990  -14.2339  -44.2303 O.2       2 UNK        -0.5000 
     62 CA          5.0833  -12.7249  -45.9073 C.3       2 UNK         0.1400 
     63 CB          5.3679  -13.8500  -46.9245 C.3       2 UNK        -0.1800 
     64 N           3.6520  -12.4014  -45.9214 N.am      2 UNK        -0.5000 
     65 C           3.0960  -11.5776  -46.8244 C.2       1 UNK         0.5000 
     66 O           3.7510  -10.9309  -47.6432 O.2       1 UNK        -0.5000 
     67 C          -1.0572  -22.7941  -47.9718 C.2       11 UNK         0.5000 
     68 O          -1.1009  -23.9060  -48.4965 O.2       11 UNK        -0.5000 
     69 N          -2.1386  -22.0314  -47.7598 N.am      12 UNK        -0.5000 
     70 CA         -3.5059  -22.3821  -48.1438 C.3       12 UNK         0.1400 
     71 CB         -4.4469  -21.2102  -47.8331 C.3       12 UNK        -0.1800 
     72 C          -4.0147  -23.6696  -47.4774 C.2       12 UNK         0.5000 
     73 O          -4.6738  -24.4654  -48.1423 O.2       12 UNK        -0.5000 
     74 N          -3.6705  -23.8768  -46.1998 N.am      13 UNK        -0.5000 
     75 CA         -3.9886  -25.0908  -45.4468 C.3       13 UNK         0.1400 
     76 CB         -3.6125  -24.8847  -43.9717 C.3       13 UNK        -0.1800 
     77 C          -3.3073  -26.3559  -46.0058 C.2       13 UNK         0.5000 
     78 O          -3.8819  -27.4412  -45.9105 O.2       13 UNK        -0.5000 
     79 N          -2.1048  -26.1975  -46.5736 N.am      14 UNK        -0.5000 
     80 CA         -1.3272  -27.2787  -47.1713 C.3       14 UNK         0.1400 
     81 CB          0.1700  -26.9519  -47.0463 C.3       14 UNK        -0.1800 
     82 C          -1.7147  -27.5259  -48.6396 C.2       14 UNK         0.5000 
     83 O          -1.9746  -28.6696  -49.0156 O.2       14 UNK        -0.5000 
     84 N          -1.7126  -26.4591  -49.4485 N.am      15 UNK        -0.5000 
     85 CA         -1.8622  -26.5243  -50.9022 C.3       15 UNK         0.1400 
     86 CB         -1.1616  -25.3077  -51.5237 C.3       15 UNK        -0.1800 
     87 C          -3.3239  -26.5864  -51.3719 C.2       15 UNK         0.5000 
     88 O          -3.5936  -27.1993  -52.4064 O.2       15 UNK        -0.5000 
     89 N          -4.2348  -25.9395  -50.6298 N.am      16 UNK        -0.5000 
     90 CA         -5.6604  -25.7873  -50.9321 C.3       16 UNK         0.1400 
     91 CB         -6.4010  -27.1172  -50.6666 C.3       16 UNK        -0.1800 
     92 C          -5.8867  -25.1968  -52.3406 C.2       16 UNK         0.5000 
     93 O          -5.3973  -24.0995  -52.6259 O.2       16 UNK        -0.5000 
     94 N          -6.5899  -25.9415  -53.2031 N.am      17 UNK        -0.5000 
     95 CA         -6.9163  -25.5817  -54.5823 C.3       17 UNK         0.1400 
     96 CB         -7.8396  -26.6574  -55.1730 C.3       17 UNK        -0.1800 
     97 C          -5.6926  -25.3652  -55.4931 C.2       17 UNK         0.5000 
     98 O          -5.8007  -24.6034  -56.4536 O.2       17 UNK        -0.5000 
     99 N          -4.5453  -25.9829  -55.1691 N.am      18 UNK        -0.5000 
    100 CA        -3.2911  -25.8246  -55.9144 C.3       18 UNK         0.1400 
    101 CB        -2.2810  -26.8901  -55.4635 C.3       18 UNK        -0.1800 
    102 C         -2.6834  -24.4118  -55.7958 C.2       18 UNK         0.5000 
    103 O         -1.9636  -23.9895  -56.7012 O.2       18 UNK        -0.5000 
    104 N         -3.0057  -23.7021  -54.7059 N.am      19 UNK        -0.5000 
    105 CA        -2.6550  -22.2974  -54.4843 C.3       19 UNK         0.1400 
    106 CB        -2.0551  -22.1589  -53.0742 C.3       19 UNK        -0.1800 
    107 C         -3.8777  -21.3722  -54.6400 C.2       19 UNK         0.5000 
    108 O         -3.7598  -20.1773  -54.3678 O.2       19 UNK        -0.5000 
    109 N         -5.0426  -21.9346  -55.0063 N.am      20 UNK        -0.5000 
    110 CA        -6.3698  -21.3014  -55.0258 C.3       20 UNK         0.1400 
    111 CB        -6.4632  -20.2831  -56.1799 C.3       20 UNK        -0.1800 
    112 C         -6.7570  -20.6941  -53.6572 C.2       20 UNK         0.5000 
    113 O         -7.3824  -19.6326  -53.5999 O.2       20 UNK        -0.5000 
    114 N         -6.2988  -21.3493  -52.5773 N.am      21 UNK        -0.5000 
    115 CA        -6.3359  -20.9139  -51.1764 C.3       21 UNK         0.1400 
    116 CB        -7.7745  -21.0034  -50.6302 C.3       21 UNK        -0.1800 
    117 C         -5.6878  -19.5299  -50.9233 C.2       21 UNK         0.5000 
    118 O         -6.0139  -18.8804  -49.9289 O.2       21 UNK        -0.5000 
    119 N         -4.7999  -19.0966  -51.8312 N.am      22 UNK        -0.5000 
    120 CA        -4.1714  -17.7657  -51.8809 C.3       22 UNK         0.1400 
    121 C         -5.1776  -16.5898  -52.0817 C.2       22 UNK         0.5000 
    122 N         -6.3700  -16.8292  -52.6185 N.am      22 UNK        -0.7600 
    123 O         -4.8694  -15.4393  -51.7825 O.2       22 UNK        -0.5000 
    124 C124       -3.1500  -17.5317  -50.7322 C.3       23 UNK        -0.0398 
    125 S125       -1.7887  -18.7455  -50.8088 S.3       23 UNK        -0.2404 
    126 C126       -0.4584  -17.7932  -51.6206 C.3       23 UNK        -0.0205 
    127 H127       -1.2788   -9.4879  -43.8719 H         1 UNK         0.0600 
    128 H128       -0.3116   -8.1714  -44.5417 H         1 UNK         0.0600 
    129 H129        0.4483   -9.4077  -43.5367 H         1 UNK         0.0600 
    130 H130        1.8454  -10.4831  -44.9637 H         1 UNK         0.3000 
    131 H131        1.3229  -10.8234  -47.6981 H         1 UNK         0.0600 
    132 H132        1.1928  -13.5622  -46.3206 H         1 UNK         0.0800 
    133 H133       -0.2302  -12.6788  -46.7551 H         1 UNK         0.0800 
    134 H134        2.6505  -14.6297  -47.7088 H         1 UNK         0.0800 
    135 H135        3.0433  -14.1693  -49.3435 H         1 UNK         0.0800 
    136 H136        0.3089  -15.3856  -50.5529 H         1 UNK         0.1150 
    137 H137        1.2729  -19.5338  -50.5815 H         1 UNK         0.1150 
    138 H138        3.3807  -16.8845  -47.9540 H         1 UNK         0.1150 
    139 H139        4.2130  -19.4535  -48.8805 H         1 UNK         0.0800 
    140 H140        3.2218  -19.3619  -47.4507 H         1 UNK         0.0800 
    141 H141        0.2587  -21.1397  -49.4014 H         1 UNK         0.0800 
    142 H142        0.5428  -20.1279  -48.0232 H         1 UNK         0.0800 
    143 H143        1.0076  -23.0659  -47.5526 H         1 UNK         0.0600 
    144 H144        0.3908  -20.8148  -45.9249 H         1 UNK         0.3000 
    145 H145       -0.7560  -22.6301  -43.0532 H         1 UNK         0.0600 
    146 H146        1.7009  -20.8858  -43.6162 H         1 UNK         0.0600 
    147 H147        1.0034  -21.2274  -42.0347 H         1 UNK         0.0600 
    148 H148        1.7457  -22.5204  -42.9646 H         1 UNK         0.0600 
    149 H149       -0.5517  -19.8412  -43.5222 H         1 UNK         0.3000 
    150 H150       -3.8548  -19.3757  -44.8962 H         1 UNK         0.0600 
    151 H151       -4.0816  -19.3695  -42.4433 H         1 UNK         0.0600 
    152 H152       -3.8038  -17.7278  -43.0082 H         1 UNK         0.0600 
    153 H153       -2.4961  -18.6388  -42.2534 H         1 UNK         0.0600 
    154 H154       -1.8023  -17.4814  -44.4632 H         1 UNK         0.3000 
    155 H155       -0.1649  -17.7890  -47.6324 H         1 UNK         0.0600 
    156 H156       -1.9962  -15.6563  -46.4052 H         1 UNK         0.0600 
    157 H157       -0.7550  -15.3773  -47.6213 H         1 UNK         0.0600 
    158 H158       -2.1507  -16.3615  -48.0086 H         1 UNK         0.0600 
    159 H159        0.2442  -16.1156  -45.3377 H         1 UNK         0.3000 
    160 H160        2.6709  -18.2108  -43.7270 H         1 UNK         0.0600 
    161 H161        3.8133  -16.8676  -45.4929 H         1 UNK         0.0600 
    162 H162        2.7522  -15.5004  -45.1679 H         1 UNK         0.0600 
    163 H163        3.8848  -16.0553  -43.9384 H         1 UNK         0.0600 
    164 H164        1.5131  -15.6917  -43.0260 H         1 UNK         0.3000 
    165 H165       -1.3144  -16.8686  -41.2516 H         1 UNK         0.0600 
    166 H166       -0.2624  -15.7709  -39.2924 H         1 UNK         0.0600 
    167 H167        0.4912  -17.3301  -39.5834 H         1 UNK         0.0600 
    168 H168        1.3236  -15.8551  -40.0605 H         1 UNK         0.0600 
    169 H169       -0.1723  -14.3035  -41.3184 H         1 UNK         0.3000 
    170 H170       -0.8549  -13.1892  -44.4967 H         1 UNK         0.0600 
    171 H171       -3.2630  -13.1805  -43.8322 H         1 UNK         0.0600 
    172 H172       -2.8291  -12.6176  -42.2226 H         1 UNK         0.0600 
    173 H173       -2.5412  -11.5943  -43.6310 H         1 UNK         0.0600 
    174 H174       -0.5268  -11.8395  -41.9687 H         1 UNK         0.3000 
    175 H175        1.5451  -10.7503  -41.6620 H         1 UNK         0.0600 
    176 H176        2.4823  -13.4545  -40.5364 H         1 UNK         0.0600 
    177 H177        2.6342  -11.9021  -39.7161 H         1 UNK         0.0600 
    178 H178        1.0450  -12.5732  -40.0304 H         1 UNK         0.0600 
    179 H179        4.0506  -12.2337  -41.9489 H         1 UNK         0.3000 
    180 H180        5.3008  -10.3432  -44.6458 H         1 UNK         0.0600 
    181 H181        6.1167  -10.1613  -41.7015 H         1 UNK         0.0600 
    182 H182        5.8046   -8.8039  -42.7767 H         1 UNK         0.0600 
    183 H183        7.1700   -9.8650  -43.0843 H         1 UNK         0.0600 
    184 H184        6.1397  -12.3776  -42.6839 H         1 UNK         0.3000 
    185 H185        5.6620  -11.8597  -46.2352 H         1 UNK         0.0600 
    186 H186        5.1034  -13.5470  -47.9374 H         1 UNK         0.0600 
    187 H187        6.4276  -14.1076  -46.9356 H         1 UNK         0.0600 
    188 H188        4.8138  -14.7582  -46.6882 H         1 UNK         0.0600 
    189 H189        3.0742  -12.8589  -45.2217 H         1 UNK         0.3000 
    190 H190       -2.0181  -21.1054  -47.3503 H         1 UNK         0.3000 
    191 H191       -3.5100  -22.5449  -49.2236 H         1 UNK         0.0600 
    192 H192       -4.4523  -20.9713  -46.7695 H         1 UNK         0.0600 
    193 H193       -5.4730  -21.4394  -48.1225 H         1 UNK         0.0600 
    194 H194       -4.1466  -20.3126  -48.3737 H         1 UNK         0.0600 
    195 H195       -3.1795  -23.1421  -45.6975 H         1 UNK         0.3000 
    196 H196       -5.0679  -25.2461  -45.5047 H         1 UNK         0.0600 
    197 H197       -3.8438  -25.7713  -43.3800 H         1 UNK         0.0600 
    198 H198       -4.1645  -24.0511  -43.5373 H         1 UNK         0.0600 
    199 H199       -2.5480  -24.6781  -43.8545 H         1 UNK         0.0600 
    200 H200       -1.7065  -25.2684  -46.6207 H         1 UNK         0.3000 
    201 H201       -1.5090  -28.2022  -46.6171 H         1 UNK         0.0600 
    202 H202        0.4630  -26.8514  -46.0010 H         1 UNK         0.0600 
    203 H203        0.4280  -26.0209  -47.5524 H         1 UNK         0.0600 
    204 H204        0.7809  -27.7437  -47.4816 H         1 UNK         0.0600 
    205 H205       -1.4909  -25.5440  -49.0574 H         1 UNK         0.3000 
    206 H206       -1.3605  -27.4223  -51.2695 H         1 UNK         0.0600 
    207 H207       -0.1004  -25.2940  -51.2750 H         1 UNK         0.0600 
    208 H208       -1.2414  -25.3160  -52.6110 H         1 UNK         0.0600 
    209 H209       -1.5988  -24.3748  -51.1674 H         1 UNK         0.0600 
    210 H210       -3.9323  -25.4698  -49.7842 H         1 UNK         0.3000 
    211 H211       -6.0577  -25.0463  -50.2387 H         1 UNK         0.0600 
    212 H212       -6.0532  -27.9214  -51.3160 H         1 UNK         0.0600 
    213 H213       -7.4769  -27.0082  -50.8091 H         1 UNK         0.0600 
    214 H214       -6.2495  -27.4413  -49.6367 H         1 UNK         0.0600 
    215 H215       -6.9211  -26.8416  -52.8876 H         1 UNK         0.3000 
    216 H216       -7.4669  -24.6393  -54.5517 H         1 UNK         0.0600 
    217 H217       -8.1295  -26.4069  -56.1944 H         1 UNK         0.0600 
    218 H218       -8.7569  -26.7537  -54.5917 H         1 UNK         0.0600 
    219 H219       -7.3536  -27.6335  -55.1996 H         1 UNK         0.0600 
    220 H220       -4.5111  -26.5621  -54.3377 H         1 UNK         0.3000 
    221 H221       -3.5091  -25.9973  -56.9705 H         1 UNK         0.0600 
    222 H222       -1.9708  -26.7426  -54.4298 H         1 UNK         0.0600 
    223 H223       -2.6977  -27.8937  -55.5498 H         1 UNK         0.0600 
    224 H224       -1.3816  -26.8573  -56.0796 H         1 UNK         0.0600 
    225 H225       -3.6178  -24.1215  -54.0163 H         1 UNK         0.3000 
    226 H226       -1.9076  -21.9639  -55.2066 H         1 UNK         0.0600 
    227 H227       -1.1511  -22.7586  -52.9744 H         1 UNK         0.0600 
    228 H228       -1.7746  -21.1264  -52.8620 H         1 UNK         0.0600 
    229 H229       -2.7602  -22.4723  -52.3031 H         1 UNK         0.0600 
    230 H230       -5.0310  -22.9146  -55.2560 H         1 UNK         0.3000 
    231 H231       -7.0901  -22.0963  -55.2231 H         1 UNK         0.0600 
    232 H232       -7.4789  -19.8994  -56.2826 H         1 UNK         0.0600 
    233 H233       -6.1930  -20.7414  -57.1312 H         1 UNK         0.0600 
    234 H234       -5.8051  -19.4284  -56.0201 H         1 UNK         0.0600 
    235 H235       -5.8216  -22.2338  -52.7332 H         1 UNK         0.3000 
    236 H236       -5.7284  -21.6340  -50.6269 H         1 UNK         0.0600 
    237 H237       -7.8000  -20.8199  -49.5555 H         1 UNK         0.0600 
    238 H238       -8.1980  -21.9937  -50.7980 H         1 UNK         0.0600 
    239 H239       -8.4307  -20.2725  -51.1037 H         1 UNK         0.0600 
    240 H240       -4.5905  -19.6840  -52.6312 H         1 UNK         0.3000 
    241 H241       -3.5986  -17.7639  -52.8090 H         1 UNK         0.0600 
    242 H242       -7.0128  -16.0658  -52.7571 H         1 UNK         0.3800 
    243 H243       -6.6417  -17.7686  -52.8859 H         1 UNK         0.3800 
    244 H244       -2.7299  -16.5257  -50.7688 H         1 UNK         0.0800 
    245 H245       -3.6379  -17.6164  -49.7606 H         1 UNK         0.0800 
    246 H246       -0.0611  -18.3833  -52.4477 H         1 UNK         0.0800 
    247 H247       -0.8467  -16.8751  -52.0633 H         1 UNK         0.0800 
@<TRIPOS>BOND
     1    1    2 1    
     2    1  127 1    
     3    1  128 1    
     4    1  129 1    
     5    2    3 2    
     6    2    4 am   BACKBONE|DICT|INTERRES
     7    4    5 1    
     8    4  130 1    
     9    5    6 1    
    10    5   65 1    
    11    5  131 1    
    12    6    7 1    
    13    6  132 1    
    14    6  133 1    
    15    7    8 1    
    16    8    9 1    
    17    8  134 1    
    18    8  135 1    
    19    9   10 ar   
    20    9   14 ar   
    21   10   11 ar   
    22   10  136 1    
    23   11   12 ar   
    24   11  126 1    
    25   12   13 ar   
    26   12  137 1    
    27   13   14 ar   
    28   13   15 1    
    29   14  138 1    
    30   15   16 1    
    31   15  139 1    
    32   15  140 1    
    33   16   17 1    
    34   17   18 1    
    35   17  141 1    
    36   17  142 1    
    37   18   19 1    
    38   18   67 1    
    39   18  143 1    
    40   19   20 am   BACKBONE|DICT|INTERRES
    41   19  144 1    
    42   20   21 2    
    43   20   22 1    
    44   22   23 1    
    45   22   24 1    
    46   22  145 1    
    47   23  146 1    
    48   23  147 1    
    49   23  148 1    
    50   24   25 am   BACKBONE|DICT|INTERRES
    51   24  149 1    
    52   25   26 2    
    53   25   27 1    
    54   27   28 1    
    55   27   29 1    
    56   27  150 1    
    57   28  151 1    
    58   28  152 1    
    59   28  153 1    
    60   29   30 am   BACKBONE|DICT|INTERRES
    61   29  154 1    
    62   30   31 2    
    63   30   32 1    
    64   32   33 1    
    65   32   34 1    
    66   32  155 1    
    67   33  156 1    
    68   33  157 1    
    69   33  158 1    
    70   34   35 am   BACKBONE|DICT|INTERRES
    71   34  159 1    
    72   35   36 2    
    73   35   37 1    
    74   37   38 1    
    75   37   39 1    
    76   37  160 1    
    77   38  161 1    
    78   38  162 1    
    79   38  163 1    
    80   39   40 am   BACKBONE|DICT|INTERRES
    81   39  164 1    
    82   40   41 2    
    83   40   42 1    
    84   42   43 1    
    85   42   44 1    
    86   42  165 1    
    87   43  166 1    
    88   43  167 1    
    89   43  168 1    
    90   44   45 am   BACKBONE|DICT|INTERRES
    91   44  169 1    
    92   45   46 2    
    93   45   47 1    
    94   47   48 1    
    95   47   49 1    
    96   47  170 1    
    97   48  171 1    
    98   48  172 1    
    99   48  173 1    
   100   49   50 am   BACKBONE|DICT|INTERRES
   101   49  174 1    
   102   50   51 2    
   103   50   52 1    
   104   52   53 1    
   105   52   54 1    
   106   52  175 1    
   107   53  176 1    
   108   53  177 1    
   109   53  178 1    
   110   54   55 am   BACKBONE|DICT|INTERRES
   111   54  179 1    
   112   55   56 2    
   113   55   57 1    
   114   57   58 1    
   115   57   59 1    
   116   57  180 1    
   117   58  181 1    
   118   58  182 1    
   119   58  183 1    
   120   59   60 am   BACKBONE|DICT|INTERRES
   121   59  184 1    
   122   60   61 2    
   123   60   62 1    
   124   62   63 1    
   125   62   64 1    
   126   62  185 1    
   127   63  186 1    
   128   63  187 1    
   129   63  188 1    
   130   64   65 am   BACKBONE|DICT|INTERRES
   131   64  189 1    
   132   65   66 2    
   133   67   68 2    
   134   67   69 am   BACKBONE|DICT|INTERRES
   135   69   70 1    
   136   69  190 1    
   137   70   71 1    
   138   70   72 1    
   139   70  191 1    
   140   71  192 1    
   141   71  193 1    
   142   71  194 1    
   143   72   73 2    
   144   72   74 am   BACKBONE|DICT|INTERRES
   145   74   75 1    
   146   74  195 1    
   147   75   76 1    
   148   75   77 1    
   149   75  196 1    
   150   76  197 1    
   151   76  198 1    
   152   76  199 1    
   153   77   78 2    
   154   77   79 am   BACKBONE|DICT|INTERRES
   155   79   80 1    
   156   79  200 1    
   157   80   81 1    
   158   80   82 1    
   159   80  201 1    
   160   81  202 1    
   161   81  203 1    
   162   81  204 1    
   163   82   83 2    
   164   82   84 am   BACKBONE|DICT|INTERRES
   165   84   85 1    
   166   84  205 1    
   167   85   86 1    
   168   85   87 1    
   169   85  206 1    
   170   86  207 1    
   171   86  208 1    
   172   86  209 1    
   173   87   88 2    
   174   87   89 am   BACKBONE|DICT|INTERRES
   175   89   90 1    
   176   89  210 1    
   177   90   91 1    
   178   90   92 1    
   179   90  211 1    
   180   91  212 1    
   181   91  213 1    
   182   91  214 1    
   183   92   93 2    
   184   92   94 am   BACKBONE|DICT|INTERRES
   185   94   95 1    
   186   94  215 1    
   187   95   96 1    
   188   95   97 1    
   189   95  216 1    
   190   96  217 1    
   191   96  218 1    
   192   96  219 1    
   193   97   98 2    
   194   97   99 am   BACKBONE|DICT|INTERRES
   195   99  100 1    
   196   99  220 1    
   197  100  101 1    
   198  100  102 1    
   199  100  221 1    
   200  101  222 1    
   201  101  223 1    
   202  101  224 1    
   203  102  103 2    
   204  102  104 am   BACKBONE|DICT|INTERRES
   205  104  105 1    
   206  104  225 1    
   207  105  106 1    
   208  105  107 1    
   209  105  226 1    
   210  106  227 1    
   211  106  228 1    
   212  106  229 1    
   213  107  108 2    
   214  107  109 am   BACKBONE|DICT|INTERRES
   215  109  110 1    
   216  109  230 1    
   217  110  111 1    
   218  110  112 1    
   219  110  231 1    
   220  111  232 1    
   221  111  233 1    
   222  111  234 1    
   223  112  113 2    
   224  112  114 am   BACKBONE|DICT|INTERRES
   225  114  115 1    
   226  114  235 1    
   227  115  116 1    
   228  115  117 1    
   229  115  236 1    
   230  116  237 1    
   231  116  238 1    
   232  116  239 1    
   233  117  118 2    
   234  117  119 am   BACKBONE|DICT|INTERRES
   235  119  120 1    
   236  119  240 1    
   237  120  121 1    
   238  120  124 1    
   239  120  241 1    
   240  121  122 am   BACKBONE|DICT|INTERRES
   241  121  123 2    
   242  122  242 1    
   243  122  243 1    
   244  124  125 1    
   245  124  244 1    
   246  124  245 1    
   247  125  126 1    
   248  126  246 1    
   249  126  247 1    
@<TRIPOS>SUBSTRUCTURE
     1 UNK         1 GROUP             0       ****    0 ROOT    
