@<TRIPOS>MOLECULE
3R540
247   249    1
SMALL
USER_CHARGES


@<TRIPOS>ATOM
      1 CA         -4.2495  -13.8249  -43.7587 C.3       0 UNK        -0.1800 
      2 C          -3.3055  -12.6334  -43.8440 C.2       0 UNK         0.5000 
      3 O          -3.5364  -11.6193  -43.1854 O.2       0 UNK        -0.5000 
      4 N          -2.2554  -12.7505  -44.6652 N.am      1 UNK        -0.5000 
      5 CA         -1.2213  -11.7362  -44.8875 C.3       1 UNK         0.1400 
      6 C6         -0.2644  -12.1146  -46.0486 C.3       23 UNK        -0.0398 
      7 S7         -1.1354  -12.5487  -47.5913 S.3       23 UNK        -0.2404 
      8 C8         -0.6024  -14.2752  -47.8140 C.3       23 UNK        -0.0205 
      9 C9         -1.4999  -14.9975  -48.8039 C.ar      23 UNK        -0.0193 
     10 C10        -1.2778  -14.8736  -50.1786 C.ar      23 UNK        -0.1150 
     11 C11        -2.1270  -15.5015  -51.0957 C.ar      23 UNK        -0.0193 
     12 C12        -3.2001  -16.2629  -50.6216 C.ar      23 UNK        -0.1150 
     13 C13        -3.4083  -16.4271  -49.2500 C.ar      23 UNK        -0.0193 
     14 C14        -2.5618  -15.7822  -48.3452 C.ar      23 UNK        -0.1150 
     15 C15        -4.5511  -17.2995  -48.7521 C.3       23 UNK        -0.0205 
     16 S16        -4.2258  -19.0688  -49.0386 S.3       23 UNK        -0.2404 
     17 C17        -2.8294  -19.3701  -47.9025 C.3       23 UNK        -0.0398 
     18 CA         -2.5739  -20.8705  -47.6078 C.3       11 UNK         0.1400 
     19 N          -1.2736  -21.0746  -46.9628 N.am      11 UNK        -0.5000 
     20 C          -0.7212  -22.2632  -46.6792 C.2       10 UNK         0.5000 
     21 O          -1.2371  -23.3452  -46.9557 O.2       10 UNK        -0.5000 
     22 CA          0.6092  -22.2421  -45.9050 C.3       10 UNK         0.1400 
     23 CB          1.7855  -21.9426  -46.8456 C.3       10 UNK        -0.1800 
     24 N           0.6032  -21.2897  -44.7922 N.am      10 UNK        -0.5000 
     25 C          -0.2256  -21.3654  -43.7401 C.2       9 UNK         0.5000 
     26 O          -1.0511  -22.2630  -43.5849 O.2       9 UNK        -0.5000 
     27 CA         -0.1665  -20.2228  -42.7135 C.3       9 UNK         0.1400 
     28 CB          1.0425  -20.3842  -41.7804 C.3       9 UNK        -0.1800 
     29 N          -0.1362  -18.9054  -43.3452 N.am      9 UNK        -0.5000 
     30 C          -1.1072  -18.4094  -44.1256 C.2       8 UNK         0.5000 
     31 O          -2.1647  -18.9934  -44.3658 O.2       8 UNK        -0.5000 
     32 CA         -0.8179  -17.0558  -44.7982 C.3       8 UNK         0.1400 
     33 CB         -0.9735  -15.8999  -43.8002 C.3       8 UNK        -0.1800 
     34 N           0.5154  -17.0082  -45.3990 N.am      8 UNK        -0.5000 
     35 C           0.9358  -17.8161  -46.3833 C.2       7 UNK         0.5000 
     36 O           0.2225  -18.6510  -46.9360 O.2       7 UNK        -0.5000 
     37 CA          2.4173  -17.7146  -46.7764 C.3       7 UNK         0.1400 
     38 CB          2.6409  -16.5788  -47.7857 C.3       7 UNK        -0.1800 
     39 N           3.2716  -17.5238  -45.6041 N.am      7 UNK        -0.5000 
     40 C           3.5143  -18.4748  -44.6899 C.2       6 UNK         0.5000 
     41 O           3.0805  -19.6241  -44.7694 O.2       6 UNK        -0.5000 
     42 CA          4.3447  -18.0600  -43.4607 C.3       6 UNK         0.1400 
     43 CB          5.8466  -18.1153  -43.7768 C.3       6 UNK        -0.1800 
     44 N           3.9988  -16.7234  -42.9739 N.am      6 UNK        -0.5000 
     45 C           2.8180  -16.4013  -42.4268 C.2       5 UNK         0.5000 
     46 O           1.9196  -17.2162  -42.2228 O.2       5 UNK        -0.5000 
     47 CA          2.5805  -14.9149  -42.0962 C.3       5 UNK         0.1400 
     48 CB          3.0082  -14.6051  -40.6546 C.3       5 UNK        -0.1800 
     49 N           3.2528  -13.9862  -43.0094 N.am      5 UNK        -0.5000 
     50 C           3.0469  -13.9266  -44.3316 C.2       4 UNK         0.5000 
     51 O           2.2907  -14.6853  -44.9409 O.2       4 UNK        -0.5000 
     52 CA          3.8016  -12.8163  -45.0728 C.3       4 UNK         0.1400 
     53 CB          3.5953  -12.8469  -46.5995 C.3       4 UNK        -0.1800 
     54 N           3.3802  -11.5252  -44.5376 N.am      4 UNK        -0.5000 
     55 C           4.1654  -10.4476  -44.4175 C.2       3 UNK         0.5000 
     56 O           5.3595  -10.4428  -44.7196 O.2       3 UNK        -0.5000 
     57 CA          3.5204   -9.1474  -43.8947 C.3       3 UNK         0.1400 
     58 CB          3.4963   -8.0798  -45.0010 C.3       3 UNK        -0.1800 
     59 N           2.1534   -9.3309  -43.4028 N.am      3 UNK        -0.5000 
     60 C           1.8246   -9.7443  -42.1714 C.2       2 UNK         0.5000 
     61 O           2.6473  -10.0299  -41.3013 O.2       2 UNK        -0.5000 
     62 CA          0.3174   -9.8763  -41.8761 C.3       2 UNK         0.1400 
     63 CB         -0.2420   -8.5565  -41.3236 C.3       2 UNK        -0.1800 
     64 N          -0.4568  -10.2728  -43.0573 N.am      2 UNK        -0.5000 
     65 C          -0.4051  -11.4951  -43.6017 C.2       1 UNK         0.5000 
     66 O           0.2801  -12.4105  -43.1449 O.2       1 UNK        -0.5000 
     67 C          -3.7284  -21.5107  -46.8058 C.2       11 UNK         0.5000 
     68 O          -4.5977  -22.1515  -47.3975 O.2       11 UNK        -0.5000 
     69 N          -3.6995  -21.3484  -45.4761 N.am      12 UNK        -0.5000 
     70 CA         -4.6708  -21.9369  -44.5581 C.3       12 UNK         0.1400 
     71 CB         -4.5607  -21.2402  -43.1928 C.3       12 UNK        -0.1800 
     72 C          -4.5126  -23.4624  -44.4074 C.2       12 UNK         0.5000 
     73 O          -5.5172  -24.1752  -44.3993 O.2       12 UNK        -0.5000 
     74 N          -3.2672  -23.9309  -44.2532 N.am      13 UNK        -0.5000 
     75 CA         -2.9456  -25.3223  -43.9408 C.3       13 UNK         0.1400 
     76 CB         -1.5314  -25.4004  -43.3441 C.3       13 UNK        -0.1800 
     77 C          -3.0703  -26.2780  -45.1383 C.2       13 UNK         0.5000 
     78 O          -3.6090  -27.3745  -44.9753 O.2       13 UNK        -0.5000 
     79 N          -2.5355  -25.8825  -46.3005 N.am      14 UNK        -0.5000 
     80 CA         -2.4611  -26.7396  -47.4824 C.3       14 UNK         0.1400 
     81 CB         -1.3486  -26.2364  -48.4112 C.3       14 UNK        -0.1800 
     82 C          -3.7973  -26.8035  -48.2375 C.2       14 UNK         0.5000 
     83 O          -4.4989  -25.7941  -48.3437 O.2       14 UNK        -0.5000 
     84 N          -4.0941  -27.9829  -48.7995 N.am      15 UNK        -0.5000 
     85 CA         -5.2327  -28.2245  -49.6849 C.3       15 UNK         0.1400 
     86 CB         -5.3167  -29.7235  -50.0105 C.3       15 UNK        -0.1800 
     87 C          -5.1019  -27.3885  -50.9693 C.2       15 UNK         0.5000 
     88 O          -4.0682  -27.4641  -51.6390 O.2       15 UNK        -0.5000 
     89 N          -6.1218  -26.5632  -51.2448 N.am      16 UNK        -0.5000 
     90 CA         -6.1810  -25.5751  -52.3303 C.3       16 UNK         0.1400 
     91 CB         -6.3312  -26.2802  -53.6945 C.3       16 UNK        -0.1800 
     92 C          -5.0005  -24.5783  -52.3067 C.2       16 UNK         0.5000 
     93 O          -4.5245  -24.1685  -53.3656 O.2       16 UNK        -0.5000 
     94 N          -4.5121  -24.2496  -51.0989 N.am      17 UNK        -0.5000 
     95 CA         -3.3542  -23.3934  -50.8072 C.3       17 UNK         0.1400 
     96 CB         -3.6378  -21.9428  -51.2526 C.3       17 UNK        -0.1800 
     97 C          -2.0184  -23.9081  -51.3911 C.2       17 UNK         0.5000 
     98 O          -1.0620  -23.1353  -51.4702 O.2       17 UNK        -0.5000 
     99 N          -1.9792  -25.1801  -51.8214 N.am      18 UNK        -0.5000 
    100 CA        -0.9482  -25.8524  -52.6206 C.3       18 UNK         0.1400 
    101 CB         0.4056  -25.9219  -51.8859 C.3       18 UNK        -0.1800 
    102 C         -0.7906  -25.2544  -54.0334 C.2       18 UNK         0.5000 
    103 O         -0.9599  -25.9656  -55.0243 O.2       18 UNK        -0.5000 
    104 N         -0.4838  -23.9555  -54.1046 N.am      19 UNK        -0.5000 
    105 CA        -0.2142  -23.1828  -55.3145 C.3       19 UNK         0.1400 
    106 CB         0.7177  -22.0152  -54.9404 C.3       19 UNK        -0.1800 
    107 C         -1.5012  -22.7081  -56.0224 C.2       19 UNK         0.5000 
    108 O         -1.6273  -21.5200  -56.3211 O.2       19 UNK        -0.5000 
    109 N         -2.4304  -23.6411  -56.2793 N.am      20 UNK        -0.5000 
    110 CA        -3.6657  -23.4843  -57.0620 C.3       20 UNK         0.1400 
    111 CB        -3.3236  -23.4426  -58.5651 C.3       20 UNK        -0.1800 
    112 C         -4.5301  -22.2836  -56.6192 C.2       20 UNK         0.5000 
    113 O         -4.7901  -21.3708  -57.4074 O.2       20 UNK        -0.5000 
    114 N         -4.9019  -22.2820  -55.3324 N.am      21 UNK        -0.5000 
    115 CA        -5.6704  -21.2536  -54.6208 C.3       21 UNK         0.1400 
    116 CB        -7.1051  -21.1608  -55.1802 C.3       21 UNK        -0.1800 
    117 C         -4.9680  -19.8797  -54.5553 C.2       21 UNK         0.5000 
    118 O         -5.6301  -18.8722  -54.3023 O.2       21 UNK        -0.5000 
    119 N         -3.6463  -19.8606  -54.7835 N.am      22 UNK        -0.5000 
    120 CA        -2.8109  -18.6591  -54.9268 C.3       22 UNK         0.1400 
    121 C         -3.0889  -17.8615  -56.2420 C.2       22 UNK         0.5000 
    122 N         -3.6971  -18.4612  -57.2610 N.am      22 UNK        -0.7600 
    123 O         -2.7382  -16.6908  -56.3596 O.2       22 UNK        -0.5000 
    124 C124       -2.8127  -17.7921  -53.6360 C.3       23 UNK        -0.0398 
    125 S125       -1.2624  -16.8656  -53.3635 S.3       23 UNK        -0.2404 
    126 C126       -1.8937  -15.3385  -52.5928 C.3       23 UNK        -0.0205 
    127 H127       -4.1948  -14.2761  -42.7681 H         1 UNK         0.0600 
    128 H128       -5.2765  -13.5037  -43.9322 H         1 UNK         0.0600 
    129 H129       -4.0062  -14.5893  -44.4973 H         1 UNK         0.0600 
    130 H130       -2.1364  -13.6020  -45.1912 H         1 UNK         0.3000 
    131 H131       -1.7291  -10.8087  -45.1606 H         1 UNK         0.0600 
    132 H132        0.4068  -11.2829  -46.2694 H         1 UNK         0.0800 
    133 H133        0.3770  -12.9486  -45.7602 H         1 UNK         0.0800 
    134 H134       -0.6143  -14.7953  -46.8560 H         1 UNK         0.0800 
    135 H135        0.4313  -14.2918  -48.1618 H         1 UNK         0.0800 
    136 H136       -0.4530  -14.2708  -50.5323 H         1 UNK         0.1150 
    137 H137       -3.8712  -16.7458  -51.3158 H         1 UNK         0.1150 
    138 H138       -2.7358  -15.8846  -47.2844 H         1 UNK         0.1150 
    139 H139       -4.7402  -17.1307  -47.6908 H         1 UNK         0.0800 
    140 H140       -5.4676  -17.0207  -49.2738 H         1 UNK         0.0800 
    141 H141       -2.9856  -18.8158  -46.9758 H         1 UNK         0.0800 
    142 H142       -1.9475  -18.9327  -48.3719 H         1 UNK         0.0800 
    143 H143       -2.5174  -21.3931  -48.5628 H         1 UNK         0.0600 
    144 H144       -0.7514  -20.2312  -46.7362 H         1 UNK         0.3000 
    145 H145        0.7605  -23.2383  -45.4840 H         1 UNK         0.0600 
    146 H146        2.7374  -22.0041  -46.3179 H         1 UNK         0.0600 
    147 H147        1.8209  -22.6602  -47.6662 H         1 UNK         0.0600 
    148 H148        1.7093  -20.9474  -47.2831 H         1 UNK         0.0600 
    149 H149        1.2852  -20.5389  -44.8300 H         1 UNK         0.3000 
    150 H150       -1.0723  -20.2767  -42.1061 H         1 UNK         0.0600 
    151 H151        1.0319  -21.3595  -41.2922 H         1 UNK         0.0600 
    152 H152        1.0371  -19.6276  -40.9956 H         1 UNK         0.0600 
    153 H153        1.9851  -20.2969  -42.3212 H         1 UNK         0.0600 
    154 H154        0.6817  -18.3323  -43.1562 H         1 UNK         0.3000 
    155 H155       -1.5447  -16.9193  -45.5995 H         1 UNK         0.0600 
    156 H156       -0.3732  -16.0526  -42.9044 H         1 UNK         0.0600 
    157 H157       -2.0103  -15.8021  -43.4787 H         1 UNK         0.0600 
    158 H158       -0.6670  -14.9518  -44.2395 H         1 UNK         0.0600 
    159 H159        1.1647  -16.3188  -45.0327 H         1 UNK         0.3000 
    160 H160        2.7022  -18.6523  -47.2579 H         1 UNK         0.0600 
    161 H161        3.6868  -16.5163  -48.0860 H         1 UNK         0.0600 
    162 H162        2.3493  -15.6114  -47.3795 H         1 UNK         0.0600 
    163 H163        2.0512  -16.7418  -48.6888 H         1 UNK         0.0600 
    164 H164        3.5967  -16.5838  -45.4302 H         1 UNK         0.3000 
    165 H165        4.1378  -18.7764  -42.6627 H         1 UNK         0.0600 
    166 H166        6.4439  -17.8980  -42.8911 H         1 UNK         0.0600 
    167 H167        6.1348  -19.1076  -44.1263 H         1 UNK         0.0600 
    168 H168        6.1234  -17.4006  -44.5528 H         1 UNK         0.0600 
    169 H169        4.6850  -15.9948  -43.1020 H         1 UNK         0.3000 
    170 H170        1.5078  -14.7303  -42.1775 H         1 UNK         0.0600 
    171 H171        2.5033  -15.2645  -39.9473 H         1 UNK         0.0600 
    172 H172        4.0823  -14.7342  -40.5162 H         1 UNK         0.0600 
    173 H173        2.7535  -13.5809  -40.3805 H         1 UNK         0.0600 
    174 H174        3.8714  -13.3093  -42.5866 H         1 UNK         0.3000 
    175 H175        4.8631  -12.9734  -44.8697 H         1 UNK         0.0600 
    176 H176        2.5472  -12.7255  -46.8722 H         1 UNK         0.0600 
    177 H177        4.1607  -12.0542  -47.0894 H         1 UNK         0.0600 
    178 H178        3.9388  -13.7927  -47.0190 H         1 UNK         0.0600 
    179 H179        2.4290  -11.4755  -44.1997 H         1 UNK         0.3000 
    180 H180        4.1467   -8.7778  -43.0800 H         1 UNK         0.0600 
    181 H181        2.8928   -8.3960  -45.8528 H         1 UNK         0.0600 
    182 H182        4.5018   -7.8736  -45.3701 H         1 UNK         0.0600 
    183 H183        3.0898   -7.1381  -44.6316 H         1 UNK         0.0600 
    184 H184        1.4094   -9.1113  -44.0484 H         1 UNK         0.3000 
    185 H185        0.1954  -10.6447  -41.1093 H         1 UNK         0.0600 
    186 H186        0.3004   -8.2470  -40.4292 H         1 UNK         0.0600 
    187 H187       -0.1635   -7.7480  -42.0514 H         1 UNK         0.0600 
    188 H188       -1.2914   -8.6589  -41.0464 H         1 UNK         0.0600 
    189 H189       -1.0658   -9.5739  -43.4587 H         1 UNK         0.3000 
    190 H190       -2.9684  -20.7771  -45.0653 H         1 UNK         0.3000 
    191 H191       -5.6709  -21.7441  -44.9522 H         1 UNK         0.0600 
    192 H192       -3.5703  -21.3660  -42.7539 H         1 UNK         0.0600 
    193 H193       -5.2876  -21.6445  -42.4873 H         1 UNK         0.0600 
    194 H194       -4.7516  -20.1704  -43.2807 H         1 UNK         0.0600 
    195 H195       -2.4927  -23.2719  -44.2251 H         1 UNK         0.3000 
    196 H196       -3.6434  -25.6659  -43.1740 H         1 UNK         0.0600 
    197 H197       -0.7790  -25.0337  -44.0437 H         1 UNK         0.0600 
    198 H198       -1.2697  -26.4276  -43.0875 H         1 UNK         0.0600 
    199 H199       -1.4560  -24.8088  -42.4316 H         1 UNK         0.0600 
    200 H200       -2.1500  -24.9460  -46.3915 H         1 UNK         0.3000 
    201 H201       -2.1924  -27.7483  -47.1604 H         1 UNK         0.0600 
    202 H202       -1.2475  -26.8908  -49.2770 H         1 UNK         0.0600 
    203 H203       -0.3850  -26.2134  -47.9023 H         1 UNK         0.0600 
    204 H204       -1.5564  -25.2328  -48.7804 H         1 UNK         0.0600 
    205 H205       -3.4463  -28.7498  -48.6938 H         1 UNK         0.3000 
    206 H206       -6.1423  -27.9354  -49.1543 H         1 UNK         0.0600 
    207 H207       -5.4440  -30.3178  -49.1055 H         1 UNK         0.0600 
    208 H208       -6.1680  -29.9336  -50.6594 H         1 UNK         0.0600 
    209 H209       -4.4199  -30.0766  -50.5215 H         1 UNK         0.0600 
    210 H210       -6.9129  -26.5583  -50.6155 H         1 UNK         0.3000 
    211 H211       -7.0808  -24.9819  -52.1626 H         1 UNK         0.0600 
    212 H212       -5.4370  -26.8464  -53.9576 H         1 UNK         0.0600 
    213 H213       -6.5070  -25.5575  -54.4924 H         1 UNK         0.0600 
    214 H214       -7.1756  -26.9692  -53.6915 H         1 UNK         0.0600 
    215 H215       -4.9317  -24.6819  -50.2837 H         1 UNK         0.3000 
    216 H216       -3.2384  -23.4011  -49.7226 H         1 UNK         0.0600 
    217 H217       -3.6656  -21.8520  -52.3379 H         1 UNK         0.0600 
    218 H218       -2.8640  -21.2611  -50.8991 H         1 UNK         0.0600 
    219 H219       -4.5889  -21.5862  -50.8577 H         1 UNK         0.0600 
    220 H220       -2.8294  -25.7234  -51.7183 H         1 UNK         0.3000 
    221 H221       -1.3007  -26.8768  -52.7509 H         1 UNK         0.0600 
    222 H222        0.8261  -24.9350  -51.6936 H         1 UNK         0.0600 
    223 H223        0.3138  -26.4366  -50.9312 H         1 UNK         0.0600 
    224 H224        1.1370  -26.4734  -52.4777 H         1 UNK         0.0600 
    225 H225       -0.4522  -23.4469  -53.2246 H         1 UNK         0.3000 
    226 H226        0.3205  -23.8183  -56.0232 H         1 UNK         0.0600 
    227 H227        1.6391  -22.3771  -54.4839 H         1 UNK         0.0600 
    228 H228        1.0003  -21.4381  -55.8218 H         1 UNK         0.0600 
    229 H229        0.2413  -21.3314  -54.2363 H         1 UNK         0.0600 
    230 H230       -2.2314  -24.5808  -55.9542 H         1 UNK         0.3000 
    231 H231       -4.2647  -24.3784  -56.8826 H         1 UNK         0.0600 
    232 H232       -2.7741  -24.3336  -58.8688 H         1 UNK         0.0600 
    233 H233       -2.7158  -22.5726  -58.8166 H         1 UNK         0.0600 
    234 H234       -4.2288  -23.3976  -59.1718 H         1 UNK         0.0600 
    235 H235       -4.6152  -23.0658  -54.7450 H         1 UNK         0.3000 
    236 H236       -5.7484  -21.5972  -53.5889 H         1 UNK         0.0600 
    237 H237       -7.7283  -20.5184  -54.5572 H         1 UNK         0.0600 
    238 H238       -7.1210  -20.7496  -56.1899 H         1 UNK         0.0600 
    239 H239       -7.5808  -22.1412  -55.2087 H         1 UNK         0.0600 
    240 H240       -3.1921  -20.7253  -55.0501 H         1 UNK         0.3000 
    241 H241       -1.8008  -19.0500  -55.0524 H         1 UNK         0.0600 
    242 H242       -3.9870  -19.4310  -57.2005 H         1 UNK         0.3800 
    243 H243       -3.8667  -17.9435  -58.1085 H         1 UNK         0.3800 
    244 H244       -3.6664  -17.1133  -53.6431 H         1 UNK         0.0800 
    245 H245       -2.9439  -18.4313  -52.7614 H         1 UNK         0.0800 
    246 H246       -1.1696  -14.5428  -52.7739 H         1 UNK         0.0800 
    247 H247       -2.8148  -15.0182  -53.0814 H         1 UNK         0.0800 
@<TRIPOS>BOND
     1    1    2 1    
     2    1  127 1    
     3    1  128 1    
     4    1  129 1    
     5    2    3 2    
     6    2    4 am   BACKBONE|DICT|INTERRES
     7    4    5 1    
     8    4  130 1    
     9    5    6 1    
    10    5   65 1    
    11    5  131 1    
    12    6    7 1    
    13    6  132 1    
    14    6  133 1    
    15    7    8 1    
    16    8    9 1    
    17    8  134 1    
    18    8  135 1    
    19    9   10 ar   
    20    9   14 ar   
    21   10   11 ar   
    22   10  136 1    
    23   11   12 ar   
    24   11  126 1    
    25   12   13 ar   
    26   12  137 1    
    27   13   14 ar   
    28   13   15 1    
    29   14  138 1    
    30   15   16 1    
    31   15  139 1    
    32   15  140 1    
    33   16   17 1    
    34   17   18 1    
    35   17  141 1    
    36   17  142 1    
    37   18   19 1    
    38   18   67 1    
    39   18  143 1    
    40   19   20 am   BACKBONE|DICT|INTERRES
    41   19  144 1    
    42   20   21 2    
    43   20   22 1    
    44   22   23 1    
    45   22   24 1    
    46   22  145 1    
    47   23  146 1    
    48   23  147 1    
    49   23  148 1    
    50   24   25 am   BACKBONE|DICT|INTERRES
    51   24  149 1    
    52   25   26 2    
    53   25   27 1    
    54   27   28 1    
    55   27   29 1    
    56   27  150 1    
    57   28  151 1    
    58   28  152 1    
    59   28  153 1    
    60   29   30 am   BACKBONE|DICT|INTERRES
    61   29  154 1    
    62   30   31 2    
    63   30   32 1    
    64   32   33 1    
    65   32   34 1    
    66   32  155 1    
    67   33  156 1    
    68   33  157 1    
    69   33  158 1    
    70   34   35 am   BACKBONE|DICT|INTERRES
    71   34  159 1    
    72   35   36 2    
    73   35   37 1    
    74   37   38 1    
    75   37   39 1    
    76   37  160 1    
    77   38  161 1    
    78   38  162 1    
    79   38  163 1    
    80   39   40 am   BACKBONE|DICT|INTERRES
    81   39  164 1    
    82   40   41 2    
    83   40   42 1    
    84   42   43 1    
    85   42   44 1    
    86   42  165 1    
    87   43  166 1    
    88   43  167 1    
    89   43  168 1    
    90   44   45 am   BACKBONE|DICT|INTERRES
    91   44  169 1    
    92   45   46 2    
    93   45   47 1    
    94   47   48 1    
    95   47   49 1    
    96   47  170 1    
    97   48  171 1    
    98   48  172 1    
    99   48  173 1    
   100   49   50 am   BACKBONE|DICT|INTERRES
   101   49  174 1    
   102   50   51 2    
   103   50   52 1    
   104   52   53 1    
   105   52   54 1    
   106   52  175 1    
   107   53  176 1    
   108   53  177 1    
   109   53  178 1    
   110   54   55 am   BACKBONE|DICT|INTERRES
   111   54  179 1    
   112   55   56 2    
   113   55   57 1    
   114   57   58 1    
   115   57   59 1    
   116   57  180 1    
   117   58  181 1    
   118   58  182 1    
   119   58  183 1    
   120   59   60 am   BACKBONE|DICT|INTERRES
   121   59  184 1    
   122   60   61 2    
   123   60   62 1    
   124   62   63 1    
   125   62   64 1    
   126   62  185 1    
   127   63  186 1    
   128   63  187 1    
   129   63  188 1    
   130   64   65 am   BACKBONE|DICT|INTERRES
   131   64  189 1    
   132   65   66 2    
   133   67   68 2    
   134   67   69 am   BACKBONE|DICT|INTERRES
   135   69   70 1    
   136   69  190 1    
   137   70   71 1    
   138   70   72 1    
   139   70  191 1    
   140   71  192 1    
   141   71  193 1    
   142   71  194 1    
   143   72   73 2    
   144   72   74 am   BACKBONE|DICT|INTERRES
   145   74   75 1    
   146   74  195 1    
   147   75   76 1    
   148   75   77 1    
   149   75  196 1    
   150   76  197 1    
   151   76  198 1    
   152   76  199 1    
   153   77   78 2    
   154   77   79 am   BACKBONE|DICT|INTERRES
   155   79   80 1    
   156   79  200 1    
   157   80   81 1    
   158   80   82 1    
   159   80  201 1    
   160   81  202 1    
   161   81  203 1    
   162   81  204 1    
   163   82   83 2    
   164   82   84 am   BACKBONE|DICT|INTERRES
   165   84   85 1    
   166   84  205 1    
   167   85   86 1    
   168   85   87 1    
   169   85  206 1    
   170   86  207 1    
   171   86  208 1    
   172   86  209 1    
   173   87   88 2    
   174   87   89 am   BACKBONE|DICT|INTERRES
   175   89   90 1    
   176   89  210 1    
   177   90   91 1    
   178   90   92 1    
   179   90  211 1    
   180   91  212 1    
   181   91  213 1    
   182   91  214 1    
   183   92   93 2    
   184   92   94 am   BACKBONE|DICT|INTERRES
   185   94   95 1    
   186   94  215 1    
   187   95   96 1    
   188   95   97 1    
   189   95  216 1    
   190   96  217 1    
   191   96  218 1    
   192   96  219 1    
   193   97   98 2    
   194   97   99 am   BACKBONE|DICT|INTERRES
   195   99  100 1    
   196   99  220 1    
   197  100  101 1    
   198  100  102 1    
   199  100  221 1    
   200  101  222 1    
   201  101  223 1    
   202  101  224 1    
   203  102  103 2    
   204  102  104 am   BACKBONE|DICT|INTERRES
   205  104  105 1    
   206  104  225 1    
   207  105  106 1    
   208  105  107 1    
   209  105  226 1    
   210  106  227 1    
   211  106  228 1    
   212  106  229 1    
   213  107  108 2    
   214  107  109 am   BACKBONE|DICT|INTERRES
   215  109  110 1    
   216  109  230 1    
   217  110  111 1    
   218  110  112 1    
   219  110  231 1    
   220  111  232 1    
   221  111  233 1    
   222  111  234 1    
   223  112  113 2    
   224  112  114 am   BACKBONE|DICT|INTERRES
   225  114  115 1    
   226  114  235 1    
   227  115  116 1    
   228  115  117 1    
   229  115  236 1    
   230  116  237 1    
   231  116  238 1    
   232  116  239 1    
   233  117  118 2    
   234  117  119 am   BACKBONE|DICT|INTERRES
   235  119  120 1    
   236  119  240 1    
   237  120  121 1    
   238  120  124 1    
   239  120  241 1    
   240  121  122 am   BACKBONE|DICT|INTERRES
   241  121  123 2    
   242  122  242 1    
   243  122  243 1    
   244  124  125 1    
   245  124  244 1    
   246  124  245 1    
   247  125  126 1    
   248  126  246 1    
   249  126  247 1    
@<TRIPOS>SUBSTRUCTURE
     1 UNK         1 GROUP             0       ****    0 ROOT    
