@<TRIPOS>MOLECULE
3R540
247   249    1
SMALL
USER_CHARGES


@<TRIPOS>ATOM
      1 CA         -4.1352  -11.5196  -48.9773 C.3       0 UNK        -0.1800 
      2 C          -2.9315  -11.9419  -48.1485 C.2       0 UNK         0.5000 
      3 O          -1.8434  -12.1199  -48.6914 O.2       0 UNK        -0.5000 
      4 N          -3.1090  -12.0760  -46.8282 N.am      1 UNK        -0.5000 
      5 CA         -2.0988  -12.5577  -45.8715 C.3       1 UNK         0.1400 
      6 C6         -2.7290  -12.9837  -44.5240 C.3       23 UNK        -0.0398 
      7 S7         -4.0256  -14.2552  -44.7355 S.3       23 UNK        -0.2404 
      8 C8         -3.0130  -15.7459  -44.9906 C.3       23 UNK        -0.0205 
      9 C9         -3.3558  -16.4543  -46.2912 C.ar      23 UNK        -0.0193 
     10 C10        -2.8673  -15.9649  -47.5058 C.ar      23 UNK        -0.1150 
     11 C11        -3.1537  -16.6156  -48.7063 C.ar      23 UNK        -0.0193 
     12 C12        -3.9333  -17.7738  -48.6867 C.ar      23 UNK        -0.1150 
     13 C13        -4.4251  -18.2791  -47.4789 C.ar      23 UNK        -0.0193 
     14 C14        -4.1352  -17.6149  -46.2833 C.ar      23 UNK        -0.1150 
     15 C15        -5.2758  -19.5378  -47.4783 C.3       23 UNK        -0.0205 
     16 S16        -4.2482  -21.0310  -47.6008 S.3       23 UNK        -0.2404 
     17 C17        -3.9736  -21.4640  -45.8518 C.3       23 UNK        -0.0398 
     18 CA         -3.2086  -22.8051  -45.7475 C.3       11 UNK         0.1400 
     19 N          -1.7796  -22.6628  -46.0383 N.am      11 UNK        -0.5000 
     20 C          -0.9555  -23.6916  -46.2726 C.2       10 UNK         0.5000 
     21 O          -1.3349  -24.8612  -46.3335 O.2       10 UNK        -0.5000 
     22 CA          0.5423  -23.3732  -46.4284 C.3       10 UNK         0.1400 
     23 CB          0.8505  -22.8674  -47.8447 C.3       10 UNK        -0.1800 
     24 N           1.0229  -22.4097  -45.4355 N.am      10 UNK        -0.5000 
     25 C           1.0454  -22.6397  -44.1144 C.2       9 UNK         0.5000 
     26 O           0.6975  -23.7028  -43.6047 O.2       9 UNK        -0.5000 
     27 CA          1.4848  -21.4828  -43.1997 C.3       9 UNK         0.1400 
     28 CB          3.0158  -21.3816  -43.1375 C.3       9 UNK        -0.1800 
     29 N           0.9219  -20.1959  -43.6019 N.am      9 UNK        -0.5000 
     30 C          -0.3865  -19.9045  -43.6335 C.2       8 UNK         0.5000 
     31 O          -1.2758  -20.6818  -43.2878 O.2       8 UNK        -0.5000 
     32 CA         -0.7615  -18.5284  -44.2119 C.3       8 UNK         0.1400 
     33 CB         -0.4814  -17.4172  -43.1840 C.3       8 UNK        -0.1800 
     34 N          -0.0538  -18.2557  -45.4666 N.am      8 UNK        -0.5000 
     35 C          -0.1531  -19.0193  -46.5670 C.2       7 UNK         0.5000 
     36 O          -0.9093  -19.9845  -46.6611 O.2       7 UNK        -0.5000 
     37 CA          0.8132  -18.7088  -47.7225 C.3       7 UNK         0.1400 
     38 CB          0.2400  -17.6395  -48.6604 C.3       7 UNK        -0.1800 
     39 N           2.1228  -18.2900  -47.2256 N.am      7 UNK        -0.5000 
     40 C           3.0247  -19.1304  -46.6976 C.2       6 UNK         0.5000 
     41 O           2.8621  -20.3486  -46.6338 O.2       6 UNK        -0.5000 
     42 CA          4.3004  -18.5016  -46.1026 C.3       6 UNK         0.1400 
     43 CB          5.3680  -18.3154  -47.1907 C.3       6 UNK        -0.1800 
     44 N           4.0456  -17.2152  -45.4515 N.am      6 UNK        -0.5000 
     45 C           3.2877  -17.0564  -44.3570 C.2       5 UNK         0.5000 
     46 O           2.8059  -17.9976  -43.7287 O.2       5 UNK        -0.5000 
     47 CA          2.9676  -15.6101  -43.9221 C.3       5 UNK         0.1400 
     48 CB          3.9322  -15.1569  -42.8169 C.3       5 UNK        -0.1800 
     49 N           3.0009  -14.6373  -45.0206 N.am      5 UNK        -0.5000 
     50 C           2.2218  -14.6803  -46.1102 C.2       4 UNK         0.5000 
     51 O           1.3537  -15.5397  -46.2884 O.2       4 UNK        -0.5000 
     52 CA          2.5218  -13.6454  -47.2085 C.3       4 UNK         0.1400 
     53 CB          3.9893  -13.7631  -47.6760 C.3       4 UNK        -0.1800 
     54 N           1.6321  -13.8903  -48.3428 N.am      4 UNK        -0.5000 
     55 C           1.2771  -13.0582  -49.3301 C.2       3 UNK         0.5000 
     56 O           0.5930  -13.4524  -50.2747 O.2       3 UNK        -0.5000 
     57 CA          1.6849  -11.5715  -49.2607 C.3       3 UNK         0.1400 
     58 CB          1.5620  -10.8518  -50.6164 C.3       3 UNK        -0.1800 
     59 N           0.8204  -10.9071  -48.2934 N.am      3 UNK        -0.5000 
     60 C           1.2138   -9.9950  -47.3935 C.2       2 UNK         0.5000 
     61 O           2.3675   -9.5720  -47.3137 O.2       2 UNK        -0.5000 
     62 CA          0.1534   -9.4744  -46.3974 C.3       2 UNK         0.1400 
     63 CB         -0.3807   -8.1063  -46.8479 C.3       2 UNK        -0.1800 
     64 N          -0.9753  -10.3910  -46.2316 N.am      2 UNK        -0.5000 
     65 C          -0.8989  -11.6063  -45.6721 C.2       1 UNK         0.5000 
     66 O           0.0950  -12.0094  -45.0669 O.2       1 UNK        -0.5000 
     67 C          -3.4563  -23.5227  -44.4042 C.2       11 UNK         0.5000 
     68 O          -4.3179  -24.4009  -44.3511 O.2       11 UNK        -0.5000 
     69 N          -2.6681  -23.2026  -43.3671 N.am      12 UNK        -0.5000 
     70 CA         -2.7008  -23.8767  -42.0638 C.3       12 UNK         0.1400 
     71 CB         -1.8194  -23.1129  -41.0644 C.3       12 UNK        -0.1800 
     72 C          -2.2855  -25.3609  -42.1360 C.2       12 UNK         0.5000 
     73 O          -2.8703  -26.1911  -41.4398 O.2       12 UNK        -0.5000 
     74 N          -1.3149  -25.6725  -43.0052 N.am      13 UNK        -0.5000 
     75 CA         -0.8457  -27.0264  -43.3124 C.3       13 UNK         0.1400 
     76 CB          0.5559  -26.9318  -43.9378 C.3       13 UNK        -0.1800 
     77 C          -1.7939  -27.8222  -44.2355 C.2       13 UNK         0.5000 
     78 O          -1.5282  -28.9976  -44.4902 O.2       13 UNK        -0.5000 
     79 N          -2.8625  -27.1778  -44.7283 N.am      14 UNK        -0.5000 
     80 CA         -3.8806  -27.6995  -45.6456 C.3       14 UNK         0.1400 
     81 CB         -4.6372  -28.8956  -45.0302 C.3       14 UNK        -0.1800 
     82 C          -3.3512  -27.9829  -47.0683 C.2       14 UNK         0.5000 
     83 O          -3.9495  -28.7753  -47.7977 O.2       14 UNK        -0.5000 
     84 N          -2.2716  -27.2927  -47.4631 N.am      15 UNK        -0.5000 
     85 CA         -1.7631  -27.2529  -48.8375 C.3       15 UNK         0.1400 
     86 CB         -0.2567  -26.9500  -48.8084 C.3       15 UNK        -0.1800 
     87 C          -2.5164  -26.2158  -49.6977 C.2       15 UNK         0.5000 
     88 O          -2.3813  -26.2281  -50.9216 O.2       15 UNK        -0.5000 
     89 N          -3.2904  -25.3375  -49.0394 N.am      16 UNK        -0.5000 
     90 CA         -4.2138  -24.3426  -49.5985 C.3       16 UNK         0.1400 
     91 CB         -5.3403  -25.0327  -50.3956 C.3       16 UNK        -0.1800 
     92 C          -3.5391  -23.2163  -50.4064 C.2       16 UNK         0.5000 
     93 O          -4.2288  -22.5206  -51.1522 O.2       16 UNK        -0.5000 
     94 N          -2.2160  -23.0520  -50.2504 N.am      17 UNK        -0.5000 
     95 CA         -1.3724  -22.0244  -50.8752 C.3       17 UNK         0.1400 
     96 CB         -1.6291  -20.6563  -50.2128 C.3       17 UNK        -0.1800 
     97 C          -1.5092  -21.9732  -52.4122 C.2       17 UNK         0.5000 
     98 O          -1.6137  -20.8874  -52.9840 O.2       17 UNK        -0.5000 
     99 N          -1.5527  -23.1591  -53.0405 N.am      18 UNK        -0.5000 
    100 CA        -1.7650  -23.3843  -54.4764 C.3       18 UNK         0.1400 
    101 CB        -0.5500  -22.8932  -55.2914 C.3       18 UNK        -0.1800 
    102 C         -3.1079  -22.8045  -54.9751 C.2       18 UNK         0.5000 
    103 O         -3.1528  -22.1445  -56.0144 O.2       18 UNK        -0.5000 
    104 N         -4.1711  -23.0621  -54.1983 N.am      19 UNK        -0.5000 
    105 CA        -5.5361  -22.5470  -54.3515 C.3       19 UNK         0.1400 
    106 CB        -6.1774  -23.0219  -55.6730 C.3       19 UNK        -0.1800 
    107 C         -5.5970  -21.0194  -54.1455 C.2       19 UNK         0.5000 
    108 O         -6.1613  -20.2982  -54.9705 O.2       19 UNK        -0.5000 
    109 N         -5.0066  -20.5738  -53.0277 N.am      20 UNK        -0.5000 
    110 CA        -4.9038  -19.1947  -52.5484 C.3       20 UNK         0.1400 
    111 CB        -6.2752  -18.6854  -52.0620 C.3       20 UNK        -0.1800 
    112 C         -4.2241  -18.2491  -53.5574 C.2       20 UNK         0.5000 
    113 O         -4.7637  -17.1900  -53.8859 O.2       20 UNK        -0.5000 
    114 N         -3.0322  -18.6405  -54.0246 N.am      21 UNK        -0.5000 
    115 CA        -2.1817  -17.8616  -54.9246 C.3       21 UNK         0.1400 
    116 CB        -1.2522  -18.8240  -55.6854 C.3       21 UNK        -0.1800 
    117 C         -1.4101  -16.7692  -54.1531 C.2       21 UNK         0.5000 
    118 O         -0.1782  -16.7862  -54.1126 O.2       21 UNK        -0.5000 
    119 N         -2.1585  -15.8578  -53.5217 N.am      22 UNK        -0.5000 
    120 CA        -1.6487  -14.7227  -52.7409 C.3       22 UNK         0.1400 
    121 C         -0.8668  -13.6898  -53.6006 C.2       22 UNK         0.5000 
    122 N          0.0997  -13.0021  -53.0119 N.am      22 UNK        -0.7600 
    123 O         -1.1547  -13.4750  -54.7766 O.2       22 UNK        -0.5000 
    124 C124       -2.7819  -14.0115  -51.9527 C.3       23 UNK        -0.0398 
    125 S125       -3.8295  -15.0885  -50.9085 S.3       23 UNK        -0.2404 
    126 C126       -2.5944  -16.0728  -50.0116 C.3       23 UNK        -0.0205 
    127 H127       -3.9091  -10.6077  -49.5298 H         1 UNK         0.0600 
    128 H128       -5.0106  -11.3338  -48.3548 H         1 UNK         0.0600 
    129 H129       -4.3876  -12.2999  -49.6946 H         1 UNK         0.0600 
    130 H130       -4.0271  -11.9158  -46.4380 H         1 UNK         0.3000 
    131 H131       -1.6460  -13.4463  -46.3081 H         1 UNK         0.0600 
    132 H132       -1.9712  -13.3701  -43.8396 H         1 UNK         0.0800 
    133 H133       -3.1748  -12.1213  -44.0258 H         1 UNK         0.0800 
    134 H134       -3.1511  -16.4133  -44.1392 H         1 UNK         0.0800 
    135 H135       -1.9558  -15.4847  -45.0122 H         1 UNK         0.0800 
    136 H136       -2.2556  -15.0781  -47.5276 H         1 UNK         0.1150 
    137 H137       -4.1558  -18.2859  -49.6100 H         1 UNK         0.1150 
    138 H138       -4.5119  -18.0042  -45.3482 H         1 UNK         0.1150 
    139 H139       -5.9078  -19.5831  -46.5903 H         1 UNK         0.0800 
    140 H140       -5.9543  -19.5119  -48.3324 H         1 UNK         0.0800 
    141 H141       -4.9516  -21.5310  -45.3715 H         1 UNK         0.0800 
    142 H142       -3.4311  -20.6594  -45.3522 H         1 UNK         0.0800 
    143 H143       -3.6186  -23.4755  -46.5057 H         1 UNK         0.0600 
    144 H144       -1.4129  -21.7140  -46.0706 H         1 UNK         0.3000 
    145 H145        1.0930  -24.3040  -46.2785 H         1 UNK         0.0600 
    146 H146        1.9177  -22.6879  -47.9755 H         1 UNK         0.0600 
    147 H147        0.5503  -23.5980  -48.5958 H         1 UNK         0.0600 
    148 H148        0.3266  -21.9382  -48.0627 H         1 UNK         0.0600 
    149 H149        1.3734  -21.5254  -45.7862 H         1 UNK         0.3000 
    150 H150        1.1207  -21.6995  -42.1937 H         1 UNK         0.0600 
    151 H151        3.4554  -22.3220  -42.8028 H         1 UNK         0.0600 
    152 H152        3.3312  -20.6071  -42.4380 H         1 UNK         0.0600 
    153 H153        3.4456  -21.1465  -44.1110 H         1 UNK         0.0600 
    154 H154        1.5857  -19.4691  -43.8554 H         1 UNK         0.3000 
    155 H155       -1.8294  -18.5332  -44.4376 H         1 UNK         0.0600 
    156 H156        0.4831  -17.5422  -42.6930 H         1 UNK         0.0600 
    157 H157       -1.2387  -17.4248  -42.3995 H         1 UNK         0.0600 
    158 H158       -0.4856  -16.4271  -43.6351 H         1 UNK         0.0600 
    159 H159        0.5769  -17.4649  -45.4854 H         1 UNK         0.3000 
    160 H160        0.9440  -19.6219  -48.3065 H         1 UNK         0.0600 
    161 H161        0.9361  -17.3950  -49.4627 H         1 UNK         0.0600 
    162 H162       -0.0086  -16.7196  -48.1327 H         1 UNK         0.0600 
    163 H163       -0.6753  -18.0037  -49.1242 H         1 UNK         0.0600 
    164 H164        2.2855  -17.2940  -47.1692 H         1 UNK         0.3000 
    165 H165        4.6921  -19.1909  -45.3516 H         1 UNK         0.0600 
    166 H166        6.3005  -17.9408  -46.7683 H         1 UNK         0.0600 
    167 H167        5.5927  -19.2629  -47.6823 H         1 UNK         0.0600 
    168 H168        5.0421  -17.6150  -47.9608 H         1 UNK         0.0600 
    169 H169        4.4235  -16.3936  -45.8983 H         1 UNK         0.3000 
    170 H170        1.9559  -15.6092  -43.5127 H         1 UNK         0.0600 
    171 H171        3.9102  -15.8470  -41.9722 H         1 UNK         0.0600 
    172 H172        4.9613  -15.1090  -43.1752 H         1 UNK         0.0600 
    173 H173        3.6617  -14.1719  -42.4362 H         1 UNK         0.0600 
    174 H174        3.6900  -13.9035  -44.9419 H         1 UNK         0.3000 
    175 H175        2.3376  -12.6577  -46.7863 H         1 UNK         0.0600 
    176 H176        4.2261  -14.7803  -47.9911 H         1 UNK         0.0600 
    177 H177        4.2132  -13.1078  -48.5160 H         1 UNK         0.0600 
    178 H178        4.6842  -13.4964  -46.8792 H         1 UNK         0.0600 
    179 H179        1.2448  -14.8236  -48.3381 H         1 UNK         0.3000 
    180 H180        2.7269  -11.5083  -48.9497 H         1 UNK         0.0600 
    181 H181        0.5303  -10.8311  -50.9703 H         1 UNK         0.0600 
    182 H182        2.1665  -11.3461  -51.3776 H         1 UNK         0.0600 
    183 H183        1.9088   -9.8208  -50.5454 H         1 UNK         0.0600 
    184 H184       -0.1440  -11.2310  -48.2934 H         1 UNK         0.3000 
    185 H185        0.6411   -9.3525  -45.4281 H         1 UNK         0.0600 
    186 H186        0.4313   -7.3857  -46.9543 H         1 UNK         0.0600 
    187 H187       -0.8906   -8.1706  -47.8100 H         1 UNK         0.0600 
    188 H188       -1.0829   -7.6975  -46.1211 H         1 UNK         0.0600 
    189 H189       -1.8298  -10.1476  -46.7112 H         1 UNK         0.3000 
    190 H190       -2.0086  -22.4345  -43.4654 H         1 UNK         0.3000 
    191 H191       -3.7296  -23.8416  -41.6996 H         1 UNK         0.0600 
    192 H192       -1.8582  -23.5746  -40.0771 H         1 UNK         0.0600 
    193 H193       -2.1516  -22.0806  -40.9542 H         1 UNK         0.0600 
    194 H194       -0.7759  -23.0970  -41.3781 H         1 UNK         0.0600 
    195 H195       -0.8273  -24.9150  -43.4750 H         1 UNK         0.3000 
    196 H196       -0.7631  -27.5837  -42.3773 H         1 UNK         0.0600 
    197 H197        0.9661  -27.9218  -44.1406 H         1 UNK         0.0600 
    198 H198        1.2524  -26.4252  -43.2695 H         1 UNK         0.0600 
    199 H199        0.5375  -26.3845  -44.8807 H         1 UNK         0.0600 
    200 H200       -2.9821  -26.2079  -44.4642 H         1 UNK         0.3000 
    201 H201       -4.6042  -26.8916  -45.7621 H         1 UNK         0.0600 
    202 H202       -4.9949  -28.6620  -44.0274 H         1 UNK         0.0600 
    203 H203       -4.0105  -29.7852  -44.9656 H         1 UNK         0.0600 
    204 H204       -5.5091  -29.1567  -45.6309 H         1 UNK         0.0600 
    205 H205       -1.8554  -26.6264  -46.8169 H         1 UNK         0.3000 
    206 H206       -1.9024  -28.2307  -49.3029 H         1 UNK         0.0600 
    207 H207        0.2819  -27.6931  -48.2200 H         1 UNK         0.0600 
    208 H208        0.1640  -26.9654  -49.8146 H         1 UNK         0.0600 
    209 H209       -0.0463  -25.9705  -48.3813 H         1 UNK         0.0600 
    210 H210       -3.2747  -25.3958  -48.0314 H         1 UNK         0.3000 
    211 H211       -4.6790  -23.8526  -48.7429 H         1 UNK         0.0600 
    212 H212       -4.9687  -25.4846  -51.3156 H         1 UNK         0.0600 
    213 H213       -6.1184  -24.3208  -50.6739 H         1 UNK         0.0600 
    214 H214       -5.8175  -25.8157  -49.8061 H         1 UNK         0.0600 
    215 H215       -1.7458  -23.6957  -49.6326 H         1 UNK         0.3000 
    216 H216       -0.3371  -22.3010  -50.6730 H         1 UNK         0.0600 
    217 H217       -0.9515  -19.8962  -50.6023 H         1 UNK         0.0600 
    218 H218       -1.4788  -20.7070  -49.1359 H         1 UNK         0.0600 
    219 H219       -2.6477  -20.3105  -50.3826 H         1 UNK         0.0600 
    220 H220       -1.4949  -23.9932  -52.4716 H         1 UNK         0.3000 
    221 H221       -1.8332  -24.4647  -54.6114 H         1 UNK         0.0600 
    222 H222       -0.4371  -21.8104  -55.2408 H         1 UNK         0.0600 
    223 H223        0.3745  -23.3434  -54.9302 H         1 UNK         0.0600 
    224 H224       -0.6514  -23.1615  -56.3436 H         1 UNK         0.0600 
    225 H225       -4.0021  -23.5621  -53.3366 H         1 UNK         0.3000 
    226 H226       -6.1157  -22.9842  -53.5369 H         1 UNK         0.0600 
    227 H227       -7.2324  -22.7487  -55.7108 H         1 UNK         0.0600 
    228 H228       -5.6972  -22.5782  -56.5454 H         1 UNK         0.0600 
    229 H229       -6.1193  -24.1057  -55.7722 H         1 UNK         0.0600 
    230 H230       -4.5964  -21.2727  -52.4096 H         1 UNK         0.3000 
    231 H231       -4.2440  -19.2292  -51.6832 H         1 UNK         0.0600 
    232 H232       -6.6933  -19.3470  -51.3034 H         1 UNK         0.0600 
    233 H233       -6.9933  -18.6133  -52.8794 H         1 UNK         0.0600 
    234 H234       -6.1858  -17.6949  -51.6137 H         1 UNK         0.0600 
    235 H235       -2.6272  -19.5089  -53.6783 H         1 UNK         0.3000 
    236 H236       -2.8107  -17.3596  -55.6626 H         1 UNK         0.0600 
    237 H237       -1.8234  -19.5773  -56.2285 H         1 UNK         0.0600 
    238 H238       -0.6450  -18.2865  -56.4145 H         1 UNK         0.0600 
    239 H239       -0.5723  -19.3439  -55.0098 H         1 UNK         0.0600 
    240 H240       -3.1668  -15.9419  -53.5896 H         1 UNK         0.3000 
    241 H241       -0.9365  -15.1344  -52.0242 H         1 UNK         0.0600 
    242 H242        0.6136  -12.3167  -53.5416 H         1 UNK         0.3800 
    243 H243        0.3213  -13.1559  -52.0282 H         1 UNK         0.3800 
    244 H244       -2.3544  -13.2457  -51.3021 H         1 UNK         0.0800 
    245 H245       -3.4446  -13.4844  -52.6412 H         1 UNK         0.0800 
    246 H246       -2.2580  -16.8943  -50.6459 H         1 UNK         0.0800 
    247 H247       -1.7180  -15.4553  -49.8058 H         1 UNK         0.0800 
@<TRIPOS>BOND
     1    1    2 1    
     2    1  127 1    
     3    1  128 1    
     4    1  129 1    
     5    2    3 2    
     6    2    4 am   BACKBONE|DICT|INTERRES
     7    4    5 1    
     8    4  130 1    
     9    5    6 1    
    10    5   65 1    
    11    5  131 1    
    12    6    7 1    
    13    6  132 1    
    14    6  133 1    
    15    7    8 1    
    16    8    9 1    
    17    8  134 1    
    18    8  135 1    
    19    9   10 ar   
    20    9   14 ar   
    21   10   11 ar   
    22   10  136 1    
    23   11   12 ar   
    24   11  126 1    
    25   12   13 ar   
    26   12  137 1    
    27   13   14 ar   
    28   13   15 1    
    29   14  138 1    
    30   15   16 1    
    31   15  139 1    
    32   15  140 1    
    33   16   17 1    
    34   17   18 1    
    35   17  141 1    
    36   17  142 1    
    37   18   19 1    
    38   18   67 1    
    39   18  143 1    
    40   19   20 am   BACKBONE|DICT|INTERRES
    41   19  144 1    
    42   20   21 2    
    43   20   22 1    
    44   22   23 1    
    45   22   24 1    
    46   22  145 1    
    47   23  146 1    
    48   23  147 1    
    49   23  148 1    
    50   24   25 am   BACKBONE|DICT|INTERRES
    51   24  149 1    
    52   25   26 2    
    53   25   27 1    
    54   27   28 1    
    55   27   29 1    
    56   27  150 1    
    57   28  151 1    
    58   28  152 1    
    59   28  153 1    
    60   29   30 am   BACKBONE|DICT|INTERRES
    61   29  154 1    
    62   30   31 2    
    63   30   32 1    
    64   32   33 1    
    65   32   34 1    
    66   32  155 1    
    67   33  156 1    
    68   33  157 1    
    69   33  158 1    
    70   34   35 am   BACKBONE|DICT|INTERRES
    71   34  159 1    
    72   35   36 2    
    73   35   37 1    
    74   37   38 1    
    75   37   39 1    
    76   37  160 1    
    77   38  161 1    
    78   38  162 1    
    79   38  163 1    
    80   39   40 am   BACKBONE|DICT|INTERRES
    81   39  164 1    
    82   40   41 2    
    83   40   42 1    
    84   42   43 1    
    85   42   44 1    
    86   42  165 1    
    87   43  166 1    
    88   43  167 1    
    89   43  168 1    
    90   44   45 am   BACKBONE|DICT|INTERRES
    91   44  169 1    
    92   45   46 2    
    93   45   47 1    
    94   47   48 1    
    95   47   49 1    
    96   47  170 1    
    97   48  171 1    
    98   48  172 1    
    99   48  173 1    
   100   49   50 am   BACKBONE|DICT|INTERRES
   101   49  174 1    
   102   50   51 2    
   103   50   52 1    
   104   52   53 1    
   105   52   54 1    
   106   52  175 1    
   107   53  176 1    
   108   53  177 1    
   109   53  178 1    
   110   54   55 am   BACKBONE|DICT|INTERRES
   111   54  179 1    
   112   55   56 2    
   113   55   57 1    
   114   57   58 1    
   115   57   59 1    
   116   57  180 1    
   117   58  181 1    
   118   58  182 1    
   119   58  183 1    
   120   59   60 am   BACKBONE|DICT|INTERRES
   121   59  184 1    
   122   60   61 2    
   123   60   62 1    
   124   62   63 1    
   125   62   64 1    
   126   62  185 1    
   127   63  186 1    
   128   63  187 1    
   129   63  188 1    
   130   64   65 am   BACKBONE|DICT|INTERRES
   131   64  189 1    
   132   65   66 2    
   133   67   68 2    
   134   67   69 am   BACKBONE|DICT|INTERRES
   135   69   70 1    
   136   69  190 1    
   137   70   71 1    
   138   70   72 1    
   139   70  191 1    
   140   71  192 1    
   141   71  193 1    
   142   71  194 1    
   143   72   73 2    
   144   72   74 am   BACKBONE|DICT|INTERRES
   145   74   75 1    
   146   74  195 1    
   147   75   76 1    
   148   75   77 1    
   149   75  196 1    
   150   76  197 1    
   151   76  198 1    
   152   76  199 1    
   153   77   78 2    
   154   77   79 am   BACKBONE|DICT|INTERRES
   155   79   80 1    
   156   79  200 1    
   157   80   81 1    
   158   80   82 1    
   159   80  201 1    
   160   81  202 1    
   161   81  203 1    
   162   81  204 1    
   163   82   83 2    
   164   82   84 am   BACKBONE|DICT|INTERRES
   165   84   85 1    
   166   84  205 1    
   167   85   86 1    
   168   85   87 1    
   169   85  206 1    
   170   86  207 1    
   171   86  208 1    
   172   86  209 1    
   173   87   88 2    
   174   87   89 am   BACKBONE|DICT|INTERRES
   175   89   90 1    
   176   89  210 1    
   177   90   91 1    
   178   90   92 1    
   179   90  211 1    
   180   91  212 1    
   181   91  213 1    
   182   91  214 1    
   183   92   93 2    
   184   92   94 am   BACKBONE|DICT|INTERRES
   185   94   95 1    
   186   94  215 1    
   187   95   96 1    
   188   95   97 1    
   189   95  216 1    
   190   96  217 1    
   191   96  218 1    
   192   96  219 1    
   193   97   98 2    
   194   97   99 am   BACKBONE|DICT|INTERRES
   195   99  100 1    
   196   99  220 1    
   197  100  101 1    
   198  100  102 1    
   199  100  221 1    
   200  101  222 1    
   201  101  223 1    
   202  101  224 1    
   203  102  103 2    
   204  102  104 am   BACKBONE|DICT|INTERRES
   205  104  105 1    
   206  104  225 1    
   207  105  106 1    
   208  105  107 1    
   209  105  226 1    
   210  106  227 1    
   211  106  228 1    
   212  106  229 1    
   213  107  108 2    
   214  107  109 am   BACKBONE|DICT|INTERRES
   215  109  110 1    
   216  109  230 1    
   217  110  111 1    
   218  110  112 1    
   219  110  231 1    
   220  111  232 1    
   221  111  233 1    
   222  111  234 1    
   223  112  113 2    
   224  112  114 am   BACKBONE|DICT|INTERRES
   225  114  115 1    
   226  114  235 1    
   227  115  116 1    
   228  115  117 1    
   229  115  236 1    
   230  116  237 1    
   231  116  238 1    
   232  116  239 1    
   233  117  118 2    
   234  117  119 am   BACKBONE|DICT|INTERRES
   235  119  120 1    
   236  119  240 1    
   237  120  121 1    
   238  120  124 1    
   239  120  241 1    
   240  121  122 am   BACKBONE|DICT|INTERRES
   241  121  123 2    
   242  122  242 1    
   243  122  243 1    
   244  124  125 1    
   245  124  244 1    
   246  124  245 1    
   247  125  126 1    
   248  126  246 1    
   249  126  247 1    
@<TRIPOS>SUBSTRUCTURE
     1 UNK         1 GROUP             0       ****    0 ROOT    
