@<TRIPOS>MOLECULE
3R540
247   249    1
SMALL
USER_CHARGES


@<TRIPOS>ATOM
      1 CA         -4.4362  -15.2147  -48.5948 C.3       0 UNK        -0.1800 
      2 C          -3.6607  -13.9160  -48.4314 C.2       0 UNK         0.5000 
      3 O          -4.2260  -12.8386  -48.6195 O.2       0 UNK        -0.5000 
      4 N          -2.3697  -14.0168  -48.0896 N.am      1 UNK        -0.5000 
      5 CA         -1.4918  -12.8803  -47.7864 C.3       1 UNK         0.1400 
      6 C6         -0.0044  -13.2997  -47.6788 C.3       23 UNK        -0.0398 
      7 S7          0.6339  -14.1481  -49.1617 S.3       23 UNK        -0.2404 
      8 C8          1.2192  -15.7168  -48.4334 C.3       23 UNK        -0.0205 
      9 C9          1.7130  -16.7397  -49.4555 C.ar      23 UNK        -0.0193 
     10 C10         1.0974  -16.8822  -50.7042 C.ar      23 UNK        -0.1150 
     11 C11         1.5273  -17.8493  -51.6162 C.ar      23 UNK        -0.0193 
     12 C12         2.5775  -18.7008  -51.2574 C.ar      23 UNK        -0.1150 
     13 C13         3.2035  -18.5777  -50.0144 C.ar      23 UNK        -0.0193 
     14 C14         2.7706  -17.5919  -49.1228 C.ar      23 UNK        -0.1150 
     15 C15         4.3511  -19.5071  -49.6410 C.3       23 UNK        -0.0205 
     16 S16         3.8279  -21.2508  -49.5510 S.3       23 UNK        -0.2404 
     17 C17         2.6592  -21.2185  -48.1518 C.3       23 UNK        -0.0398 
     18 CA          2.8630  -22.4084  -47.1798 C.3       11 UNK         0.1400 
     19 N           2.3315  -22.1177  -45.8478 N.am      11 UNK        -0.5000 
     20 C           2.6983  -22.7397  -44.7178 C.2       10 UNK         0.5000 
     21 O           3.5936  -23.5830  -44.6613 O.2       10 UNK        -0.5000 
     22 CA          1.9401  -22.3561  -43.4319 C.3       10 UNK         0.1400 
     23 CB          2.7694  -21.3723  -42.5925 C.3       10 UNK        -0.1800 
     24 N           0.6301  -21.7705  -43.7311 N.am      10 UNK        -0.5000 
     25 C          -0.4637  -22.5026  -43.9821 C.2       9 UNK         0.5000 
     26 O          -0.4966  -23.7245  -43.8500 O.2       9 UNK        -0.5000 
     27 CA         -1.7212  -21.7764  -44.4983 C.3       9 UNK         0.1400 
     28 CB         -2.7300  -21.5481  -43.3650 C.3       9 UNK        -0.1800 
     29 N          -1.4418  -20.5086  -45.1821 N.am      9 UNK        -0.5000 
     30 C          -0.8470  -20.4266  -46.3810 C.2       8 UNK         0.5000 
     31 O          -0.4740  -21.4216  -47.0012 O.2       8 UNK        -0.5000 
     32 CA         -0.5509  -19.0376  -46.9827 C.3       8 UNK         0.1400 
     33 CB         -1.1049  -18.9141  -48.4168 C.3       8 UNK        -0.1800 
     34 N          -0.9407  -17.9046  -46.1360 N.am      8 UNK        -0.5000 
     35 C          -2.1623  -17.3996  -45.9170 C.2       7 UNK         0.5000 
     36 O          -3.1899  -17.8143  -46.4517 O.2       7 UNK        -0.5000 
     37 CA         -2.2132  -16.2314  -44.9088 C.3       7 UNK         0.1400 
     38 CB         -3.6460  -15.8268  -44.5076 C.3       7 UNK        -0.1800 
     39 N          -1.3787  -16.4904  -43.7293 N.am      7 UNK        -0.5000 
     40 C          -1.5203  -17.4921  -42.8468 C.2       6 UNK         0.5000 
     41 O          -2.4513  -18.2963  -42.8717 O.2       6 UNK        -0.5000 
     42 CA         -0.3937  -17.6428  -41.8001 C.3       6 UNK         0.1400 
     43 CB         -0.4241  -19.0004  -41.0665 C.3       6 UNK        -0.1800 
     44 N           0.9366  -17.3959  -42.3683 N.am      6 UNK        -0.5000 
     45 C           1.5045  -18.0464  -43.3958 C.2       5 UNK         0.5000 
     46 O           0.9791  -18.9991  -43.9725 O.2       5 UNK        -0.5000 
     47 CA          2.8606  -17.5062  -43.8992 C.3       5 UNK         0.1400 
     48 CB          3.1695  -17.9637  -45.3392 C.3       5 UNK        -0.1800 
     49 N           2.9742  -16.0464  -43.7897 N.am      5 UNK        -0.5000 
     50 C           2.1357  -15.1384  -44.3081 C.2       4 UNK         0.5000 
     51 O           1.1551  -15.4180  -45.0035 O.2       4 UNK        -0.5000 
     52 CA          2.4175  -13.6713  -43.9383 C.3       4 UNK         0.1400 
     53 CB          3.0203  -12.9178  -45.1322 C.3       4 UNK        -0.1800 
     54 N           1.2153  -12.9730  -43.4793 N.am      4 UNK        -0.5000 
     55 C           0.4319  -13.3419  -42.4564 C.2       3 UNK         0.5000 
     56 O           0.6471  -14.3376  -41.7632 O.2       3 UNK        -0.5000 
     57 CA         -0.8142  -12.4849  -42.1512 C.3       3 UNK         0.1400 
     58 CB         -0.5786  -11.5815  -40.9258 C.3       3 UNK        -0.1800 
     59 N          -1.3464  -11.7188  -43.2872 N.am      3 UNK        -0.5000 
     60 C          -0.8274  -10.6621  -43.9258 C.2       2 UNK         0.5000 
     61 O           0.2745  -10.1762  -43.6684 O.2       2 UNK        -0.5000 
     62 CA         -1.6608  -10.1138  -45.1029 C.3       2 UNK         0.1400 
     63 CB         -1.3179   -8.6492  -45.4277 C.3       2 UNK        -0.1800 
     64 N          -1.4693  -10.9210  -46.3089 N.am      2 UNK        -0.5000 
     65 C          -1.9218  -12.1696  -46.4831 C.2       1 UNK         0.5000 
     66 O          -2.6071  -12.7651  -45.6467 O.2       1 UNK        -0.5000 
     67 C           2.2490  -23.7142  -47.7257 C.2       11 UNK         0.5000 
     68 O           2.9847  -24.6057  -48.1522 O.2       11 UNK        -0.5000 
     69 N           0.9154  -23.8142  -47.6664 N.am      12 UNK        -0.5000 
     70 CA          0.1389  -24.9664  -48.0994 C.3       12 UNK         0.1400 
     71 CB         -0.1247  -24.8794  -49.6138 C.3       12 UNK        -0.1800 
     72 C          -1.1594  -25.0051  -47.2847 C.2       12 UNK         0.5000 
     73 O          -2.1039  -24.2789  -47.6001 O.2       12 UNK        -0.5000 
     74 N          -1.1898  -25.8505  -46.2470 N.am      13 UNK        -0.5000 
     75 CA         -2.3223  -26.0082  -45.3260 C.3       13 UNK         0.1400 
     76 CB         -1.8948  -26.9028  -44.1524 C.3       13 UNK        -0.1800 
     77 C          -3.5950  -26.5672  -45.9888 C.2       13 UNK         0.5000 
     78 O          -4.6980  -26.2736  -45.5282 O.2       13 UNK        -0.5000 
     79 N          -3.4213  -27.3452  -47.0661 N.am      14 UNK        -0.5000 
     80 CA         -4.5073  -27.8694  -47.8958 C.3       14 UNK         0.1400 
     81 CB         -3.9568  -28.9992  -48.7796 C.3       14 UNK        -0.1800 
     82 C          -5.1764  -26.7843  -48.7635 C.2       14 UNK         0.5000 
     83 O          -6.3391  -26.9434  -49.1369 O.2       14 UNK        -0.5000 
     84 N          -4.4339  -25.7125  -49.0707 N.am      15 UNK        -0.5000 
     85 CA         -4.9126  -24.5542  -49.8160 C.3       15 UNK         0.1400 
     86 CB         -3.7563  -23.9714  -50.6434 C.3       15 UNK        -0.1800 
     87 C          -5.4938  -23.5067  -48.8560 C.2       15 UNK         0.5000 
     88 O          -6.6693  -23.1609  -48.9744 O.2       15 UNK        -0.5000 
     89 N          -4.6510  -23.0317  -47.9248 N.am      16 UNK        -0.5000 
     90 CA         -4.9376  -22.0279  -46.8921 C.3       16 UNK         0.1400 
     91 CB         -5.8607  -22.6200  -45.8086 C.3       16 UNK        -0.1800 
     92 C          -5.4356  -20.6698  -47.4372 C.2       16 UNK         0.5000 
     93 O          -6.1709  -19.9601  -46.7484 O.2       16 UNK        -0.5000 
     94 N          -5.0176  -20.3311  -48.6610 N.am      17 UNK        -0.5000 
     95 CA         -5.3080  -19.0859  -49.3558 C.3       17 UNK         0.1400 
     96 CB         -6.7377  -19.1022  -49.9244 C.3       17 UNK        -0.1800 
     97 C          -4.2832  -18.9452  -50.4830 C.2       17 UNK         0.5000 
     98 O          -3.9422  -19.9474  -51.1162 O.2       17 UNK        -0.5000 
     99 N          -3.8223  -17.7133  -50.7281 N.am      18 UNK        -0.5000 
    100 CA        -2.7819  -17.3850  -51.7063 C.3       18 UNK         0.1400 
    101 CB        -2.4352  -15.8928  -51.5950 C.3       18 UNK        -0.1800 
    102 C         -3.1629  -17.7444  -53.1528 C.2       18 UNK         0.5000 
    103 O         -2.3226  -18.2461  -53.8979 O.2       18 UNK        -0.5000 
    104 N         -4.4370  -17.5261  -53.5050 N.am      19 UNK        -0.5000 
    105 CA        -5.0024  -17.8421  -54.8187 C.3       19 UNK         0.1400 
    106 CB        -6.4174  -17.2503  -54.9075 C.3       19 UNK        -0.1800 
    107 C         -5.0286  -19.3513  -55.1314 C.2       19 UNK         0.5000 
    108 O         -4.9942  -19.7248  -56.3041 O.2       19 UNK        -0.5000 
    109 N         -5.0845  -20.1832  -54.0833 N.am      20 UNK        -0.5000 
    110 CA        -5.0133  -21.6366  -54.1783 C.3       20 UNK         0.1400 
    111 CB        -5.9041  -22.2601  -53.0918 C.3       20 UNK        -0.1800 
    112 C         -3.5575  -22.1229  -54.0769 C.2       20 UNK         0.5000 
    113 O         -3.1299  -22.9200  -54.9122 O.2       20 UNK        -0.5000 
    114 N         -2.8127  -21.6181  -53.0813 N.am      21 UNK        -0.5000 
    115 CA        -1.4348  -22.0147  -52.7720 C.3       21 UNK         0.1400 
    116 CB        -1.0008  -21.3613  -51.4494 C.3       21 UNK        -0.1800 
    117 C         -0.4273  -21.7057  -53.8960 C.2       21 UNK         0.5000 
    118 O          0.4961  -22.4917  -54.1108 O.2       21 UNK        -0.5000 
    119 N         -0.6445  -20.5929  -54.6056 N.am      22 UNK        -0.5000 
    120 CA         0.1190  -20.1737  -55.7919 C.3       22 UNK         0.1400 
    121 C         -0.6597  -20.4263  -57.1181 C.2       22 UNK         0.5000 
    122 N         -1.7398  -21.1998  -57.1248 N.am      22 UNK        -0.7600 
    123 O         -0.2697  -19.9317  -58.1725 O.2       22 UNK        -0.5000 
    124 C124        0.6082  -18.7045  -55.6646 C.3       23 UNK        -0.0398 
    125 S125        1.8549  -18.4866  -54.3474 S.3       23 UNK        -0.2404 
    126 C126        0.7978  -17.9888  -52.9484 C.3       23 UNK        -0.0205 
    127 H127       -3.7905  -16.0828  -48.4672 H         1 UNK         0.0600 
    128 H128       -4.8945  -15.2562  -49.5825 H         1 UNK         0.0600 
    129 H129       -5.2287  -15.2719  -47.8485 H         1 UNK         0.0600 
    130 H130       -1.9554  -14.9274  -47.9711 H         1 UNK         0.3000 
    131 H131       -1.5872  -12.1632  -48.6047 H         1 UNK         0.0600 
    132 H132        0.1437  -13.9338  -46.8050 H         1 UNK         0.0800 
    133 H133        0.6236  -12.4212  -47.5244 H         1 UNK         0.0800 
    134 H134        2.0139  -15.4862  -47.7218 H         1 UNK         0.0800 
    135 H135        0.4107  -16.1658  -47.8584 H         1 UNK         0.0800 
    136 H136        0.2710  -16.2408  -50.9673 H         1 UNK         0.1150 
    137 H137        2.9067  -19.4725  -51.9385 H         1 UNK         0.1150 
    138 H138        3.2573  -17.4925  -48.1644 H         1 UNK         0.1150 
    139 H139        5.1372  -19.4146  -50.3916 H         1 UNK         0.0800 
    140 H140        4.8002  -19.2157  -48.6902 H         1 UNK         0.0800 
    141 H141        2.8036  -20.2819  -47.6123 H         1 UNK         0.0800 
    142 H142        1.6430  -21.1796  -48.5470 H         1 UNK         0.0800 
    143 H143        3.9380  -22.5693  -47.0688 H         1 UNK         0.0600 
    144 H144        1.5468  -21.4849  -45.8044 H         1 UNK         0.3000 
    145 H145        1.8022  -23.2630  -42.8391 H         1 UNK         0.0600 
    146 H146        2.2053  -21.0042  -41.7353 H         1 UNK         0.0600 
    147 H147        3.6679  -21.8566  -42.2087 H         1 UNK         0.0600 
    148 H148        3.0939  -20.5146  -43.1803 H         1 UNK         0.0600 
    149 H149        0.5971  -20.7579  -43.8410 H         1 UNK         0.3000 
    150 H150       -2.1837  -22.4497  -45.2219 H         1 UNK         0.0600 
    151 H151       -3.0386  -22.4964  -42.9232 H         1 UNK         0.0600 
    152 H152       -3.6292  -21.0502  -43.7286 H         1 UNK         0.0600 
    153 H153       -2.3076  -20.9392  -42.5664 H         1 UNK         0.0600 
    154 H154       -1.6895  -19.6577  -44.6942 H         1 UNK         0.3000 
    155 H155        0.5353  -18.9733  -47.0544 H         1 UNK         0.0600 
    156 H156       -0.9948  -17.9052  -48.8114 H         1 UNK         0.0600 
    157 H157       -2.1608  -19.1777  -48.4609 H         1 UNK         0.0600 
    158 H158       -0.5761  -19.5861  -49.0930 H         1 UNK         0.0600 
    159 H159       -0.1833  -17.5054  -45.5960 H         1 UNK         0.3000 
    160 H160       -1.7617  -15.3766  -45.4134 H         1 UNK         0.0600 
    161 H161       -3.6362  -14.9952  -43.8032 H         1 UNK         0.0600 
    162 H162       -4.2146  -15.5028  -45.3798 H         1 UNK         0.0600 
    163 H163       -4.1918  -16.6521  -44.0499 H         1 UNK         0.0600 
    164 H164       -0.5377  -15.9292  -43.6687 H         1 UNK         0.3000 
    165 H165       -0.5637  -16.8618  -41.0579 H         1 UNK         0.0600 
    166 H166       -0.2882  -19.8367  -41.7514 H         1 UNK         0.0600 
    167 H167        0.3610  -19.0570  -40.3128 H         1 UNK         0.0600 
    168 H168       -1.3756  -19.1483  -40.5545 H         1 UNK         0.0600 
    169 H169        1.4137  -16.5832  -41.9994 H         1 UNK         0.3000 
    170 H170        3.6217  -17.9298  -43.2428 H         1 UNK         0.0600 
    171 H171        2.3944  -17.6386  -46.0326 H         1 UNK         0.0600 
    172 H172        4.1222  -17.5639  -45.6861 H         1 UNK         0.0600 
    173 H173        3.2324  -19.0506  -45.4022 H         1 UNK         0.0600 
    174 H174        3.7404  -15.7168  -43.2189 H         1 UNK         0.3000 
    175 H175        3.1376  -13.6451  -43.1181 H         1 UNK         0.0600 
    176 H176        2.3424  -12.9043  -45.9841 H         1 UNK         0.0600 
    177 H177        3.2533  -11.8851  -44.8719 H         1 UNK         0.0600 
    178 H178        3.9481  -13.3874  -45.4615 H         1 UNK         0.0600 
    179 H179        0.9845  -12.1051  -43.9457 H         1 UNK         0.3000 
    180 H180       -1.6033  -13.1908  -41.8871 H         1 UNK         0.0600 
    181 H181        0.2271  -10.8665  -41.0940 H         1 UNK         0.0600 
    182 H182       -0.3065  -12.1754  -40.0524 H         1 UNK         0.0600 
    183 H183       -1.4779  -11.0214  -40.6695 H         1 UNK         0.0600 
    184 H184       -2.1885  -12.1082  -43.6981 H         1 UNK         0.3000 
    185 H185       -2.7144  -10.1529  -44.8176 H         1 UNK         0.0600 
    186 H186       -1.4417   -8.0158  -44.5484 H         1 UNK         0.0600 
    187 H187       -0.2878   -8.5391  -45.7694 H         1 UNK         0.0600 
    188 H188       -1.9723   -8.2549  -46.2053 H         1 UNK         0.0600 
    189 H189       -0.9014  -10.5008  -47.0306 H         1 UNK         0.3000 
    190 H190        0.3681  -23.0266  -47.3204 H         1 UNK         0.3000 
    191 H191        0.6952  -25.8843  -47.8981 H         1 UNK         0.0600 
    192 H192        0.7986  -25.0009  -50.1803 H         1 UNK         0.0600 
    193 H193       -0.8135  -25.6589  -49.9417 H         1 UNK         0.0600 
    194 H194       -0.5543  -23.9167  -49.8895 H         1 UNK         0.0600 
    195 H195       -0.3654  -26.3933  -46.0342 H         1 UNK         0.3000 
    196 H196       -2.5750  -25.0220  -44.9323 H         1 UNK         0.0600 
    197 H197       -2.7057  -27.0160  -43.4316 H         1 UNK         0.0600 
    198 H198       -1.0467  -26.4739  -43.6183 H         1 UNK         0.0600 
    199 H199       -1.6114  -27.9008  -44.4886 H         1 UNK         0.0600 
    200 H200       -2.4790  -27.5539  -47.3611 H         1 UNK         0.3000 
    201 H201       -5.2732  -28.2892  -47.2402 H         1 UNK         0.0600 
    202 H202       -3.5369  -29.8039  -48.1757 H         1 UNK         0.0600 
    203 H203       -3.1769  -28.6408  -49.4528 H         1 UNK         0.0600 
    204 H204       -4.7463  -29.4340  -49.3941 H         1 UNK         0.0600 
    205 H205       -3.5126  -25.6312  -48.6631 H         1 UNK         0.3000 
    206 H206       -5.7023  -24.8526  -50.5092 H         1 UNK         0.0600 
    207 H207       -3.4687  -24.6441  -51.4514 H         1 UNK         0.0600 
    208 H208       -4.0379  -23.0210  -51.0896 H         1 UNK         0.0600 
    209 H209       -2.8736  -23.7817  -50.0369 H         1 UNK         0.0600 
    210 H210       -3.7049  -23.4089  -47.9033 H         1 UNK         0.3000 
    211 H211       -3.9812  -21.8073  -46.4218 H         1 UNK         0.0600 
    212 H212       -6.8564  -22.8310  -46.1996 H         1 UNK         0.0600 
    213 H213       -5.9748  -21.9330  -44.9693 H         1 UNK         0.0600 
    214 H214       -5.4524  -23.5488  -45.4104 H         1 UNK         0.0600 
    215 H215       -4.4118  -20.9603  -49.1714 H         1 UNK         0.3000 
    216 H216       -5.1939  -18.2543  -48.6573 H         1 UNK         0.0600 
    217 H217       -7.4801  -19.1788  -49.1301 H         1 UNK         0.0600 
    218 H218       -6.8892  -19.9426  -50.6034 H         1 UNK         0.0600 
    219 H219       -6.9502  -18.1871  -50.4783 H         1 UNK         0.0600 
    220 H220       -4.1712  -16.9465  -50.1739 H         1 UNK         0.3000 
    221 H221       -1.8925  -17.9616  -51.4463 H         1 UNK         0.0600 
    222 H222       -1.6734  -15.6111  -52.3230 H         1 UNK         0.0600 
    223 H223       -3.3054  -15.2604  -51.7742 H         1 UNK         0.0600 
    224 H224       -2.0428  -15.6516  -50.6074 H         1 UNK         0.0600 
    225 H225       -5.0627  -17.1191  -52.8260 H         1 UNK         0.3000 
    226 H226       -4.3804  -17.3616  -55.5769 H         1 UNK         0.0600 
    227 H227       -6.8613  -17.4441  -55.8850 H         1 UNK         0.0600 
    228 H228       -7.0807  -17.6787  -54.1550 H         1 UNK         0.0600 
    229 H229       -6.4029  -16.1692  -54.7679 H         1 UNK         0.0600 
    230 H230       -5.0625  -19.7893  -53.1533 H         1 UNK         0.3000 
    231 H231       -5.4011  -21.9650  -55.1452 H         1 UNK         0.0600 
    232 H232       -5.7717  -23.3417  -53.0432 H         1 UNK         0.0600 
    233 H233       -6.9572  -22.0722  -53.3010 H         1 UNK         0.0600 
    234 H234       -5.6919  -21.8509  -52.1044 H         1 UNK         0.0600 
    235 H235       -3.2413  -20.9639  -52.4299 H         1 UNK         0.3000 
    236 H236       -1.4318  -23.0969  -52.6263 H         1 UNK         0.0600 
    237 H237       -1.6241  -21.6941  -50.6196 H         1 UNK         0.0600 
    238 H238        0.0312  -21.6141  -51.2019 H         1 UNK         0.0600 
    239 H239       -1.0722  -20.2758  -51.4958 H         1 UNK         0.0600 
    240 H240       -1.4202  -19.9887  -54.3527 H         1 UNK         0.3000 
    241 H241        1.0111  -20.7953  -55.8837 H         1 UNK         0.0600 
    242 H242       -2.2310  -21.3515  -57.9914 H         1 UNK         0.3800 
    243 H243       -2.0587  -21.6620  -56.2832 H         1 UNK         0.3800 
    244 H244       -0.2305  -18.0259  -55.5049 H         1 UNK         0.0800 
    245 H245        1.0831  -18.3773  -56.5908 H         1 UNK         0.0800 
    246 H246        0.3018  -17.0528  -53.2093 H         1 UNK         0.0800 
    247 H247        0.0162  -18.7314  -52.8145 H         1 UNK         0.0800 
@<TRIPOS>BOND
     1    1    2 1    
     2    1  127 1    
     3    1  128 1    
     4    1  129 1    
     5    2    3 2    
     6    2    4 am   BACKBONE|DICT|INTERRES
     7    4    5 1    
     8    4  130 1    
     9    5    6 1    
    10    5   65 1    
    11    5  131 1    
    12    6    7 1    
    13    6  132 1    
    14    6  133 1    
    15    7    8 1    
    16    8    9 1    
    17    8  134 1    
    18    8  135 1    
    19    9   10 ar   
    20    9   14 ar   
    21   10   11 ar   
    22   10  136 1    
    23   11   12 ar   
    24   11  126 1    
    25   12   13 ar   
    26   12  137 1    
    27   13   14 ar   
    28   13   15 1    
    29   14  138 1    
    30   15   16 1    
    31   15  139 1    
    32   15  140 1    
    33   16   17 1    
    34   17   18 1    
    35   17  141 1    
    36   17  142 1    
    37   18   19 1    
    38   18   67 1    
    39   18  143 1    
    40   19   20 am   BACKBONE|DICT|INTERRES
    41   19  144 1    
    42   20   21 2    
    43   20   22 1    
    44   22   23 1    
    45   22   24 1    
    46   22  145 1    
    47   23  146 1    
    48   23  147 1    
    49   23  148 1    
    50   24   25 am   BACKBONE|DICT|INTERRES
    51   24  149 1    
    52   25   26 2    
    53   25   27 1    
    54   27   28 1    
    55   27   29 1    
    56   27  150 1    
    57   28  151 1    
    58   28  152 1    
    59   28  153 1    
    60   29   30 am   BACKBONE|DICT|INTERRES
    61   29  154 1    
    62   30   31 2    
    63   30   32 1    
    64   32   33 1    
    65   32   34 1    
    66   32  155 1    
    67   33  156 1    
    68   33  157 1    
    69   33  158 1    
    70   34   35 am   BACKBONE|DICT|INTERRES
    71   34  159 1    
    72   35   36 2    
    73   35   37 1    
    74   37   38 1    
    75   37   39 1    
    76   37  160 1    
    77   38  161 1    
    78   38  162 1    
    79   38  163 1    
    80   39   40 am   BACKBONE|DICT|INTERRES
    81   39  164 1    
    82   40   41 2    
    83   40   42 1    
    84   42   43 1    
    85   42   44 1    
    86   42  165 1    
    87   43  166 1    
    88   43  167 1    
    89   43  168 1    
    90   44   45 am   BACKBONE|DICT|INTERRES
    91   44  169 1    
    92   45   46 2    
    93   45   47 1    
    94   47   48 1    
    95   47   49 1    
    96   47  170 1    
    97   48  171 1    
    98   48  172 1    
    99   48  173 1    
   100   49   50 am   BACKBONE|DICT|INTERRES
   101   49  174 1    
   102   50   51 2    
   103   50   52 1    
   104   52   53 1    
   105   52   54 1    
   106   52  175 1    
   107   53  176 1    
   108   53  177 1    
   109   53  178 1    
   110   54   55 am   BACKBONE|DICT|INTERRES
   111   54  179 1    
   112   55   56 2    
   113   55   57 1    
   114   57   58 1    
   115   57   59 1    
   116   57  180 1    
   117   58  181 1    
   118   58  182 1    
   119   58  183 1    
   120   59   60 am   BACKBONE|DICT|INTERRES
   121   59  184 1    
   122   60   61 2    
   123   60   62 1    
   124   62   63 1    
   125   62   64 1    
   126   62  185 1    
   127   63  186 1    
   128   63  187 1    
   129   63  188 1    
   130   64   65 am   BACKBONE|DICT|INTERRES
   131   64  189 1    
   132   65   66 2    
   133   67   68 2    
   134   67   69 am   BACKBONE|DICT|INTERRES
   135   69   70 1    
   136   69  190 1    
   137   70   71 1    
   138   70   72 1    
   139   70  191 1    
   140   71  192 1    
   141   71  193 1    
   142   71  194 1    
   143   72   73 2    
   144   72   74 am   BACKBONE|DICT|INTERRES
   145   74   75 1    
   146   74  195 1    
   147   75   76 1    
   148   75   77 1    
   149   75  196 1    
   150   76  197 1    
   151   76  198 1    
   152   76  199 1    
   153   77   78 2    
   154   77   79 am   BACKBONE|DICT|INTERRES
   155   79   80 1    
   156   79  200 1    
   157   80   81 1    
   158   80   82 1    
   159   80  201 1    
   160   81  202 1    
   161   81  203 1    
   162   81  204 1    
   163   82   83 2    
   164   82   84 am   BACKBONE|DICT|INTERRES
   165   84   85 1    
   166   84  205 1    
   167   85   86 1    
   168   85   87 1    
   169   85  206 1    
   170   86  207 1    
   171   86  208 1    
   172   86  209 1    
   173   87   88 2    
   174   87   89 am   BACKBONE|DICT|INTERRES
   175   89   90 1    
   176   89  210 1    
   177   90   91 1    
   178   90   92 1    
   179   90  211 1    
   180   91  212 1    
   181   91  213 1    
   182   91  214 1    
   183   92   93 2    
   184   92   94 am   BACKBONE|DICT|INTERRES
   185   94   95 1    
   186   94  215 1    
   187   95   96 1    
   188   95   97 1    
   189   95  216 1    
   190   96  217 1    
   191   96  218 1    
   192   96  219 1    
   193   97   98 2    
   194   97   99 am   BACKBONE|DICT|INTERRES
   195   99  100 1    
   196   99  220 1    
   197  100  101 1    
   198  100  102 1    
   199  100  221 1    
   200  101  222 1    
   201  101  223 1    
   202  101  224 1    
   203  102  103 2    
   204  102  104 am   BACKBONE|DICT|INTERRES
   205  104  105 1    
   206  104  225 1    
   207  105  106 1    
   208  105  107 1    
   209  105  226 1    
   210  106  227 1    
   211  106  228 1    
   212  106  229 1    
   213  107  108 2    
   214  107  109 am   BACKBONE|DICT|INTERRES
   215  109  110 1    
   216  109  230 1    
   217  110  111 1    
   218  110  112 1    
   219  110  231 1    
   220  111  232 1    
   221  111  233 1    
   222  111  234 1    
   223  112  113 2    
   224  112  114 am   BACKBONE|DICT|INTERRES
   225  114  115 1    
   226  114  235 1    
   227  115  116 1    
   228  115  117 1    
   229  115  236 1    
   230  116  237 1    
   231  116  238 1    
   232  116  239 1    
   233  117  118 2    
   234  117  119 am   BACKBONE|DICT|INTERRES
   235  119  120 1    
   236  119  240 1    
   237  120  121 1    
   238  120  124 1    
   239  120  241 1    
   240  121  122 am   BACKBONE|DICT|INTERRES
   241  121  123 2    
   242  122  242 1    
   243  122  243 1    
   244  124  125 1    
   245  124  244 1    
   246  124  245 1    
   247  125  126 1    
   248  126  246 1    
   249  126  247 1    
@<TRIPOS>SUBSTRUCTURE
     1 UNK         1 GROUP             0       ****    0 ROOT    
