@<TRIPOS>MOLECULE
3R540
247   249    1
SMALL
USER_CHARGES


@<TRIPOS>ATOM
      1 CA         -3.8315  -15.5290  -46.5243 C.3       0 UNK        -0.1800 
      2 C          -2.4635  -15.1643  -45.9677 C.2       0 UNK         0.5000 
      3 O          -2.3779  -14.4793  -44.9482 O.2       0 UNK        -0.5000 
      4 N          -1.3905  -15.6338  -46.6185 N.am      1 UNK        -0.5000 
      5 CA          0.0066  -15.3514  -46.2605 C.3       1 UNK         0.1400 
      6 C6          1.0024  -15.9069  -47.3014 C.3       23 UNK        -0.0398 
      7 S7          0.7915  -15.1548  -48.9460 S.3       23 UNK        -0.2404 
      8 C8          1.9883  -16.1231  -49.9174 C.3       23 UNK        -0.0205 
      9 C9          1.4630  -17.5165  -50.2273 C.ar      23 UNK        -0.0193 
     10 C10         0.5859  -17.7068  -51.2968 C.ar      23 UNK        -0.1150 
     11 C11         0.1008  -18.9811  -51.5969 C.ar      23 UNK        -0.0193 
     12 C12         0.4805  -20.0682  -50.8035 C.ar      23 UNK        -0.1150 
     13 C13         1.3563  -19.8953  -49.7262 C.ar      23 UNK        -0.0193 
     14 C14         1.8564  -18.6150  -49.4574 C.ar      23 UNK        -0.1150 
     15 C15         1.7805  -21.1143  -48.9068 C.3       23 UNK        -0.0205 
     16 S16         2.0997  -20.7853  -47.1379 S.3       23 UNK        -0.2404 
     17 C17         0.4158  -20.4950  -46.4984 C.3       23 UNK        -0.0398 
     18 CA         -0.2446  -21.7921  -45.9687 C.3       11 UNK         0.1400 
     19 N           0.5536  -22.4497  -44.9265 N.am      11 UNK        -0.5000 
     20 C           0.4059  -23.7289  -44.5514 C.2       10 UNK         0.5000 
     21 O          -0.4320  -24.4830  -45.0443 O.2       10 UNK        -0.5000 
     22 CA          1.2864  -24.2447  -43.3965 C.3       10 UNK         0.1400 
     23 CB          2.5492  -24.9183  -43.9526 C.3       10 UNK        -0.1800 
     24 N           1.6806  -23.2102  -42.4392 N.am      10 UNK        -0.5000 
     25 C           0.8467  -22.4145  -41.7538 C.2       9 UNK         0.5000 
     26 O          -0.3792  -22.5009  -41.8143 O.2       9 UNK        -0.5000 
     27 CA          1.4871  -21.3003  -40.9021 C.3       9 UNK         0.1400 
     28 CB          1.5575  -21.7283  -39.4290 C.3       9 UNK        -0.1800 
     29 N           2.8237  -20.8880  -41.3460 N.am      9 UNK        -0.5000 
     30 C           3.1338  -20.4107  -42.5597 C.2       8 UNK         0.5000 
     31 O           2.3243  -20.3042  -43.4850 O.2       8 UNK        -0.5000 
     32 CA          4.6196  -20.0710  -42.7810 C.3       8 UNK         0.1400 
     33 CB          5.4113  -21.3511  -43.0945 C.3       8 UNK        -0.1800 
     34 N           4.8284  -19.1193  -43.8703 N.am      8 UNK        -0.5000 
     35 C           4.4109  -17.8486  -43.8750 C.2       7 UNK         0.5000 
     36 O           3.8406  -17.3047  -42.9241 O.2       7 UNK        -0.5000 
     37 CA          4.6952  -17.0586  -45.1617 C.3       7 UNK         0.1400 
     38 CB          4.0092  -17.6945  -46.3824 C.3       7 UNK        -0.1800 
     39 N           4.2200  -15.6923  -44.9905 N.am      7 UNK        -0.5000 
     40 C           4.7836  -14.5901  -45.4969 C.2       6 UNK         0.5000 
     41 O           5.7511  -14.6049  -46.2585 O.2       6 UNK        -0.5000 
     42 CA          4.1696  -13.2405  -45.0782 C.3       6 UNK         0.1400 
     43 CB          3.2925  -12.6717  -46.2049 C.3       6 UNK        -0.1800 
     44 N           3.3536  -13.3684  -43.8726 N.am      6 UNK        -0.5000 
     45 C           3.7994  -13.2866  -42.6132 C.2       5 UNK         0.5000 
     46 O           4.9623  -13.0067  -42.3171 O.2       5 UNK        -0.5000 
     47 CA          2.7592  -13.5861  -41.5108 C.3       5 UNK         0.1400 
     48 CB          3.1244  -12.9714  -40.1438 C.3       5 UNK        -0.1800 
     49 N           1.3929  -13.2279  -41.9109 N.am      5 UNK        -0.5000 
     50 C           0.9116  -12.0060  -42.1890 C.2       4 UNK         0.5000 
     51 O           1.5534  -10.9642  -42.0506 O.2       4 UNK        -0.5000 
     52 CA         -0.5224  -11.9314  -42.7539 C.3       4 UNK         0.1400 
     53 CB         -0.4804  -11.6264  -44.2595 C.3       4 UNK        -0.1800 
     54 N          -1.2975  -13.1566  -42.5482 N.am      4 UNK        -0.5000 
     55 C          -1.7908  -13.5631  -41.3705 C.2       3 UNK         0.5000 
     56 O          -1.6908  -12.9200  -40.3253 O.2       3 UNK        -0.5000 
     57 CA         -2.4828  -14.9365  -41.3574 C.3       3 UNK         0.1400 
     58 CB         -3.9581  -14.8100  -41.7671 C.3       3 UNK        -0.1800 
     59 N          -1.8133  -15.8942  -42.2392 N.am      3 UNK        -0.5000 
     60 C          -0.6570  -16.5096  -41.9540 C.2       2 UNK         0.5000 
     61 O          -0.0317  -16.3423  -40.9073 O.2       2 UNK        -0.5000 
     62 CA         -0.1016  -17.4608  -43.0300 C.3       2 UNK         0.1400 
     63 CB         -0.8048  -18.8229  -42.9416 C.3       2 UNK        -0.1800 
     64 N          -0.2516  -16.9284  -44.3851 N.am      2 UNK        -0.5000 
     65 C           0.3889  -15.8469  -44.8505 C.2       1 UNK         0.5000 
     66 O           1.2324  -15.2230  -44.2077 O.2       1 UNK        -0.5000 
     67 C          -1.7139  -21.5491  -45.5482 C.2       11 UNK         0.5000 
     68 O          -2.5289  -21.2248  -46.4105 O.2       11 UNK        -0.5000 
     69 N          -2.0512  -21.7275  -44.2594 N.am      12 UNK        -0.5000 
     70 CA         -3.4367  -21.7462  -43.7822 C.3       12 UNK         0.1400 
     71 CB         -3.4745  -21.4833  -42.2689 C.3       12 UNK        -0.1800 
     72 C          -4.1382  -23.0787  -44.1091 C.2       12 UNK         0.5000 
     73 O          -5.3516  -23.0854  -44.3166 O.2       12 UNK        -0.5000 
     74 N          -3.3690  -24.1765  -44.1543 N.am      13 UNK        -0.5000 
     75 CA         -3.8371  -25.4976  -44.5696 C.3       13 UNK         0.1400 
     76 CB         -3.0066  -26.5864  -43.8712 C.3       13 UNK        -0.1800 
     77 C          -3.7578  -25.6270  -46.0981 C.2       13 UNK         0.5000 
     78 O          -4.7523  -25.9674  -46.7398 O.2       13 UNK        -0.5000 
     79 N          -2.5915  -25.2886  -46.6635 N.am      14 UNK        -0.5000 
     80 CA         -2.3280  -25.2079  -48.0994 C.3       14 UNK         0.1400 
     81 CB         -0.8257  -25.4413  -48.3420 C.3       14 UNK        -0.1800 
     82 C          -2.8211  -23.8625  -48.6689 C.2       14 UNK         0.5000 
     83 O          -2.0417  -23.1063  -49.2528 O.2       14 UNK        -0.5000 
     84 N          -4.1155  -23.5803  -48.4743 N.am      15 UNK        -0.5000 
     85 CA         -4.8016  -22.3354  -48.8253 C.3       15 UNK         0.1400 
     86 CB         -6.0725  -22.2148  -47.9665 C.3       15 UNK        -0.1800 
     87 C          -5.0913  -22.2075  -50.3358 C.2       15 UNK         0.5000 
     88 O          -6.2139  -21.8929  -50.7348 O.2       15 UNK        -0.5000 
     89 N          -4.0591  -22.4251  -51.1599 N.am      16 UNK        -0.5000 
     90 CA         -4.0933  -22.3342  -52.6219 C.3       16 UNK         0.1400 
     91 CB         -2.7754  -22.8911  -53.1808 C.3       16 UNK        -0.1800 
     92 C          -4.3653  -20.9103  -53.1492 C.2       16 UNK         0.5000 
     93 O          -4.7525  -20.7597  -54.3066 O.2       16 UNK        -0.5000 
     94 N          -4.1908  -19.9011  -52.2819 N.am      17 UNK        -0.5000 
     95 CA         -4.5011  -18.4874  -52.5085 C.3       17 UNK         0.1400 
     96 CB         -4.0040  -17.6797  -51.2965 C.3       17 UNK        -0.1800 
     97 C          -5.9994  -18.2036  -52.7393 C.2       17 UNK         0.5000 
     98 O          -6.3354  -17.1567  -53.2932 O.2       17 UNK        -0.5000 
     99 N          -6.8725  -19.1282  -52.3140 N.am      18 UNK        -0.5000 
    100 CA        -8.3235  -19.0596  -52.4958 C.3       18 UNK         0.1400 
    101 CB        -8.9835  -20.0494  -51.5223 C.3       18 UNK        -0.1800 
    102 C         -8.7840  -19.3356  -53.9437 C.2       18 UNK         0.5000 
    103 O         -9.9650  -19.1476  -54.2407 O.2       18 UNK        -0.5000 
    104 N         -7.8704  -19.7859  -54.8115 N.am      19 UNK        -0.5000 
    105 CA        -8.1177  -20.1183  -56.2094 C.3       19 UNK         0.1400 
    106 CB        -8.4416  -21.6232  -56.3068 C.3       19 UNK        -0.1800 
    107 C         -6.8965  -19.7267  -57.0603 C.2       19 UNK         0.5000 
    108 O         -5.9733  -19.0740  -56.5693 O.2       19 UNK        -0.5000 
    109 N         -6.8961  -20.1619  -58.3258 N.am      20 UNK        -0.5000 
    110 CA        -5.7750  -20.0339  -59.2634 C.3       20 UNK         0.1400 
    111 CB        -6.3365  -20.0473  -60.6956 C.3       20 UNK        -0.1800 
    112 C         -4.7016  -21.1321  -59.0748 C.2       20 UNK         0.5000 
    113 O         -3.7811  -21.2262  -59.8872 O.2       20 UNK        -0.5000 
    114 N         -4.8480  -21.9601  -58.0303 N.am      21 UNK        -0.5000 
    115 CA        -3.9854  -23.0948  -57.7009 C.3       21 UNK         0.1400 
    116 CB        -4.6750  -23.9295  -56.6095 C.3       21 UNK        -0.1800 
    117 C         -2.5633  -22.7020  -57.2562 C.2       21 UNK         0.5000 
    118 O         -1.6518  -23.5204  -57.3844 O.2       21 UNK        -0.5000 
    119 N         -2.3988  -21.4822  -56.7262 N.am      22 UNK        -0.5000 
    120 CA        -1.1076  -20.9252  -56.2983 C.3       22 UNK         0.1400 
    121 C         -0.1149  -20.7368  -57.4823 C.2       22 UNK         0.5000 
    122 N          1.1284  -21.1763  -57.3416 N.am      22 UNK        -0.7600 
    123 O         -0.4557  -20.1604  -58.5127 O.2       22 UNK        -0.5000 
    124 C124       -1.3012  -19.6031  -55.5129 C.3       23 UNK        -0.0398 
    125 S125        0.0688  -19.2992  -54.3435 S.3       23 UNK        -0.2404 
    126 C126       -0.8370  -19.1763  -52.7751 C.3       23 UNK        -0.0205 
    127 H127       -4.4061  -16.0757  -45.7767 H         1 UNK         0.0600 
    128 H128       -3.7542  -16.1500  -47.4171 H         1 UNK         0.0600 
    129 H129       -4.3817  -14.6248  -46.7844 H         1 UNK         0.0600 
    130 H130       -1.5217  -16.1723  -47.4630 H         1 UNK         0.3000 
    131 H131        0.1133  -14.2655  -46.2463 H         1 UNK         0.0600 
    132 H132        2.0291  -15.7109  -46.9902 H         1 UNK         0.0800 
    133 H133        0.8975  -16.9895  -47.3830 H         1 UNK         0.0800 
    134 H134        2.1906  -15.5963  -50.8511 H         1 UNK         0.0800 
    135 H135        2.9405  -16.1756  -49.3873 H         1 UNK         0.0800 
    136 H136        0.2863  -16.8623  -51.9016 H         1 UNK         0.1150 
    137 H137        0.1017  -21.0547  -51.0331 H         1 UNK         0.1150 
    138 H138        2.5523  -18.4695  -48.6455 H         1 UNK         0.1150 
    139 H139        1.0277  -21.9013  -48.9812 H         1 UNK         0.0800 
    140 H140        2.6916  -21.5181  -49.3493 H         1 UNK         0.0800 
    141 H141       -0.1883  -20.0452  -47.2886 H         1 UNK         0.0800 
    142 H142        0.4871  -19.7484  -45.7070 H         1 UNK         0.0800 
    143 H143       -0.2977  -22.4828  -46.8126 H         1 UNK         0.0600 
    144 H144        1.2503  -21.8725  -44.4671 H         1 UNK         0.3000 
    145 H145        0.7059  -24.9927  -42.8529 H         1 UNK         0.0600 
    146 H146        3.1395  -25.3712  -43.1558 H         1 UNK         0.0600 
    147 H147        2.2916  -25.7119  -44.6555 H         1 UNK         0.0600 
    148 H148        3.1852  -24.2059  -44.4801 H         1 UNK         0.0600 
    149 H149        2.6713  -23.0555  -42.3292 H         1 UNK         0.3000 
    150 H150        0.8389  -20.4263  -40.9698 H         1 UNK         0.0600 
    151 H151        2.2224  -22.5815  -39.2892 H         1 UNK         0.0600 
    152 H152        0.5726  -22.0152  -39.0576 H         1 UNK         0.0600 
    153 H153        1.9156  -20.9149  -38.7976 H         1 UNK         0.0600 
    154 H154        3.5574  -20.9618  -40.6559 H         1 UNK         0.3000 
    155 H155        5.0134  -19.6262  -41.8647 H         1 UNK         0.0600 
    156 H156        5.0526  -21.8319  -44.0059 H         1 UNK         0.0600 
    157 H157        5.3261  -22.0775  -42.2854 H         1 UNK         0.0600 
    158 H158        6.4726  -21.1375  -43.2233 H         1 UNK         0.0600 
    159 H159        5.2565  -19.4912  -44.7048 H         1 UNK         0.3000 
    160 H160        5.7765  -17.0525  -45.3141 H         1 UNK         0.0600 
    161 H161        2.9441  -17.8460  -46.2051 H         1 UNK         0.0600 
    162 H162        4.4407  -18.6681  -46.6160 H         1 UNK         0.0600 
    163 H163        4.1243  -17.0737  -47.2707 H         1 UNK         0.0600 
    164 H164        3.4579  -15.5951  -44.3286 H         1 UNK         0.3000 
    165 H165        4.9883  -12.5423  -44.8929 H         1 UNK         0.0600 
    166 H166        2.8923  -11.6940  -45.9355 H         1 UNK         0.0600 
    167 H167        3.8673  -12.5462  -47.1233 H         1 UNK         0.0600 
    168 H168        2.4506  -13.3254  -46.4314 H         1 UNK         0.0600 
    169 H169        2.4020  -13.6954  -44.0065 H         1 UNK         0.3000 
    170 H170        2.7577  -14.6708  -41.3915 H         1 UNK         0.0600 
    171 H171        4.0702  -13.3717  -39.7771 H         1 UNK         0.0600 
    172 H172        3.2300  -11.8878  -40.1992 H         1 UNK         0.0600 
    173 H173        2.3652  -13.1978  -39.3952 H         1 UNK         0.0600 
    174 H174        0.7833  -14.0130  -42.0951 H         1 UNK         0.3000 
    175 H175       -1.0353  -11.1097  -42.2499 H         1 UNK         0.0600 
    176 H176        0.0230  -10.6784  -44.4532 H         1 UNK         0.0600 
    177 H177        0.0566  -12.3994  -44.8087 H         1 UNK         0.0600 
    178 H178       -1.4846  -11.5533  -44.6777 H         1 UNK         0.0600 
    179 H179       -1.4948  -13.7165  -43.3728 H         1 UNK         0.3000 
    180 H180       -2.4471  -15.3202  -40.3354 H         1 UNK         0.0600 
    181 H181       -4.0658  -14.4337  -42.7850 H         1 UNK         0.0600 
    182 H182       -4.4879  -14.1229  -41.1062 H         1 UNK         0.0600 
    183 H183       -4.4668  -15.7725  -41.7099 H         1 UNK         0.0600 
    184 H184       -2.2306  -16.0354  -43.1480 H         1 UNK         0.3000 
    185 H185        0.9624  -17.6079  -42.8296 H         1 UNK         0.0600 
    186 H186       -0.8584  -19.1740  -41.9110 H         1 UNK         0.0600 
    187 H187       -1.8261  -18.7766  -43.3210 H         1 UNK         0.0600 
    188 H188       -0.2673  -19.5797  -43.5090 H         1 UNK         0.0600 
    189 H189       -0.9407  -17.3677  -44.9765 H         1 UNK         0.3000 
    190 H190       -1.3379  -21.9778  -43.5830 H         1 UNK         0.3000 
    191 H191       -3.9900  -20.9440  -44.2754 H         1 UNK         0.0600 
    192 H192       -2.9756  -20.5503  -42.0111 H         1 UNK         0.0600 
    193 H193       -4.5035  -21.4077  -41.9157 H         1 UNK         0.0600 
    194 H194       -2.9980  -22.2866  -41.7066 H         1 UNK         0.0600 
    195 H195       -2.3728  -24.0768  -44.0148 H         1 UNK         0.3000 
    196 H196       -4.8793  -25.6282  -44.2700 H         1 UNK         0.0600 
    197 H197       -3.3489  -27.5808  -44.1603 H         1 UNK         0.0600 
    198 H198       -3.0981  -26.5139  -42.7874 H         1 UNK         0.0600 
    199 H199       -1.9475  -26.5196  -44.1211 H         1 UNK         0.0600 
    200 H200       -1.8242  -25.0028  -46.0579 H         1 UNK         0.3000 
    201 H201       -2.8757  -26.0015  -48.6118 H         1 UNK         0.0600 
    202 H202       -0.5949  -25.4304  -49.4078 H         1 UNK         0.0600 
    203 H203       -0.5102  -26.4088  -47.9515 H         1 UNK         0.0600 
    204 H204       -0.2141  -24.6749  -47.8651 H         1 UNK         0.0600 
    205 H205       -4.6733  -24.2786  -47.9965 H         1 UNK         0.3000 
    206 H206       -4.1486  -21.5009  -48.5633 H         1 UNK         0.0600 
    207 H207       -5.8306  -22.2380  -46.9041 H         1 UNK         0.0600 
    208 H208       -6.5898  -21.2735  -48.1570 H         1 UNK         0.0600 
    209 H209       -6.7738  -23.0250  -48.1696 H         1 UNK         0.0600 
    210 H210       -3.1689  -22.6655  -50.7317 H         1 UNK         0.3000 
    211 H211       -4.9092  -22.9665  -52.9778 H         1 UNK         0.0600 
    212 H212       -1.9105  -22.3418  -52.8099 H         1 UNK         0.0600 
    213 H213       -2.7568  -22.8406  -54.2685 H         1 UNK         0.0600 
    214 H214       -2.6457  -23.9381  -52.9065 H         1 UNK         0.0600 
    215 H215       -3.8747  -20.1413  -51.3545 H         1 UNK         0.3000 
    216 H216       -3.9611  -18.1616  -53.3996 H         1 UNK         0.0600 
    217 H217       -4.1331  -16.6094  -51.4626 H         1 UNK         0.0600 
    218 H218       -2.9469  -17.8495  -51.0967 H         1 UNK         0.0600 
    219 H219       -4.5551  -17.9379  -50.3912 H         1 UNK         0.0600 
    220 H220       -6.5187  -19.9639  -51.8641 H         1 UNK         0.3000 
    221 H221       -8.6560  -18.0527  -52.2351 H         1 UNK         0.0600 
    222 H222       -8.7052  -21.0794  -51.7488 H         1 UNK         0.0600 
    223 H223       -8.6941  -19.8437  -50.4915 H         1 UNK         0.0600 
    224 H224      -10.0711  -19.9845  -51.5729 H         1 UNK         0.0600 
    225 H225       -6.9002  -19.8496  -54.5243 H         1 UNK         0.3000 
    226 H226       -8.9651  -19.5415  -56.5854 H         1 UNK         0.0600 
    227 H227       -8.7141  -21.9145  -57.3214 H         1 UNK         0.0600 
    228 H228       -7.5931  -22.2365  -56.0001 H         1 UNK         0.0600 
    229 H229       -9.2853  -21.8842  -55.6675 H         1 UNK         0.0600 
    230 H230       -7.6912  -20.6885  -58.6590 H         1 UNK         0.3000 
    231 H231       -5.2828  -19.0725  -59.1028 H         1 UNK         0.0600 
    232 H232       -6.8159  -20.9983  -60.9307 H         1 UNK         0.0600 
    233 H233       -5.5466  -19.8869  -61.4305 H         1 UNK         0.0600 
    234 H234       -7.0722  -19.2555  -60.8380 H         1 UNK         0.0600 
    235 H235       -5.6250  -21.7959  -57.4093 H         1 UNK         0.3000 
    236 H236       -3.8875  -23.7132  -58.5955 H         1 UNK         0.0600 
    237 H237       -5.6387  -24.3075  -56.9516 H         1 UNK         0.0600 
    238 H238       -4.0684  -24.7929  -56.3328 H         1 UNK         0.0600 
    239 H239       -4.8464  -23.3448  -55.7049 H         1 UNK         0.0600 
    240 H240       -3.2042  -20.8769  -56.6560 H         1 UNK         0.3000 
    241 H241       -0.6838  -21.6635  -55.6139 H         1 UNK         0.0600 
    242 H242        1.4325  -21.6340  -56.4961 H         1 UNK         0.3800 
    243 H243        1.7835  -21.0471  -58.0970 H         1 UNK         0.3800 
    244 H244       -1.3997  -18.7479  -56.1842 H         1 UNK         0.0800 
    245 H245       -2.2341  -19.6373  -54.9495 H         1 UNK         0.0800 
    246 H246       -1.5275  -18.3362  -52.8399 H         1 UNK         0.0800 
    247 H247       -1.4371  -20.0727  -52.6289 H         1 UNK         0.0800 
@<TRIPOS>BOND
     1    1    2 1    
     2    1  127 1    
     3    1  128 1    
     4    1  129 1    
     5    2    3 2    
     6    2    4 am   BACKBONE|DICT|INTERRES
     7    4    5 1    
     8    4  130 1    
     9    5    6 1    
    10    5   65 1    
    11    5  131 1    
    12    6    7 1    
    13    6  132 1    
    14    6  133 1    
    15    7    8 1    
    16    8    9 1    
    17    8  134 1    
    18    8  135 1    
    19    9   10 ar   
    20    9   14 ar   
    21   10   11 ar   
    22   10  136 1    
    23   11   12 ar   
    24   11  126 1    
    25   12   13 ar   
    26   12  137 1    
    27   13   14 ar   
    28   13   15 1    
    29   14  138 1    
    30   15   16 1    
    31   15  139 1    
    32   15  140 1    
    33   16   17 1    
    34   17   18 1    
    35   17  141 1    
    36   17  142 1    
    37   18   19 1    
    38   18   67 1    
    39   18  143 1    
    40   19   20 am   BACKBONE|DICT|INTERRES
    41   19  144 1    
    42   20   21 2    
    43   20   22 1    
    44   22   23 1    
    45   22   24 1    
    46   22  145 1    
    47   23  146 1    
    48   23  147 1    
    49   23  148 1    
    50   24   25 am   BACKBONE|DICT|INTERRES
    51   24  149 1    
    52   25   26 2    
    53   25   27 1    
    54   27   28 1    
    55   27   29 1    
    56   27  150 1    
    57   28  151 1    
    58   28  152 1    
    59   28  153 1    
    60   29   30 am   BACKBONE|DICT|INTERRES
    61   29  154 1    
    62   30   31 2    
    63   30   32 1    
    64   32   33 1    
    65   32   34 1    
    66   32  155 1    
    67   33  156 1    
    68   33  157 1    
    69   33  158 1    
    70   34   35 am   BACKBONE|DICT|INTERRES
    71   34  159 1    
    72   35   36 2    
    73   35   37 1    
    74   37   38 1    
    75   37   39 1    
    76   37  160 1    
    77   38  161 1    
    78   38  162 1    
    79   38  163 1    
    80   39   40 am   BACKBONE|DICT|INTERRES
    81   39  164 1    
    82   40   41 2    
    83   40   42 1    
    84   42   43 1    
    85   42   44 1    
    86   42  165 1    
    87   43  166 1    
    88   43  167 1    
    89   43  168 1    
    90   44   45 am   BACKBONE|DICT|INTERRES
    91   44  169 1    
    92   45   46 2    
    93   45   47 1    
    94   47   48 1    
    95   47   49 1    
    96   47  170 1    
    97   48  171 1    
    98   48  172 1    
    99   48  173 1    
   100   49   50 am   BACKBONE|DICT|INTERRES
   101   49  174 1    
   102   50   51 2    
   103   50   52 1    
   104   52   53 1    
   105   52   54 1    
   106   52  175 1    
   107   53  176 1    
   108   53  177 1    
   109   53  178 1    
   110   54   55 am   BACKBONE|DICT|INTERRES
   111   54  179 1    
   112   55   56 2    
   113   55   57 1    
   114   57   58 1    
   115   57   59 1    
   116   57  180 1    
   117   58  181 1    
   118   58  182 1    
   119   58  183 1    
   120   59   60 am   BACKBONE|DICT|INTERRES
   121   59  184 1    
   122   60   61 2    
   123   60   62 1    
   124   62   63 1    
   125   62   64 1    
   126   62  185 1    
   127   63  186 1    
   128   63  187 1    
   129   63  188 1    
   130   64   65 am   BACKBONE|DICT|INTERRES
   131   64  189 1    
   132   65   66 2    
   133   67   68 2    
   134   67   69 am   BACKBONE|DICT|INTERRES
   135   69   70 1    
   136   69  190 1    
   137   70   71 1    
   138   70   72 1    
   139   70  191 1    
   140   71  192 1    
   141   71  193 1    
   142   71  194 1    
   143   72   73 2    
   144   72   74 am   BACKBONE|DICT|INTERRES
   145   74   75 1    
   146   74  195 1    
   147   75   76 1    
   148   75   77 1    
   149   75  196 1    
   150   76  197 1    
   151   76  198 1    
   152   76  199 1    
   153   77   78 2    
   154   77   79 am   BACKBONE|DICT|INTERRES
   155   79   80 1    
   156   79  200 1    
   157   80   81 1    
   158   80   82 1    
   159   80  201 1    
   160   81  202 1    
   161   81  203 1    
   162   81  204 1    
   163   82   83 2    
   164   82   84 am   BACKBONE|DICT|INTERRES
   165   84   85 1    
   166   84  205 1    
   167   85   86 1    
   168   85   87 1    
   169   85  206 1    
   170   86  207 1    
   171   86  208 1    
   172   86  209 1    
   173   87   88 2    
   174   87   89 am   BACKBONE|DICT|INTERRES
   175   89   90 1    
   176   89  210 1    
   177   90   91 1    
   178   90   92 1    
   179   90  211 1    
   180   91  212 1    
   181   91  213 1    
   182   91  214 1    
   183   92   93 2    
   184   92   94 am   BACKBONE|DICT|INTERRES
   185   94   95 1    
   186   94  215 1    
   187   95   96 1    
   188   95   97 1    
   189   95  216 1    
   190   96  217 1    
   191   96  218 1    
   192   96  219 1    
   193   97   98 2    
   194   97   99 am   BACKBONE|DICT|INTERRES
   195   99  100 1    
   196   99  220 1    
   197  100  101 1    
   198  100  102 1    
   199  100  221 1    
   200  101  222 1    
   201  101  223 1    
   202  101  224 1    
   203  102  103 2    
   204  102  104 am   BACKBONE|DICT|INTERRES
   205  104  105 1    
   206  104  225 1    
   207  105  106 1    
   208  105  107 1    
   209  105  226 1    
   210  106  227 1    
   211  106  228 1    
   212  106  229 1    
   213  107  108 2    
   214  107  109 am   BACKBONE|DICT|INTERRES
   215  109  110 1    
   216  109  230 1    
   217  110  111 1    
   218  110  112 1    
   219  110  231 1    
   220  111  232 1    
   221  111  233 1    
   222  111  234 1    
   223  112  113 2    
   224  112  114 am   BACKBONE|DICT|INTERRES
   225  114  115 1    
   226  114  235 1    
   227  115  116 1    
   228  115  117 1    
   229  115  236 1    
   230  116  237 1    
   231  116  238 1    
   232  116  239 1    
   233  117  118 2    
   234  117  119 am   BACKBONE|DICT|INTERRES
   235  119  120 1    
   236  119  240 1    
   237  120  121 1    
   238  120  124 1    
   239  120  241 1    
   240  121  122 am   BACKBONE|DICT|INTERRES
   241  121  123 2    
   242  122  242 1    
   243  122  243 1    
   244  124  125 1    
   245  124  244 1    
   246  124  245 1    
   247  125  126 1    
   248  126  246 1    
   249  126  247 1    
@<TRIPOS>SUBSTRUCTURE
     1 UNK         1 GROUP             0       ****    0 ROOT    
