@<TRIPOS>MOLECULE
3R540
247   249    1
SMALL
USER_CHARGES


@<TRIPOS>ATOM
      1 CA          2.3865  -21.9099  -41.9976 C.3       0 UNK        -0.1800 
      2 C           1.1581  -21.7210  -42.8748 C.2       0 UNK         0.5000 
      3 O           1.0047  -20.6688  -43.4893 O.2       0 UNK        -0.5000 
      4 N           0.2857  -22.7371  -42.9317 N.am      1 UNK        -0.5000 
      5 CA         -0.9613  -22.7822  -43.7152 C.3       1 UNK         0.1400 
      6 C6         -0.7412  -22.6559  -45.2507 C.3       23 UNK        -0.0398 
      7 S7          0.0472  -24.1492  -45.9467 S.3       23 UNK        -0.2404 
      8 C8          1.7867  -23.6460  -46.1524 C.3       23 UNK        -0.0205 
      9 C9          2.0647  -22.9524  -47.4809 C.ar      23 UNK        -0.0193 
     10 C10         1.9018  -23.6435  -48.6861 C.ar      23 UNK        -0.1150 
     11 C11         2.2214  -23.0366  -49.9047 C.ar      23 UNK        -0.0193 
     12 C12         2.7377  -21.7378  -49.9083 C.ar      23 UNK        -0.1150 
     13 C13         2.9052  -21.0284  -48.7117 C.ar      23 UNK        -0.0193 
     14 C14         2.5528  -21.6426  -47.5049 C.ar      23 UNK        -0.1150 
     15 C15         3.5283  -19.6324  -48.6646 C.3       23 UNK        -0.0205 
     16 S16         3.4155  -18.6407  -50.1953 S.3       23 UNK        -0.2404 
     17 C17         1.6167  -18.4398  -50.4462 C.3       23 UNK        -0.0398 
     18 CA          0.8151  -17.9369  -49.2131 C.3       11 UNK         0.1400 
     19 N           1.3718  -16.7323  -48.5780 N.am      11 UNK        -0.5000 
     20 C           1.5628  -15.5280  -49.1353 C.2       10 UNK         0.5000 
     21 O           1.2758  -15.2574  -50.3010 O.2       10 UNK        -0.5000 
     22 CA          2.1249  -14.4235  -48.2232 C.3       10 UNK         0.1400 
     23 CB          0.9849  -13.7393  -47.4522 C.3       10 UNK        -0.1800 
     24 N           3.1269  -14.9016  -47.2703 N.am      10 UNK        -0.5000 
     25 C           4.3833  -15.2347  -47.6006 C.2       9 UNK         0.5000 
     26 O           4.8118  -15.2302  -48.7548 O.2       9 UNK        -0.5000 
     27 CA          5.3264  -15.6158  -46.4480 C.3       9 UNK         0.1400 
     28 CB          5.8101  -14.3600  -45.7051 C.3       9 UNK        -0.1800 
     29 N           4.6636  -16.5081  -45.5012 N.am      9 UNK        -0.5000 
     30 C           4.7885  -17.8422  -45.4957 C.2       8 UNK         0.5000 
     31 O           5.5460  -18.4616  -46.2422 O.2       8 UNK        -0.5000 
     32 CA          3.9230  -18.6258  -44.4891 C.3       8 UNK         0.1400 
     33 CB          4.7557  -19.0237  -43.2614 C.3       8 UNK        -0.1800 
     34 N           2.7421  -17.8818  -44.0509 N.am      8 UNK        -0.5000 
     35 C           1.6835  -17.6206  -44.8320 C.2       7 UNK         0.5000 
     36 O           1.5906  -17.9881  -46.0014 O.2       7 UNK        -0.5000 
     37 CA          0.5647  -16.7439  -44.2429 C.3       7 UNK         0.1400 
     38 CB         -0.5631  -17.6194  -43.6886 C.3       7 UNK        -0.1800 
     39 N           1.0271  -15.8238  -43.2032 N.am      7 UNK        -0.5000 
     40 C           1.9163  -14.8388  -43.3992 C.2       6 UNK         0.5000 
     41 O           2.4282  -14.5958  -44.4932 O.2       6 UNK        -0.5000 
     42 CA          2.3459  -14.0232  -42.1648 C.3       6 UNK         0.1400 
     43 CB          1.5062  -12.7424  -42.0544 C.3       6 UNK        -0.1800 
     44 N           2.2567  -14.7651  -40.9039 N.am      6 UNK        -0.5000 
     45 C           2.9389  -15.8826  -40.6113 C.2       5 UNK         0.5000 
     46 O           3.7323  -16.4175  -41.3851 O.2       5 UNK        -0.5000 
     47 CA          2.6672  -16.5290  -39.2389 C.3       5 UNK         0.1400 
     48 CB          3.7309  -16.0916  -38.2207 C.3       5 UNK        -0.1800 
     49 N           1.3357  -16.2338  -38.6990 N.am      5 UNK        -0.5000 
     50 C           0.1872  -16.6640  -39.2364 C.2       4 UNK         0.5000 
     51 O           0.1210  -17.3212  -40.2769 O.2       4 UNK        -0.5000 
     52 CA         -1.1079  -16.2543  -38.5178 C.3       4 UNK         0.1400 
     53 CB         -1.8519  -15.1803  -39.3271 C.3       4 UNK        -0.1800 
     54 N          -1.9780  -17.4142  -38.3490 N.am      4 UNK        -0.5000 
     55 C          -1.8346  -18.3447  -37.3950 C.2       3 UNK         0.5000 
     56 O          -1.0064  -18.2705  -36.4863 O.2       3 UNK        -0.5000 
     57 CA         -2.7708  -19.5683  -37.4733 C.3       3 UNK         0.1400 
     58 CB         -4.0389  -19.3320  -36.6385 C.3       3 UNK        -0.1800 
     59 N          -3.1541  -19.8943  -38.8497 N.am      3 UNK        -0.5000 
     60 C          -2.3224  -20.4336  -39.7499 C.2       2 UNK         0.5000 
     61 O          -1.1782  -20.8159  -39.4849 O.2       2 UNK        -0.5000 
     62 CA         -2.8512  -20.5330  -41.1887 C.3       2 UNK         0.1400 
     63 CB         -3.0658  -19.1269  -41.7818 C.3       2 UNK        -0.1800 
     64 N          -1.8834  -21.2939  -41.9723 N.am      2 UNK        -0.5000 
     65 C          -2.0726  -21.8445  -43.1769 C.2       1 UNK         0.5000 
     66 O          -3.1069  -21.6926  -43.8279 O.2       1 UNK        -0.5000 
     67 C          -0.6907  -17.8361  -49.5488 C.2       11 UNK         0.5000 
     68 O          -1.2425  -18.8007  -50.0738 O.2       11 UNK        -0.5000 
     69 N          -1.3506  -16.7105  -49.2370 N.am      12 UNK        -0.5000 
     70 CA         -2.7382  -16.4174  -49.6112 C.3       12 UNK         0.1400 
     71 CB         -3.0805  -14.9786  -49.1982 C.3       12 UNK        -0.1800 
     72 C          -3.7656  -17.4061  -49.0317 C.2       12 UNK         0.5000 
     73 O          -4.7268  -17.7554  -49.7193 O.2       12 UNK        -0.5000 
     74 N          -3.5222  -17.8588  -47.7943 N.am      13 UNK        -0.5000 
     75 CA         -4.3361  -18.8587  -47.1030 C.3       13 UNK         0.1400 
     76 CB         -3.9875  -18.8476  -45.6081 C.3       13 UNK        -0.1800 
     77 C          -4.1558  -20.2708  -47.6888 C.2       13 UNK         0.5000 
     78 O          -5.1287  -21.0198  -47.7739 O.2       13 UNK        -0.5000 
     79 N          -2.9246  -20.5943  -48.1103 N.am      14 UNK        -0.5000 
     80 CA         -2.5759  -21.8532  -48.7706 C.3       14 UNK         0.1400 
     81 CB         -1.0493  -21.9941  -48.8290 C.3       14 UNK        -0.1800 
     82 C          -3.1530  -21.9218  -50.1913 C.2       14 UNK         0.5000 
     83 O          -3.6988  -22.9502  -50.5892 O.2       14 UNK        -0.5000 
     84 N          -3.0300  -20.8002  -50.9106 N.am      15 UNK        -0.5000 
     85 CA         -3.4874  -20.6112  -52.2800 C.3       15 UNK         0.1400 
     86 CB         -2.7600  -19.3894  -52.8638 C.3       15 UNK        -0.1800 
     87 C          -5.0112  -20.4412  -52.4113 C.2       15 UNK         0.5000 
     88 O          -5.5107  -20.4242  -53.5371 O.2       15 UNK        -0.5000 
     89 N          -5.7114  -20.2622  -51.2811 N.am      16 UNK        -0.5000 
     90 CA         -7.1484  -19.9997  -51.1599 C.3       16 UNK         0.1400 
     91 CB         -7.9581  -21.2483  -51.5689 C.3       16 UNK        -0.1800 
     92 C          -7.5626  -18.7293  -51.9303 C.2       16 UNK         0.5000 
     93 O          -8.5094  -18.7605  -52.7162 O.2       16 UNK        -0.5000 
     94 N          -6.7897  -17.6494  -51.7368 N.am      17 UNK        -0.5000 
     95 CA         -6.8712  -16.3724  -52.4586 C.3       17 UNK         0.1400 
     96 CB         -8.1755  -15.6249  -52.1115 C.3       17 UNK        -0.1800 
     97 C          -6.6462  -16.5334  -53.9806 C.2       17 UNK         0.5000 
     98 O          -7.3118  -15.8776  -54.7834 O.2       17 UNK        -0.5000 
     99 N          -5.7052  -17.4222  -54.3322 N.am      18 UNK        -0.5000 
    100 CA        -5.2821  -17.8176  -55.6812 C.3       18 UNK         0.1400 
    101 CB        -4.7674  -16.6101  -56.4923 C.3       18 UNK        -0.1800 
    102 C         -6.3123  -18.6675  -56.4550 C.2       18 UNK         0.5000 
    103 O         -6.1677  -18.8297  -57.6679 O.2       18 UNK        -0.5000 
    104 N         -7.3069  -19.2342  -55.7571 N.am      19 UNK        -0.5000 
    105 CA        -8.2734  -20.1756  -56.3272 C.3       19 UNK         0.1400 
    106 CB        -9.5212  -20.2314  -55.4340 C.3       19 UNK        -0.1800 
    107 C         -7.6894  -21.5899  -56.5167 C.2       19 UNK         0.5000 
    108 O         -8.1650  -22.3250  -57.3832 O.2       19 UNK        -0.5000 
    109 N         -6.6812  -21.9503  -55.7133 N.am      20 UNK        -0.5000 
    110 CA        -6.0194  -23.2508  -55.7175 C.3       20 UNK         0.1400 
    111 CB        -6.7996  -24.2312  -54.8203 C.3       20 UNK        -0.1800 
    112 C         -4.5677  -23.0433  -55.2656 C.2       20 UNK         0.5000 
    113 O         -4.2022  -23.4422  -54.1598 O.2       20 UNK        -0.5000 
    114 N         -3.7893  -22.3524  -56.1099 N.am      21 UNK        -0.5000 
    115 CA        -2.4333  -21.8467  -55.8664 C.3       21 UNK         0.1400 
    116 CB        -2.0845  -20.8485  -56.9853 C.3       21 UNK        -0.1800 
    117 C         -1.3457  -22.9297  -55.6708 C.2       21 UNK         0.5000 
    118 O         -0.4030  -23.0058  -56.4605 O.2       21 UNK        -0.5000 
    119 N         -1.4936  -23.7392  -54.6150 N.am      22 UNK        -0.5000 
    120 CA        -0.5713  -24.7996  -54.1648 C.3       22 UNK         0.1400 
    121 C         -0.4307  -26.0057  -55.1473 C.2       22 UNK         0.5000 
    122 N         -1.3307  -26.1887  -56.1060 N.am      22 UNK        -0.7600 
    123 O          0.4852  -26.8144  -55.0219 O.2       22 UNK        -0.5000 
    124 C124        0.8032  -24.2429  -53.6882 C.3       23 UNK        -0.0398 
    125 S125        0.6671  -23.1665  -52.2145 S.3       23 UNK        -0.2404 
    126 C126        2.0565  -23.7963  -51.2143 C.3       23 UNK        -0.0205 
    127 H127        3.2872  -21.9054  -42.6113 H         1 UNK         0.0600 
    128 H128        2.3527  -22.8511  -41.4485 H         1 UNK         0.0600 
    129 H129        2.4585  -21.0971  -41.2749 H         1 UNK         0.0600 
    130 H130        0.4777  -23.5722  -42.3960 H         1 UNK         0.3000 
    131 H131       -1.3666  -23.7792  -43.5356 H         1 UNK         0.0600 
    132 H132       -0.1640  -21.7666  -45.5048 H         1 UNK         0.0800 
    133 H133       -1.6937  -22.5489  -45.7718 H         1 UNK         0.0800 
    134 H134        2.4088  -24.5402  -46.0987 H         1 UNK         0.0800 
    135 H135        2.0906  -23.0204  -45.3133 H         1 UNK         0.0800 
    136 H136        1.5286  -24.6579  -48.6709 H         1 UNK         0.1150 
    137 H137        3.0168  -21.2920  -50.8518 H         1 UNK         0.1150 
    138 H138        2.6920  -21.1094  -46.5750 H         1 UNK         0.1150 
    139 H139        3.1055  -19.0578  -47.8418 H         1 UNK         0.0800 
    140 H140        4.5860  -19.7535  -48.4295 H         1 UNK         0.0800 
    141 H141        1.2272  -19.4032  -50.7804 H         1 UNK         0.0800 
    142 H142        1.4795  -17.7601  -51.2885 H         1 UNK         0.0800 
    143 H143        0.8655  -18.7178  -48.4544 H         1 UNK         0.0600 
    144 H144        1.6343  -16.8671  -47.6067 H         1 UNK         0.3000 
    145 H145        2.5943  -13.6738  -48.8639 H         1 UNK         0.0600 
    146 H146        1.3579  -12.9049  -46.8578 H         1 UNK         0.0600 
    147 H147        0.2329  -13.3411  -48.1347 H         1 UNK         0.0600 
    148 H148        0.4827  -14.4306  -46.7752 H         1 UNK         0.0600 
    149 H149        2.8662  -14.8751  -46.2880 H         1 UNK         0.3000 
    150 H150        6.2024  -16.1055  -46.8789 H         1 UNK         0.0600 
    151 H151        6.3162  -13.6750  -46.3864 H         1 UNK         0.0600 
    152 H152        6.5188  -14.6185  -44.9182 H         1 UNK         0.0600 
    153 H153        4.9849  -13.8153  -45.2449 H         1 UNK         0.0600 
    154 H154        3.9995  -16.0823  -44.8678 H         1 UNK         0.3000 
    155 H155        3.5819  -19.5394  -44.9796 H         1 UNK         0.0600 
    156 H156        5.2045  -18.1541  -42.7806 H         1 UNK         0.0600 
    157 H157        5.5672  -19.6952  -43.5441 H         1 UNK         0.0600 
    158 H158        4.1479  -19.5396  -42.5189 H         1 UNK         0.0600 
    159 H159        2.7631  -17.5127  -43.1088 H         1 UNK         0.3000 
    160 H160        0.1563  -16.1451  -45.0588 H         1 UNK         0.0600 
    161 H161       -1.4070  -17.0142  -43.3581 H         1 UNK         0.0600 
    162 H162       -0.2190  -18.2190  -42.8452 H         1 UNK         0.0600 
    163 H163       -0.9306  -18.3115  -44.4466 H         1 UNK         0.0600 
    164 H164        0.6865  -15.9938  -42.2663 H         1 UNK         0.3000 
    165 H165        3.3900  -13.7391  -42.3107 H         1 UNK         0.0600 
    166 H166        1.8581  -12.1082  -41.2405 H         1 UNK         0.0600 
    167 H167        1.5673  -12.1548  -42.9716 H         1 UNK         0.0600 
    168 H168        0.4533  -12.9654  -41.8768 H         1 UNK         0.0600 
    169 H169        1.6269  -14.3981  -40.2062 H         1 UNK         0.3000 
    170 H170        2.7440  -17.6106  -39.3693 H         1 UNK         0.0600 
    171 H171        4.7345  -16.3218  -38.5811 H         1 UNK         0.0600 
    172 H172        3.6888  -15.0186  -38.0297 H         1 UNK         0.0600 
    173 H173        3.6030  -16.6085  -37.2694 H         1 UNK         0.0600 
    174 H174        1.3072  -15.6942  -37.8457 H         1 UNK         0.3000 
    175 H175       -0.8664  -15.8411  -37.5360 H         1 UNK         0.0600 
    176 H176       -2.1257  -15.5395  -40.3203 H         1 UNK         0.0600 
    177 H177       -2.7652  -14.8677  -38.8205 H         1 UNK         0.0600 
    178 H178       -1.2333  -14.2916  -39.4588 H         1 UNK         0.0600 
    179 H179       -2.6525  -17.5785  -39.0802 H         1 UNK         0.3000 
    180 H180       -2.2382  -20.4222  -37.0487 H         1 UNK         0.0600 
    181 H181       -4.6237  -18.4943  -37.0205 H         1 UNK         0.0600 
    182 H182       -3.7866  -19.1098  -35.6007 H         1 UNK         0.0600 
    183 H183       -4.6784  -20.2149  -36.6341 H         1 UNK         0.0600 
    184 H184       -4.0849  -19.6259  -39.1352 H         1 UNK         0.3000 
    185 H185       -3.7963  -21.0794  -41.1783 H         1 UNK         0.0600 
    186 H186       -3.9276  -18.6387  -41.3265 H         1 UNK         0.0600 
    187 H187       -2.2023  -18.4871  -41.6031 H         1 UNK         0.0600 
    188 H188       -3.2471  -19.1571  -42.8546 H         1 UNK         0.0600 
    189 H189       -1.0182  -21.4746  -41.4772 H         1 UNK         0.3000 
    190 H190       -0.8280  -15.9609  -48.8110 H         1 UNK         0.3000 
    191 H191       -2.8044  -16.4823  -50.6991 H         1 UNK         0.0600 
    192 H192       -4.1020  -14.7225  -49.4831 H         1 UNK         0.0600 
    193 H193       -2.4195  -14.2611  -49.6850 H         1 UNK         0.0600 
    194 H194       -2.9942  -14.8368  -48.1202 H         1 UNK         0.0600 
    195 H195       -2.7104  -17.5104  -47.3071 H         1 UNK         0.3000 
    196 H196       -5.3869  -18.5810  -47.2111 H         1 UNK         0.0600 
    197 H197       -4.6233  -19.5417  -45.0567 H         1 UNK         0.0600 
    198 H198       -4.1315  -17.8590  -45.1721 H         1 UNK         0.0600 
    199 H199       -2.9538  -19.1473  -45.4338 H         1 UNK         0.0600 
    200 H200       -2.1982  -19.8963  -48.0598 H         1 UNK         0.3000 
    201 H201       -2.9823  -22.6785  -48.1821 H         1 UNK         0.0600 
    202 H202       -0.5874  -21.8030  -47.8638 H         1 UNK         0.0600 
    203 H203       -0.5923  -21.3107  -49.5452 H         1 UNK         0.0600 
    204 H204       -0.7774  -23.0051  -49.1321 H         1 UNK         0.0600 
    205 H205       -2.5026  -20.0274  -50.5083 H         1 UNK         0.3000 
    206 H206       -3.2004  -21.4960  -52.8445 H         1 UNK         0.0600 
    207 H207       -1.6781  -19.5169  -52.8161 H         1 UNK         0.0600 
    208 H208       -3.0176  -19.2333  -53.9098 H         1 UNK         0.0600 
    209 H209       -3.0121  -18.4767  -52.3227 H         1 UNK         0.0600 
    210 H210       -5.1906  -20.2462  -50.4154 H         1 UNK         0.3000 
    211 H211       -7.3438  -19.8026  -50.1049 H         1 UNK         0.0600 
    212 H212       -7.6608  -22.1175  -50.9823 H         1 UNK         0.0600 
    213 H213       -7.8221  -21.4958  -52.6221 H         1 UNK         0.0600 
    214 H214       -9.0250  -21.0942  -51.4040 H         1 UNK         0.0600 
    215 H215       -6.0359  -17.7237  -51.0554 H         1 UNK         0.3000 
    216 H216       -6.0408  -15.7660  -52.0939 H         1 UNK         0.0600 
    217 H217       -8.1736  -14.6198  -52.5347 H         1 UNK         0.0600 
    218 H218       -8.2948  -15.5215  -51.0330 H         1 UNK         0.0600 
    219 H219       -9.0551  -16.1397  -52.4988 H         1 UNK         0.0600 
    220 H220       -5.2734  -17.9453  -53.5847 H         1 UNK         0.3000 
    221 H221       -4.4312  -18.4821  -55.5359 H         1 UNK         0.0600 
    222 H222       -5.5755  -15.9357  -56.7759 H         1 UNK         0.0600 
    223 H223       -4.0332  -16.0376  -55.9255 H         1 UNK         0.0600 
    224 H224       -4.2806  -16.9361  -57.4122 H         1 UNK         0.0600 
    225 H225       -7.3604  -19.0731  -54.7592 H         1 UNK         0.3000 
    226 H226       -8.5808  -19.8078  -57.3084 H         1 UNK         0.0600 
    227 H227      -10.2958  -20.8522  -55.8857 H         1 UNK         0.0600 
    228 H228       -9.2958  -20.6533  -54.4543 H         1 UNK         0.0600 
    229 H229       -9.9454  -19.2386  -55.2828 H         1 UNK         0.0600 
    230 H230       -6.3313  -21.2876  -55.0234 H         1 UNK         0.3000 
    231 H231       -5.9906  -23.6531  -56.7323 H         1 UNK         0.0600 
    232 H232       -7.8076  -24.3976  -55.2002 H         1 UNK         0.0600 
    233 H233       -6.8853  -23.8580  -53.7987 H         1 UNK         0.0600 
    234 H234       -6.3036  -25.2015  -54.7778 H         1 UNK         0.0600 
    235 H235       -4.1950  -22.0811  -56.9939 H         1 UNK         0.3000 
    236 H236       -2.4565  -21.2774  -54.9405 H         1 UNK         0.0600 
    237 H237       -2.8067  -20.0327  -57.0268 H         1 UNK         0.0600 
    238 H238       -1.1037  -20.4004  -56.8205 H         1 UNK         0.0600 
    239 H239       -2.0664  -21.3312  -57.9632 H         1 UNK         0.0600 
    240 H240       -2.3612  -23.6570  -54.0902 H         1 UNK         0.3000 
    241 H241       -1.0533  -25.2377  -53.2902 H         1 UNK         0.0600 
    242 H242       -2.0930  -25.5409  -56.2211 H         1 UNK         0.3800 
    243 H243       -1.2401  -26.9760  -56.7290 H         1 UNK         0.3800 
    244 H244        1.4784  -25.0636  -53.4423 H         1 UNK         0.0800 
    245 H245        1.2951  -23.6866  -54.4866 H         1 UNK         0.0800 
    246 H246        2.9794  -23.7178  -51.7908 H         1 UNK         0.0800 
    247 H247        1.9036  -24.8589  -51.0190 H         1 UNK         0.0800 
@<TRIPOS>BOND
     1    1    2 1    
     2    1  127 1    
     3    1  128 1    
     4    1  129 1    
     5    2    3 2    
     6    2    4 am   BACKBONE|DICT|INTERRES
     7    4    5 1    
     8    4  130 1    
     9    5    6 1    
    10    5   65 1    
    11    5  131 1    
    12    6    7 1    
    13    6  132 1    
    14    6  133 1    
    15    7    8 1    
    16    8    9 1    
    17    8  134 1    
    18    8  135 1    
    19    9   10 ar   
    20    9   14 ar   
    21   10   11 ar   
    22   10  136 1    
    23   11   12 ar   
    24   11  126 1    
    25   12   13 ar   
    26   12  137 1    
    27   13   14 ar   
    28   13   15 1    
    29   14  138 1    
    30   15   16 1    
    31   15  139 1    
    32   15  140 1    
    33   16   17 1    
    34   17   18 1    
    35   17  141 1    
    36   17  142 1    
    37   18   19 1    
    38   18   67 1    
    39   18  143 1    
    40   19   20 am   BACKBONE|DICT|INTERRES
    41   19  144 1    
    42   20   21 2    
    43   20   22 1    
    44   22   23 1    
    45   22   24 1    
    46   22  145 1    
    47   23  146 1    
    48   23  147 1    
    49   23  148 1    
    50   24   25 am   BACKBONE|DICT|INTERRES
    51   24  149 1    
    52   25   26 2    
    53   25   27 1    
    54   27   28 1    
    55   27   29 1    
    56   27  150 1    
    57   28  151 1    
    58   28  152 1    
    59   28  153 1    
    60   29   30 am   BACKBONE|DICT|INTERRES
    61   29  154 1    
    62   30   31 2    
    63   30   32 1    
    64   32   33 1    
    65   32   34 1    
    66   32  155 1    
    67   33  156 1    
    68   33  157 1    
    69   33  158 1    
    70   34   35 am   BACKBONE|DICT|INTERRES
    71   34  159 1    
    72   35   36 2    
    73   35   37 1    
    74   37   38 1    
    75   37   39 1    
    76   37  160 1    
    77   38  161 1    
    78   38  162 1    
    79   38  163 1    
    80   39   40 am   BACKBONE|DICT|INTERRES
    81   39  164 1    
    82   40   41 2    
    83   40   42 1    
    84   42   43 1    
    85   42   44 1    
    86   42  165 1    
    87   43  166 1    
    88   43  167 1    
    89   43  168 1    
    90   44   45 am   BACKBONE|DICT|INTERRES
    91   44  169 1    
    92   45   46 2    
    93   45   47 1    
    94   47   48 1    
    95   47   49 1    
    96   47  170 1    
    97   48  171 1    
    98   48  172 1    
    99   48  173 1    
   100   49   50 am   BACKBONE|DICT|INTERRES
   101   49  174 1    
   102   50   51 2    
   103   50   52 1    
   104   52   53 1    
   105   52   54 1    
   106   52  175 1    
   107   53  176 1    
   108   53  177 1    
   109   53  178 1    
   110   54   55 am   BACKBONE|DICT|INTERRES
   111   54  179 1    
   112   55   56 2    
   113   55   57 1    
   114   57   58 1    
   115   57   59 1    
   116   57  180 1    
   117   58  181 1    
   118   58  182 1    
   119   58  183 1    
   120   59   60 am   BACKBONE|DICT|INTERRES
   121   59  184 1    
   122   60   61 2    
   123   60   62 1    
   124   62   63 1    
   125   62   64 1    
   126   62  185 1    
   127   63  186 1    
   128   63  187 1    
   129   63  188 1    
   130   64   65 am   BACKBONE|DICT|INTERRES
   131   64  189 1    
   132   65   66 2    
   133   67   68 2    
   134   67   69 am   BACKBONE|DICT|INTERRES
   135   69   70 1    
   136   69  190 1    
   137   70   71 1    
   138   70   72 1    
   139   70  191 1    
   140   71  192 1    
   141   71  193 1    
   142   71  194 1    
   143   72   73 2    
   144   72   74 am   BACKBONE|DICT|INTERRES
   145   74   75 1    
   146   74  195 1    
   147   75   76 1    
   148   75   77 1    
   149   75  196 1    
   150   76  197 1    
   151   76  198 1    
   152   76  199 1    
   153   77   78 2    
   154   77   79 am   BACKBONE|DICT|INTERRES
   155   79   80 1    
   156   79  200 1    
   157   80   81 1    
   158   80   82 1    
   159   80  201 1    
   160   81  202 1    
   161   81  203 1    
   162   81  204 1    
   163   82   83 2    
   164   82   84 am   BACKBONE|DICT|INTERRES
   165   84   85 1    
   166   84  205 1    
   167   85   86 1    
   168   85   87 1    
   169   85  206 1    
   170   86  207 1    
   171   86  208 1    
   172   86  209 1    
   173   87   88 2    
   174   87   89 am   BACKBONE|DICT|INTERRES
   175   89   90 1    
   176   89  210 1    
   177   90   91 1    
   178   90   92 1    
   179   90  211 1    
   180   91  212 1    
   181   91  213 1    
   182   91  214 1    
   183   92   93 2    
   184   92   94 am   BACKBONE|DICT|INTERRES
   185   94   95 1    
   186   94  215 1    
   187   95   96 1    
   188   95   97 1    
   189   95  216 1    
   190   96  217 1    
   191   96  218 1    
   192   96  219 1    
   193   97   98 2    
   194   97   99 am   BACKBONE|DICT|INTERRES
   195   99  100 1    
   196   99  220 1    
   197  100  101 1    
   198  100  102 1    
   199  100  221 1    
   200  101  222 1    
   201  101  223 1    
   202  101  224 1    
   203  102  103 2    
   204  102  104 am   BACKBONE|DICT|INTERRES
   205  104  105 1    
   206  104  225 1    
   207  105  106 1    
   208  105  107 1    
   209  105  226 1    
   210  106  227 1    
   211  106  228 1    
   212  106  229 1    
   213  107  108 2    
   214  107  109 am   BACKBONE|DICT|INTERRES
   215  109  110 1    
   216  109  230 1    
   217  110  111 1    
   218  110  112 1    
   219  110  231 1    
   220  111  232 1    
   221  111  233 1    
   222  111  234 1    
   223  112  113 2    
   224  112  114 am   BACKBONE|DICT|INTERRES
   225  114  115 1    
   226  114  235 1    
   227  115  116 1    
   228  115  117 1    
   229  115  236 1    
   230  116  237 1    
   231  116  238 1    
   232  116  239 1    
   233  117  118 2    
   234  117  119 am   BACKBONE|DICT|INTERRES
   235  119  120 1    
   236  119  240 1    
   237  120  121 1    
   238  120  124 1    
   239  120  241 1    
   240  121  122 am   BACKBONE|DICT|INTERRES
   241  121  123 2    
   242  122  242 1    
   243  122  243 1    
   244  124  125 1    
   245  124  244 1    
   246  124  245 1    
   247  125  126 1    
   248  126  246 1    
   249  126  247 1    
@<TRIPOS>SUBSTRUCTURE
     1 UNK         1 GROUP             0       ****    0 ROOT    
