@<TRIPOS>MOLECULE
3R540
247   249    1
SMALL
USER_CHARGES


@<TRIPOS>ATOM
      1 CA          2.7753   -8.7707  -47.7674 C.3       0 UNK        -0.1800 
      2 C           2.4422  -10.1314  -47.1743 C.2       0 UNK         0.5000 
      3 O           2.4933  -10.2972  -45.9568 O.2       0 UNK        -0.5000 
      4 N           2.0824  -11.1029  -48.0226 N.am      1 UNK        -0.5000 
      5 CA          1.7357  -12.4775  -47.6372 C.3       1 UNK         0.1400 
      6 C6          1.5624  -13.3726  -48.8879 C.3       23 UNK        -0.0398 
      7 S7          1.8129  -15.1430  -48.5346 S.3       23 UNK        -0.2404 
      8 C8          0.5868  -15.9237  -49.6346 C.3       23 UNK        -0.0205 
      9 C9          1.1936  -17.0710  -50.4281 C.ar      23 UNK        -0.0193 
     10 C10         1.2143  -17.0324  -51.8256 C.ar      23 UNK        -0.1150 
     11 C11         1.7743  -18.0817  -52.5616 C.ar      23 UNK        -0.0193 
     12 C12         2.3247  -19.1743  -51.8808 C.ar      23 UNK        -0.1150 
     13 C13         2.2958  -19.2321  -50.4833 C.ar      23 UNK        -0.0193 
     14 C14         1.7242  -18.1804  -49.7652 C.ar      23 UNK        -0.1150 
     15 C15         2.9059  -20.4154  -49.7469 C.3       23 UNK        -0.0205 
     16 S16         1.8830  -21.9108  -49.8974 S.3       23 UNK        -0.2404 
     17 C17         0.4553  -21.5224  -48.8280 C.3       23 UNK        -0.0398 
     18 CA          0.1565  -22.6789  -47.8318 C.3       11 UNK         0.1400 
     19 N           0.4492  -22.2946  -46.4502 N.am      11 UNK        -0.5000 
     20 C           0.6948  -23.1602  -45.4584 C.2       10 UNK         0.5000 
     21 O           0.7807  -24.3777  -45.6155 O.2       10 UNK        -0.5000 
     22 CA          0.8551  -22.5686  -44.0459 C.3       10 UNK         0.1400 
     23 CB          2.3199  -22.1851  -43.7875 C.3       10 UNK        -0.1800 
     24 N          -0.0035  -21.4065  -43.8083 N.am      10 UNK        -0.5000 
     25 C          -1.3437  -21.4425  -43.7991 C.2       9 UNK         0.5000 
     26 O          -2.0003  -22.4717  -43.9573 O.2       9 UNK        -0.5000 
     27 CA         -2.0754  -20.0983  -43.6328 C.3       9 UNK         0.1400 
     28 CB         -2.1289  -19.6878  -42.1542 C.3       9 UNK        -0.1800 
     29 N          -1.4825  -19.0168  -44.4215 N.am      9 UNK        -0.5000 
     30 C          -1.3819  -19.0065  -45.7584 C.2       8 UNK         0.5000 
     31 O          -1.7719  -19.9202  -46.4820 O.2       8 UNK        -0.5000 
     32 CA         -0.6757  -17.7973  -46.3917 C.3       8 UNK         0.1400 
     33 CB         -1.5983  -16.5684  -46.4328 C.3       8 UNK        -0.1800 
     34 N           0.5594  -17.4628  -45.6879 N.am      8 UNK        -0.5000 
     35 C           1.6513  -18.2398  -45.6625 C.2       7 UNK         0.5000 
     36 O           1.7483  -19.3114  -46.2609 O.2       7 UNK        -0.5000 
     37 CA          2.8127  -17.7510  -44.7800 C.3       7 UNK         0.1400 
     38 CB          3.6035  -16.6401  -45.4885 C.3       7 UNK        -0.1800 
     39 N           2.3545  -17.2635  -43.4785 N.am      7 UNK        -0.5000 
     40 C           1.7542  -18.0192  -42.5474 C.2       6 UNK         0.5000 
     41 O           1.5546  -19.2270  -42.6665 O.2       6 UNK        -0.5000 
     42 CA          1.2466  -17.2889  -41.2920 C.3       6 UNK         0.1400 
     43 CB          2.3694  -17.1504  -40.2538 C.3       6 UNK        -0.1800 
     44 N           0.6946  -15.9662  -41.5859 N.am      6 UNK        -0.5000 
     45 C          -0.3597  -15.7184  -42.3718 C.2       5 UNK         0.5000 
     46 O          -0.9932  -16.5994  -42.9519 O.2       5 UNK        -0.5000 
     47 CA         -0.7607  -14.2473  -42.5776 C.3       5 UNK         0.1400 
     48 CB         -1.6519  -13.7465  -41.4268 C.3       5 UNK        -0.1800 
     49 N           0.3615  -13.3340  -42.8233 N.am      5 UNK        -0.5000 
     50 C           1.3461  -12.9418  -42.0006 C.2       4 UNK         0.5000 
     51 O           1.5168  -13.3799  -40.8623 O.2       4 UNK        -0.5000 
     52 CA          2.2938  -11.8599  -42.5486 C.3       4 UNK         0.1400 
     53 CB          3.3671  -12.4884  -43.4514 C.3       4 UNK        -0.1800 
     54 N           1.5716  -10.8285  -43.2943 N.am      4 UNK        -0.5000 
     55 C           0.6895   -9.9715  -42.7584 C.2       3 UNK         0.5000 
     56 O           0.4747   -9.8722  -41.5498 O.2       3 UNK        -0.5000 
     57 CA         -0.1157   -9.1071  -43.7442 C.3       3 UNK         0.1400 
     58 CB          0.6829   -7.8681  -44.1785 C.3       3 UNK        -0.1800 
     59 N          -0.5232   -9.8746  -44.9225 N.am      3 UNK        -0.5000 
     60 C          -1.5142  -10.7786  -44.9302 C.2       2 UNK         0.5000 
     61 O          -2.2354  -11.0099  -43.9601 O.2       2 UNK        -0.5000 
     62 CA         -1.7367  -11.5657  -46.2361 C.3       2 UNK         0.1400 
     63 CB         -2.8138  -10.8882  -47.0963 C.3       2 UNK        -0.1800 
     64 N          -0.5157  -11.7146  -47.0294 N.am      2 UNK        -0.5000 
     65 C           0.4975  -12.5338  -46.7140 C.2       1 UNK         0.5000 
     66 O           0.5001  -13.2628  -45.7211 O.2       1 UNK        -0.5000 
     67 C          -1.2838  -23.2216  -47.9732 C.2       11 UNK         0.5000 
     68 O          -1.5025  -24.1835  -48.7114 O.2       11 UNK        -0.5000 
     69 N          -2.2420  -22.6090  -47.2648 N.am      12 UNK        -0.5000 
     70 CA         -3.6546  -22.9881  -47.2880 C.3       12 UNK         0.1400 
     71 CB         -4.4953  -21.8897  -46.6224 C.3       12 UNK        -0.1800 
     72 C          -3.9215  -24.3561  -46.6411 C.2       12 UNK         0.5000 
     73 O          -4.7824  -25.0909  -47.1266 O.2       12 UNK        -0.5000 
     74 N          -3.1714  -24.6776  -45.5781 N.am      13 UNK        -0.5000 
     75 CA         -3.2068  -25.9488  -44.8575 C.3       13 UNK         0.1400 
     76 CB         -2.2030  -25.8948  -43.6947 C.3       13 UNK        -0.1800 
     77 C          -2.9238  -27.1496  -45.7816 C.2       13 UNK         0.5000 
     78 O          -1.7984  -27.3037  -46.2601 O.2       13 UNK        -0.5000 
     79 N          -3.9667  -27.9531  -46.0313 N.am      14 UNK        -0.5000 
     80 CA         -4.0354  -29.1613  -46.8648 C.3       14 UNK         0.1400 
     81 CB         -3.0851  -30.2568  -46.3441 C.3       14 UNK        -0.1800 
     82 C          -3.8379  -28.9305  -48.3775 C.2       14 UNK         0.5000 
     83 O          -4.6018  -29.4808  -49.1716 O.2       14 UNK        -0.5000 
     84 N          -2.8256  -28.1429  -48.7576 N.am      15 UNK        -0.5000 
     85 CA         -2.4437  -27.8823  -50.1465 C.3       15 UNK         0.1400 
     86 CB         -0.9835  -27.4058  -50.1835 C.3       15 UNK        -0.1800 
     87 C          -3.3683  -26.8880  -50.8757 C.2       15 UNK         0.5000 
     88 O          -3.3911  -26.8956  -52.1069 O.2       15 UNK        -0.5000 
     89 N          -4.1051  -26.0580  -50.1194 N.am      16 UNK        -0.5000 
     90 CA         -5.0562  -25.0394  -50.5890 C.3       16 UNK         0.1400 
     91 CB         -6.2598  -25.6939  -51.2976 C.3       16 UNK        -0.1800 
     92 C          -4.4201  -23.9146  -51.4353 C.2       16 UNK         0.5000 
     93 O          -5.1253  -23.2323  -52.1835 O.2       16 UNK        -0.5000 
     94 N          -3.1045  -23.7112  -51.2951 N.am      17 UNK        -0.5000 
     95 CA         -2.3782  -22.5978  -51.8972 C.3       17 UNK         0.1400 
     96 CB         -0.8798  -22.9277  -51.9239 C.3       17 UNK        -0.1800 
     97 C          -2.6869  -21.2873  -51.1565 C.2       17 UNK         0.5000 
     98 O          -3.0843  -21.3216  -49.9933 O.2       17 UNK        -0.5000 
     99 N          -2.5602  -20.1519  -51.8533 N.am      18 UNK        -0.5000 
    100 CA        -2.9046  -18.7863  -51.4186 C.3       18 UNK         0.1400 
    101 CB        -2.1673  -18.3915  -50.1239 C.3       18 UNK        -0.1800 
    102 C         -4.4238  -18.5562  -51.2884 C.2       18 UNK         0.5000 
    103 O         -4.9280  -17.5453  -51.7766 O.2       18 UNK        -0.5000 
    104 N         -5.1264  -19.5189  -50.6790 N.am      19 UNK        -0.5000 
    105 CA        -6.5825  -19.6163  -50.6140 C.3       19 UNK         0.1400 
    106 CB        -6.9620  -20.7624  -49.6630 C.3       19 UNK        -0.1800 
    107 C         -7.2167  -19.8287  -52.0020 C.2       19 UNK         0.5000 
    108 O         -8.2785  -19.2667  -52.2740 O.2       19 UNK        -0.5000 
    109 N         -6.5439  -20.6111  -52.8563 N.am      20 UNK        -0.5000 
    110 CA        -6.9353  -20.8594  -54.2390 C.3       20 UNK         0.1400 
    111 CB        -7.9032  -22.0545  -54.3136 C.3       20 UNK        -0.1800 
    112 C         -5.6951  -21.0723  -55.1166 C.2       20 UNK         0.5000 
    113 O         -5.4411  -20.2748  -56.0207 O.2       20 UNK        -0.5000 
    114 N         -4.9215  -22.1272  -54.8247 N.am      21 UNK        -0.5000 
    115 CA        -3.8542  -22.6694  -55.6788 C.3       21 UNK         0.1400 
    116 CB        -3.6147  -24.1431  -55.2999 C.3       21 UNK        -0.1800 
    117 C         -2.5414  -21.8500  -55.7189 C.2       21 UNK         0.5000 
    118 O         -1.4978  -22.3898  -56.0866 O.2       21 UNK        -0.5000 
    119 N         -2.6071  -20.5666  -55.3527 N.am      22 UNK        -0.5000 
    120 CA        -1.5299  -19.5761  -55.5071 C.3       22 UNK         0.1400 
    121 C         -2.0790  -18.1400  -55.7575 C.2       22 UNK         0.5000 
    122 N         -3.3530  -17.9628  -56.0967 N.am      22 UNK        -0.7600 
    123 O         -1.3442  -17.1635  -55.6489 O.2       22 UNK        -0.5000 
    124 C124       -0.4798  -19.6581  -54.3606 C.3       23 UNK        -0.0398 
    125 S125        1.2462  -19.5154  -54.9306 S.3       23 UNK        -0.2404 
    126 C126        1.8107  -17.9984  -54.0866 C.3       23 UNK        -0.0205 
    127 H127        3.7952   -8.4890  -47.5062 H         1 UNK         0.0600 
    128 H128        2.0993   -8.0135  -47.3703 H         1 UNK         0.0600 
    129 H129        2.6888   -8.7693  -48.8541 H         1 UNK         0.0600 
    130 H130        2.0580  -10.9021  -49.0125 H         1 UNK         0.3000 
    131 H131        2.5829  -12.8562  -47.0606 H         1 UNK         0.0600 
    132 H132        0.5905  -13.2010  -49.3533 H         1 UNK         0.0800 
    133 H133        2.3037  -13.1072  -49.6432 H         1 UNK         0.0800 
    134 H134       -0.2406  -16.2984  -49.0352 H         1 UNK         0.0800 
    135 H135        0.1578  -15.1878  -50.3153 H         1 UNK         0.0800 
    136 H136        0.7999  -16.1786  -52.3430 H         1 UNK         0.1150 
    137 H137        2.7735  -19.9844  -52.4382 H         1 UNK         0.1150 
    138 H138        1.7073  -18.2136  -48.6859 H         1 UNK         0.1150 
    139 H139        3.8931  -20.6221  -50.1621 H         1 UNK         0.0800 
    140 H140        3.0613  -20.1845  -48.6914 H         1 UNK         0.0800 
    141 H141       -0.3893  -21.3046  -49.4798 H         1 UNK         0.0800 
    142 H142        0.6374  -20.5864  -48.2999 H         1 UNK         0.0800 
    143 H143        0.8049  -23.5248  -48.0714 H         1 UNK         0.0600 
    144 H144        0.4167  -21.3065  -46.2350 H         1 UNK         0.3000 
    145 H145        0.5734  -23.3438  -43.3301 H         1 UNK         0.0600 
    146 H146        2.4665  -21.8638  -42.7562 H         1 UNK         0.0600 
    147 H147        2.9840  -23.0327  -43.9609 H         1 UNK         0.0600 
    148 H148        2.6432  -21.3732  -44.4403 H         1 UNK         0.0600 
    149 H149        0.4683  -20.5269  -43.6168 H         1 UNK         0.3000 
    150 H150       -3.1003  -20.2337  -43.9828 H         1 UNK         0.0600 
    151 H151       -2.6072  -20.4608  -41.5514 H         1 UNK         0.0600 
    152 H152       -2.7004  -18.7692  -42.0198 H         1 UNK         0.0600 
    153 H153       -1.1313  -19.5238  -41.7468 H         1 UNK         0.0600 
    154 H154       -1.1614  -18.2020  -43.9039 H         1 UNK         0.3000 
    155 H155       -0.4176  -18.0652  -47.4178 H         1 UNK         0.0600 
    156 H156       -1.9453  -16.2857  -45.4388 H         1 UNK         0.0600 
    157 H157       -2.4802  -16.7677  -47.0427 H         1 UNK         0.0600 
    158 H158       -1.0918  -15.7039  -46.8622 H         1 UNK         0.0600 
    159 H159        0.5533  -16.6160  -45.1395 H         1 UNK         0.3000 
    160 H160        3.4819  -18.5971  -44.6101 H         1 UNK         0.0600 
    161 H161        2.9991  -15.7438  -45.6357 H         1 UNK         0.0600 
    162 H162        3.9447  -16.9693  -46.4710 H         1 UNK         0.0600 
    163 H163        4.4868  -16.3578  -44.9154 H         1 UNK         0.0600 
    164 H164        2.4662  -16.2781  -43.2939 H         1 UNK         0.3000 
    165 H165        0.4490  -17.8924  -40.8550 H         1 UNK         0.0600 
    166 H166        3.1827  -16.5230  -40.6209 H         1 UNK         0.0600 
    167 H167        2.7917  -18.1242  -40.0024 H         1 UNK         0.0600 
    168 H168        1.9979  -16.7090  -39.3289 H         1 UNK         0.0600 
    169 H169        1.1431  -15.1650  -41.1481 H         1 UNK         0.3000 
    170 H170       -1.3600  -14.2153  -43.4891 H         1 UNK         0.0600 
    171 H171       -2.5400  -14.3711  -41.3236 H         1 UNK         0.0600 
    172 H172       -1.1309  -13.7606  -40.4692 H         1 UNK         0.0600 
    173 H173       -1.9908  -12.7264  -41.6090 H         1 UNK         0.0600 
    174 H174        0.3967  -12.9817  -43.7753 H         1 UNK         0.3000 
    175 H175        2.7907  -11.3840  -41.7008 H         1 UNK         0.0600 
    176 H176        2.9297  -12.9634  -44.3304 H         1 UNK         0.0600 
    177 H177        4.0768  -11.7373  -43.7988 H         1 UNK         0.0600 
    178 H178        3.9344  -13.2491  -42.9138 H         1 UNK         0.0600 
    179 H179        1.7495  -10.7814  -44.2944 H         1 UNK         0.3000 
    180 H180       -1.0145   -8.7611  -43.2291 H         1 UNK         0.0600 
    181 H181        1.6120   -8.1357  -44.6814 H         1 UNK         0.0600 
    182 H182        0.9456   -7.2554  -43.3153 H         1 UNK         0.0600 
    183 H183        0.1025   -7.2422  -44.8563 H         1 UNK         0.0600 
    184 H184        0.0447   -9.7714  -45.7499 H         1 UNK         0.3000 
    185 H185       -2.0946  -12.5614  -45.9642 H         1 UNK         0.0600 
    186 H186       -3.7479  -10.7852  -46.5424 H         1 UNK         0.0600 
    187 H187       -2.5083   -9.8903  -47.4133 H         1 UNK         0.0600 
    188 H188       -3.0307  -11.4737  -47.9900 H         1 UNK         0.0600 
    189 H189       -0.4327  -11.1330  -47.8506 H         1 UNK         0.3000 
    190 H190       -2.0091  -21.7597  -46.7575 H         1 UNK         0.3000 
    191 H191       -3.9670  -23.0614  -48.3300 H         1 UNK         0.0600 
    192 H192       -4.3650  -20.9349  -47.1329 H         1 UNK         0.0600 
    193 H193       -5.5573  -22.1353  -46.6571 H         1 UNK         0.0600 
    194 H194       -4.2216  -21.7525  -45.5764 H         1 UNK         0.0600 
    195 H195       -2.5209  -23.9818  -45.2285 H         1 UNK         0.3000 
    196 H196       -4.2063  -26.0580  -44.4321 H         1 UNK         0.0600 
    197 H197       -2.1975  -26.8328  -43.1382 H         1 UNK         0.0600 
    198 H198       -2.4558  -25.1007  -42.9919 H         1 UNK         0.0600 
    199 H199       -1.1870  -25.7156  -44.0488 H         1 UNK         0.0600 
    200 H200       -4.8546  -27.6805  -45.6326 H         1 UNK         0.3000 
    201 H201       -5.0531  -29.5359  -46.7432 H         1 UNK         0.0600 
    202 H202       -3.2767  -30.4784  -45.2942 H         1 UNK         0.0600 
    203 H203       -2.0376  -29.9704  -46.4410 H         1 UNK         0.0600 
    204 H204       -3.2200  -31.1844  -46.9017 H         1 UNK         0.0600 
    205 H205       -2.2498  -27.7312  -48.0268 H         1 UNK         0.3000 
    206 H206       -2.4965  -28.8243  -50.6966 H         1 UNK         0.0600 
    207 H207       -0.3110  -28.1744  -49.8024 H         1 UNK         0.0600 
    208 H208       -0.6690  -27.1754  -51.2022 H         1 UNK         0.0600 
    209 H209       -0.8358  -26.5094  -49.5831 H         1 UNK         0.0600 
    210 H210       -4.0055  -26.1243  -49.1144 H         1 UNK         0.3000 
    211 H211       -5.4395  -24.5496  -49.6939 H         1 UNK         0.0600 
    212 H212       -5.9760  -26.1386  -52.2517 H         1 UNK         0.0600 
    213 H213       -7.0409  -24.9603  -51.5008 H         1 UNK         0.0600 
    214 H214       -6.7033  -26.4753  -50.6805 H         1 UNK         0.0600 
    215 H215       -2.6069  -24.2413  -50.5894 H         1 UNK         0.3000 
    216 H216       -2.7137  -22.4715  -52.9244 H         1 UNK         0.0600 
    217 H217       -0.2721  -22.0514  -52.1465 H         1 UNK         0.0600 
    218 H218       -0.6633  -23.6762  -52.6863 H         1 UNK         0.0600 
    219 H219       -0.5342  -23.3259  -50.9722 H         1 UNK         0.0600 
    220 H220       -2.2656  -20.2256  -52.8148 H         1 UNK         0.3000 
    221 H221       -2.5505  -18.1237  -52.2099 H         1 UNK         0.0600 
    222 H222       -2.5671  -18.8992  -49.2454 H         1 UNK         0.0600 
    223 H223       -1.1078  -18.6330  -50.1887 H         1 UNK         0.0600 
    224 H224       -2.2556  -17.3202  -49.9432 H         1 UNK         0.0600 
    225 H225       -4.5934  -20.2898  -50.2834 H         1 UNK         0.3000 
    226 H226       -6.9688  -18.6807  -50.2047 H         1 UNK         0.0600 
    227 H227       -6.5769  -20.5841  -48.6589 H         1 UNK         0.0600 
    228 H228       -8.0452  -20.8619  -49.5830 H         1 UNK         0.0600 
    229 H229       -6.5677  -21.7196  -50.0074 H         1 UNK         0.0600 
    230 H230       -5.7066  -21.0790  -52.5354 H         1 UNK         0.3000 
    231 H231       -7.4491  -19.9793  -54.6322 H         1 UNK         0.0600 
    232 H232       -7.4759  -22.9521  -53.8646 H         1 UNK         0.0600 
    233 H233       -8.1565  -22.2901  -55.3479 H         1 UNK         0.0600 
    234 H234       -8.8357  -21.8363  -53.7931 H         1 UNK         0.0600 
    235 H235       -5.1552  -22.6828  -54.0052 H         1 UNK         0.3000 
    236 H236       -4.2309  -22.6645  -56.7036 H         1 UNK         0.0600 
    237 H237       -4.5432  -24.7134  -55.3326 H         1 UNK         0.0600 
    238 H238       -2.9227  -24.6221  -55.9936 H         1 UNK         0.0600 
    239 H239       -3.1970  -24.2495  -54.2996 H         1 UNK         0.0600 
    240 H240       -3.5245  -20.1938  -55.1452 H         1 UNK         0.3000 
    241 H241       -1.0263  -19.8219  -56.4441 H         1 UNK         0.0600 
    242 H242       -3.6799  -17.0223  -56.2547 H         1 UNK         0.3800 
    243 H243       -3.9876  -18.7341  -56.2590 H         1 UNK         0.3800 
    244 H244       -0.6791  -18.9224  -53.5811 H         1 UNK         0.0800 
    245 H245       -0.5340  -20.6295  -53.8741 H         1 UNK         0.0800 
    246 H246        1.2065  -17.1621  -54.4422 H         1 UNK         0.0800 
    247 H247        2.8352  -17.7889  -54.3959 H         1 UNK         0.0800 
@<TRIPOS>BOND
     1    1    2 1    
     2    1  127 1    
     3    1  128 1    
     4    1  129 1    
     5    2    3 2    
     6    2    4 am   BACKBONE|DICT|INTERRES
     7    4    5 1    
     8    4  130 1    
     9    5    6 1    
    10    5   65 1    
    11    5  131 1    
    12    6    7 1    
    13    6  132 1    
    14    6  133 1    
    15    7    8 1    
    16    8    9 1    
    17    8  134 1    
    18    8  135 1    
    19    9   10 ar   
    20    9   14 ar   
    21   10   11 ar   
    22   10  136 1    
    23   11   12 ar   
    24   11  126 1    
    25   12   13 ar   
    26   12  137 1    
    27   13   14 ar   
    28   13   15 1    
    29   14  138 1    
    30   15   16 1    
    31   15  139 1    
    32   15  140 1    
    33   16   17 1    
    34   17   18 1    
    35   17  141 1    
    36   17  142 1    
    37   18   19 1    
    38   18   67 1    
    39   18  143 1    
    40   19   20 am   BACKBONE|DICT|INTERRES
    41   19  144 1    
    42   20   21 2    
    43   20   22 1    
    44   22   23 1    
    45   22   24 1    
    46   22  145 1    
    47   23  146 1    
    48   23  147 1    
    49   23  148 1    
    50   24   25 am   BACKBONE|DICT|INTERRES
    51   24  149 1    
    52   25   26 2    
    53   25   27 1    
    54   27   28 1    
    55   27   29 1    
    56   27  150 1    
    57   28  151 1    
    58   28  152 1    
    59   28  153 1    
    60   29   30 am   BACKBONE|DICT|INTERRES
    61   29  154 1    
    62   30   31 2    
    63   30   32 1    
    64   32   33 1    
    65   32   34 1    
    66   32  155 1    
    67   33  156 1    
    68   33  157 1    
    69   33  158 1    
    70   34   35 am   BACKBONE|DICT|INTERRES
    71   34  159 1    
    72   35   36 2    
    73   35   37 1    
    74   37   38 1    
    75   37   39 1    
    76   37  160 1    
    77   38  161 1    
    78   38  162 1    
    79   38  163 1    
    80   39   40 am   BACKBONE|DICT|INTERRES
    81   39  164 1    
    82   40   41 2    
    83   40   42 1    
    84   42   43 1    
    85   42   44 1    
    86   42  165 1    
    87   43  166 1    
    88   43  167 1    
    89   43  168 1    
    90   44   45 am   BACKBONE|DICT|INTERRES
    91   44  169 1    
    92   45   46 2    
    93   45   47 1    
    94   47   48 1    
    95   47   49 1    
    96   47  170 1    
    97   48  171 1    
    98   48  172 1    
    99   48  173 1    
   100   49   50 am   BACKBONE|DICT|INTERRES
   101   49  174 1    
   102   50   51 2    
   103   50   52 1    
   104   52   53 1    
   105   52   54 1    
   106   52  175 1    
   107   53  176 1    
   108   53  177 1    
   109   53  178 1    
   110   54   55 am   BACKBONE|DICT|INTERRES
   111   54  179 1    
   112   55   56 2    
   113   55   57 1    
   114   57   58 1    
   115   57   59 1    
   116   57  180 1    
   117   58  181 1    
   118   58  182 1    
   119   58  183 1    
   120   59   60 am   BACKBONE|DICT|INTERRES
   121   59  184 1    
   122   60   61 2    
   123   60   62 1    
   124   62   63 1    
   125   62   64 1    
   126   62  185 1    
   127   63  186 1    
   128   63  187 1    
   129   63  188 1    
   130   64   65 am   BACKBONE|DICT|INTERRES
   131   64  189 1    
   132   65   66 2    
   133   67   68 2    
   134   67   69 am   BACKBONE|DICT|INTERRES
   135   69   70 1    
   136   69  190 1    
   137   70   71 1    
   138   70   72 1    
   139   70  191 1    
   140   71  192 1    
   141   71  193 1    
   142   71  194 1    
   143   72   73 2    
   144   72   74 am   BACKBONE|DICT|INTERRES
   145   74   75 1    
   146   74  195 1    
   147   75   76 1    
   148   75   77 1    
   149   75  196 1    
   150   76  197 1    
   151   76  198 1    
   152   76  199 1    
   153   77   78 2    
   154   77   79 am   BACKBONE|DICT|INTERRES
   155   79   80 1    
   156   79  200 1    
   157   80   81 1    
   158   80   82 1    
   159   80  201 1    
   160   81  202 1    
   161   81  203 1    
   162   81  204 1    
   163   82   83 2    
   164   82   84 am   BACKBONE|DICT|INTERRES
   165   84   85 1    
   166   84  205 1    
   167   85   86 1    
   168   85   87 1    
   169   85  206 1    
   170   86  207 1    
   171   86  208 1    
   172   86  209 1    
   173   87   88 2    
   174   87   89 am   BACKBONE|DICT|INTERRES
   175   89   90 1    
   176   89  210 1    
   177   90   91 1    
   178   90   92 1    
   179   90  211 1    
   180   91  212 1    
   181   91  213 1    
   182   91  214 1    
   183   92   93 2    
   184   92   94 am   BACKBONE|DICT|INTERRES
   185   94   95 1    
   186   94  215 1    
   187   95   96 1    
   188   95   97 1    
   189   95  216 1    
   190   96  217 1    
   191   96  218 1    
   192   96  219 1    
   193   97   98 2    
   194   97   99 am   BACKBONE|DICT|INTERRES
   195   99  100 1    
   196   99  220 1    
   197  100  101 1    
   198  100  102 1    
   199  100  221 1    
   200  101  222 1    
   201  101  223 1    
   202  101  224 1    
   203  102  103 2    
   204  102  104 am   BACKBONE|DICT|INTERRES
   205  104  105 1    
   206  104  225 1    
   207  105  106 1    
   208  105  107 1    
   209  105  226 1    
   210  106  227 1    
   211  106  228 1    
   212  106  229 1    
   213  107  108 2    
   214  107  109 am   BACKBONE|DICT|INTERRES
   215  109  110 1    
   216  109  230 1    
   217  110  111 1    
   218  110  112 1    
   219  110  231 1    
   220  111  232 1    
   221  111  233 1    
   222  111  234 1    
   223  112  113 2    
   224  112  114 am   BACKBONE|DICT|INTERRES
   225  114  115 1    
   226  114  235 1    
   227  115  116 1    
   228  115  117 1    
   229  115  236 1    
   230  116  237 1    
   231  116  238 1    
   232  116  239 1    
   233  117  118 2    
   234  117  119 am   BACKBONE|DICT|INTERRES
   235  119  120 1    
   236  119  240 1    
   237  120  121 1    
   238  120  124 1    
   239  120  241 1    
   240  121  122 am   BACKBONE|DICT|INTERRES
   241  121  123 2    
   242  122  242 1    
   243  122  243 1    
   244  124  125 1    
   245  124  244 1    
   246  124  245 1    
   247  125  126 1    
   248  126  246 1    
   249  126  247 1    
@<TRIPOS>SUBSTRUCTURE
     1 UNK         1 GROUP             0       ****    0 ROOT    
