@<TRIPOS>MOLECULE
3R540
247   249    1
SMALL
USER_CHARGES


@<TRIPOS>ATOM
      1 CA          5.2669  -15.5044  -48.0557 C.3       0 UNK        -0.1800 
      2 C           3.9941  -14.7138  -47.7927 C.2       0 UNK         0.5000 
      3 O           3.7477  -14.3168  -46.6563 O.2       0 UNK        -0.5000 
      4 N           3.1949  -14.4704  -48.8407 N.am      1 UNK        -0.5000 
      5 CA          1.9027  -13.7691  -48.7904 C.3       1 UNK         0.1400 
      6 C6          1.1963  -13.8110  -50.1690 C.3       23 UNK        -0.0398 
      7 S7         -0.6208  -13.6673  -50.0508 S.3       23 UNK        -0.2404 
      8 C8         -1.1827  -15.0721  -51.0638 C.3       23 UNK        -0.0205 
      9 C9         -1.3593  -16.3433  -50.2460 C.ar      23 UNK        -0.0193 
     10 C10        -2.6315  -16.7061  -49.7928 C.ar      23 UNK        -0.1150 
     11 C11        -2.8264  -17.9051  -49.1019 C.ar      23 UNK        -0.0193 
     12 C12        -1.7327  -18.7388  -48.8585 C.ar      23 UNK        -0.1150 
     13 C13        -0.4533  -18.3830  -49.2922 C.ar      23 UNK        -0.0193 
     14 C14        -0.2711  -17.1826  -49.9850 C.ar      23 UNK        -0.1150 
     15 C15         0.7118  -19.3313  -49.0627 C.3       23 UNK        -0.0205 
     16 S16         1.0643  -19.5589  -47.2902 S.3       23 UNK        -0.2404 
     17 C17         2.0092  -21.1211  -47.3366 C.3       23 UNK        -0.0398 
     18 CA          1.2279  -22.4219  -47.0011 C.3       11 UNK         0.1400 
     19 N           1.0715  -22.6693  -45.5627 N.am      11 UNK        -0.5000 
     20 C           0.9177  -23.9055  -45.0591 C.2       10 UNK         0.5000 
     21 O           0.8875  -24.9203  -45.7565 O.2       10 UNK        -0.5000 
     22 CA          0.7307  -24.0459  -43.5373 C.3       10 UNK         0.1400 
     23 CB          2.0913  -24.0568  -42.8254 C.3       10 UNK        -0.1800 
     24 N          -0.1143  -23.0087  -42.9495 N.am      10 UNK        -0.5000 
     25 C          -1.3946  -22.7820  -43.2696 C.2       9 UNK         0.5000 
     26 O          -2.0107  -23.4339  -44.1134 O.2       9 UNK        -0.5000 
     27 CA         -2.1002  -21.6028  -42.5670 C.3       9 UNK         0.1400 
     28 CB         -1.3942  -21.1286  -41.2770 C.3       9 UNK        -0.1800 
     29 N          -2.3054  -20.4691  -43.4751 N.am      9 UNK        -0.5000 
     30 C          -1.3685  -19.8373  -44.1980 C.2       8 UNK         0.5000 
     31 O          -0.1822  -20.1737  -44.2179 O.2       8 UNK        -0.5000 
     32 CA         -1.8348  -18.6703  -45.0943 C.3       8 UNK         0.1400 
     33 CB         -3.2011  -18.0624  -44.7070 C.3       8 UNK        -0.1800 
     34 N          -0.8054  -17.6389  -45.2231 N.am      8 UNK        -0.5000 
     35 C          -0.3079  -16.8667  -44.2494 C.2       7 UNK         0.5000 
     36 O          -0.7579  -16.8160  -43.1014 O.2       7 UNK        -0.5000 
     37 CA          0.8743  -15.9695  -44.6651 C.3       7 UNK         0.1400 
     38 CB          0.3498  -14.6699  -45.2959 C.3       7 UNK        -0.1800 
     39 N           1.7610  -15.6206  -43.5563 N.am      7 UNK        -0.5000 
     40 C           2.4441  -16.4728  -42.7800 C.2       6 UNK         0.5000 
     41 O           2.4343  -17.6956  -42.9247 O.2       6 UNK        -0.5000 
     42 CA          3.3024  -15.8597  -41.6579 C.3       6 UNK         0.1400 
     43 CB          4.7606  -15.7181  -42.1237 C.3       6 UNK        -0.1800 
     44 N           2.8135  -14.5429  -41.2436 N.am      6 UNK        -0.5000 
     45 C           2.0811  -14.2991  -40.1489 C.2       5 UNK         0.5000 
     46 O           1.7403  -15.1708  -39.3481 O.2       5 UNK        -0.5000 
     47 CA          1.6713  -12.8349  -39.8817 C.3       5 UNK         0.1400 
     48 CB          2.6520  -12.1785  -38.8976 C.3       5 UNK        -0.1800 
     49 N           1.6024  -12.0160  -41.0936 N.am      5 UNK        -0.5000 
     50 C           0.6171  -12.0796  -41.9991 C.2       4 UNK         0.5000 
     51 O          -0.3786  -12.7921  -41.8718 O.2       4 UNK        -0.5000 
     52 CA          0.7714  -11.2197  -43.2728 C.3       4 UNK         0.1400 
     53 CB          0.0202   -9.8894  -43.1123 C.3       4 UNK        -0.1800 
     54 N           2.1498  -10.9365  -43.6956 N.am      4 UNK        -0.5000 
     55 C           3.1101  -11.8456  -43.9081 C.2       3 UNK         0.5000 
     56 O           2.9857  -13.0395  -43.6433 O.2       3 UNK        -0.5000 
     57 CA          4.4030  -11.3385  -44.5614 C.3       3 UNK         0.1400 
     58 CB          5.5984  -12.2728  -44.3019 C.3       3 UNK        -0.1800 
     59 N           4.1769  -11.2478  -45.9989 N.am      3 UNK        -0.5000 
     60 C           3.7331  -10.1572  -46.6366 C.2       2 UNK         0.5000 
     61 O           3.5355   -9.0771  -46.0782 O.2       2 UNK        -0.5000 
     62 CA          3.4525  -10.2889  -48.1467 C.3       2 UNK         0.1400 
     63 CB          4.6502   -9.7760  -48.9608 C.3       2 UNK        -0.1800 
     64 N           3.1441  -11.6569  -48.5685 N.am      2 UNK        -0.5000 
     65 C           2.0152  -12.3164  -48.2680 C.2       1 UNK         0.5000 
     66 O           1.1011  -11.8306  -47.6010 O.2       1 UNK        -0.5000 
     67 C          -0.1134  -22.5732  -47.7506 C.2       11 UNK         0.5000 
     68 O          -0.1118  -23.0241  -48.8951 O.2       11 UNK        -0.5000 
     69 N          -1.2335  -22.2520  -47.0824 N.am      12 UNK        -0.5000 
     70 CA         -2.5851  -22.4765  -47.5992 C.3       12 UNK         0.1400 
     71 CB         -3.6246  -21.7511  -46.7320 C.3       12 UNK        -0.1800 
     72 C          -2.9088  -23.9745  -47.6937 C.2       12 UNK         0.5000 
     73 O          -3.4625  -24.4077  -48.7024 O.2       12 UNK        -0.5000 
     74 N          -2.5144  -24.7413  -46.6671 N.am      13 UNK        -0.5000 
     75 CA         -2.6213  -26.1990  -46.6278 C.3       13 UNK         0.1400 
     76 CB         -2.2331  -26.7093  -45.2321 C.3       13 UNK        -0.1800 
     77 C          -1.7796  -26.8801  -47.7223 C.2       13 UNK         0.5000 
     78 O          -2.2854  -27.7747  -48.3998 O.2       13 UNK        -0.5000 
     79 N          -0.5370  -26.4120  -47.9154 N.am      14 UNK        -0.5000 
     80 CA          0.3699  -26.8697  -48.9732 C.3       14 UNK         0.1400 
     81 CB          1.7584  -26.2478  -48.7636 C.3       14 UNK        -0.1800 
     82 C          -0.1525  -26.5657  -50.3916 C.2       14 UNK         0.5000 
     83 O          -0.0054  -27.3978  -51.2870 O.2       14 UNK        -0.5000 
     84 N          -0.7844  -25.3966  -50.5589 N.am      15 UNK        -0.5000 
     85 CA         -1.4511  -24.9627  -51.7884 C.3       15 UNK         0.1400 
     86 CB         -1.6115  -23.4349  -51.7340 C.3       15 UNK        -0.1800 
     87 C          -2.8238  -25.6289  -52.0217 C.2       15 UNK         0.5000 
     88 O          -3.4169  -25.4197  -53.0822 O.2       15 UNK        -0.5000 
     89 N          -3.3297  -26.3635  -51.0173 N.am      16 UNK        -0.5000 
     90 CA         -4.6690  -26.9577  -50.9291 C.3       16 UNK         0.1400 
     91 CB         -4.8005  -28.1358  -51.9155 C.3       16 UNK        -0.1800 
     92 C          -5.7891  -25.9070  -51.0942 C.2       16 UNK         0.5000 
     93 O          -6.8180  -26.1886  -51.7118 O.2       16 UNK        -0.5000 
     94 N          -5.5273  -24.6907  -50.5911 N.am      17 UNK        -0.5000 
     95 CA         -6.2481  -23.4239  -50.7573 C.3       17 UNK         0.1400 
     96 CB         -7.6592  -23.4965  -50.1452 C.3       17 UNK        -0.1800 
     97 C          -6.2993  -22.9018  -52.2085 C.2       17 UNK         0.5000 
     98 O          -6.0615  -21.7153  -52.4336 O.2       17 UNK        -0.5000 
     99 N          -6.6183  -23.7863  -53.1589 N.am      18 UNK        -0.5000 
    100 CA        -6.8912  -23.5001  -54.5636 C.3       18 UNK         0.1400 
    101 CB        -7.3610  -24.7898  -55.2531 C.3       18 UNK        -0.1800 
    102 C         -5.7173  -22.8758  -55.3345 C.2       18 UNK         0.5000 
    103 O         -5.9443  -21.9381  -56.0995 O.2       18 UNK        -0.5000 
    104 N         -4.4913  -23.3822  -55.1299 N.am      19 UNK        -0.5000 
    105 CA        -3.3102  -22.9390  -55.8828 C.3       19 UNK         0.1400 
    106 CB        -2.1794  -23.9689  -55.7411 C.3       19 UNK        -0.1800 
    107 C         -2.8239  -21.5299  -55.4916 C.2       19 UNK         0.5000 
    108 O         -2.1958  -20.8591  -56.3114 O.2       19 UNK        -0.5000 
    109 N         -3.1362  -21.1047  -54.2614 N.am      20 UNK        -0.5000 
    110 CA        -2.8428  -19.7710  -53.7334 C.3       20 UNK         0.1400 
    111 CB        -2.3094  -19.9230  -52.3013 C.3       20 UNK        -0.1800 
    112 C         -4.0708  -18.8376  -53.7850 C.2       20 UNK         0.5000 
    113 O         -3.9344  -17.6511  -53.4851 O.2       20 UNK        -0.5000 
    114 N         -5.2341  -19.3815  -54.1771 N.am      21 UNK        -0.5000 
    115 CA        -6.5472  -18.7368  -54.2728 C.3       21 UNK         0.1400 
    116 CB        -6.5580  -17.6901  -55.4063 C.3       21 UNK        -0.1800 
    117 C         -7.0428  -18.1803  -52.9207 C.2       21 UNK         0.5000 
    118 O         -7.5535  -17.0595  -52.8594 O.2       21 UNK        -0.5000 
    119 N         -6.8646  -18.9724  -51.8568 N.am      22 UNK        -0.5000 
    120 CA        -7.2567  -18.6318  -50.4809 C.3       22 UNK         0.1400 
    121 C         -8.7980  -18.5807  -50.2914 C.2       22 UNK         0.5000 
    122 N         -9.2990  -17.6656  -49.4726 N.am      22 UNK        -0.7600 
    123 O         -9.5400  -19.3908  -50.8430 O.2       22 UNK        -0.5000 
    124 C124       -6.6200  -19.5823  -49.4337 C.3       23 UNK        -0.0398 
    125 S125       -4.8143  -19.7400  -49.6145 S.3       23 UNK        -0.2404 
    126 C126       -4.2201  -18.3154  -48.6528 C.3       23 UNK        -0.0205 
    127 H127        6.1388  -14.9163  -47.7694 H         1 UNK         0.0600 
    128 H128        5.2647  -16.4215  -47.4666 H         1 UNK         0.0600 
    129 H129        5.3677  -15.7748  -49.1070 H         1 UNK         0.0600 
    130 H130        3.4709  -14.8146  -49.7492 H         1 UNK         0.3000 
    131 H131        1.2899  -14.3235  -48.0775 H         1 UNK         0.0600 
    132 H132        1.4318  -14.7478  -50.6731 H         1 UNK         0.0800 
    133 H133        1.5704  -13.0289  -50.8325 H         1 UNK         0.0800 
    134 H134       -2.1326  -14.8002  -51.5269 H         1 UNK         0.0800 
    135 H135       -0.4946  -15.2473  -51.8919 H         1 UNK         0.0800 
    136 H136       -3.4764  -16.0656  -50.0031 H         1 UNK         0.1150 
    137 H137       -1.8799  -19.6811  -48.3526 H         1 UNK         0.1150 
    138 H138        0.7119  -16.9172  -50.3450 H         1 UNK         0.1150 
    139 H139        0.4664  -20.2888  -49.5238 H         1 UNK         0.0800 
    140 H140        1.6136  -18.9715  -49.5602 H         1 UNK         0.0800 
    141 H141        2.4568  -21.2192  -48.3270 H         1 UNK         0.0800 
    142 H142        2.8556  -21.0194  -46.6561 H         1 UNK         0.0800 
    143 H143        1.8619  -23.2262  -47.3809 H         1 UNK         0.0600 
    144 H144        1.0137  -21.8600  -44.9538 H         1 UNK         0.3000 
    145 H145        0.2448  -25.0066  -43.3549 H         1 UNK         0.0600 
    146 H146        1.9774  -24.2534  -41.7592 H         1 UNK         0.0600 
    147 H147        2.7380  -24.8362  -43.2309 H         1 UNK         0.0600 
    148 H148        2.6127  -23.1054  -42.9383 H         1 UNK         0.0600 
    149 H149        0.3251  -22.3924  -42.2816 H         1 UNK         0.3000 
    150 H150       -3.0905  -21.9651  -42.2874 H         1 UNK         0.0600 
    151 H151       -1.2494  -21.9547  -40.5795 H         1 UNK         0.0600 
    152 H152       -1.9946  -20.3782  -40.7624 H         1 UNK         0.0600 
    153 H153       -0.4190  -20.6830  -41.4767 H         1 UNK         0.0600 
    154 H154       -3.2581  -20.1420  -43.5468 H         1 UNK         0.3000 
    155 H155       -1.9379  -19.0932  -46.0907 H         1 UNK         0.0600 
    156 H156       -3.4446  -17.2140  -45.3469 H         1 UNK         0.0600 
    157 H157       -3.2157  -17.7129  -43.6742 H         1 UNK         0.0600 
    158 H158       -4.0067  -18.7878  -44.8246 H         1 UNK         0.0600 
    159 H159       -0.3353  -17.6299  -46.1179 H         1 UNK         0.3000 
    160 H160        1.4753  -16.5023  -45.4051 H         1 UNK         0.0600 
    161 H161       -0.2762  -14.1140  -44.5972 H         1 UNK         0.0600 
    162 H162       -0.2520  -14.8764  -46.1818 H         1 UNK         0.0600 
    163 H163        1.1684  -14.0184  -45.6019 H         1 UNK         0.0600 
    164 H164        1.9225  -14.6296  -43.4158 H         1 UNK         0.3000 
    165 H165        3.2843  -16.5509  -40.8127 H         1 UNK         0.0600 
    166 H166        4.8442  -15.0576  -42.9876 H         1 UNK         0.0600 
    167 H167        5.3911  -15.3155  -41.3309 H         1 UNK         0.0600 
    168 H168        5.1747  -16.6857  -42.4099 H         1 UNK         0.0600 
    169 H169        2.9941  -13.7841  -41.8937 H         1 UNK         0.3000 
    170 H170        0.6833  -12.8494  -39.4163 H         1 UNK         0.0600 
    171 H171        2.7092  -12.7445  -37.9668 H         1 UNK         0.0600 
    172 H172        3.6601  -12.1232  -39.3105 H         1 UNK         0.0600 
    173 H173        2.3368  -11.1667  -38.6418 H         1 UNK         0.0600 
    174 H174        2.3816  -11.4006  -41.2749 H         1 UNK         0.3000 
    175 H175        0.3020  -11.7734  -44.0879 H         1 UNK         0.0600 
    176 H176        0.4737   -9.2632  -42.3430 H         1 UNK         0.0600 
    177 H177        0.0127   -9.3250  -44.0450 H         1 UNK         0.0600 
    178 H178       -1.0197  -10.0576  -42.8287 H         1 UNK         0.0600 
    179 H179        2.3396   -9.9820  -43.9692 H         1 UNK         0.3000 
    180 H180        4.6445  -10.3587  -44.1440 H         1 UNK         0.0600 
    181 H181        5.4391  -13.2651  -44.7260 H         1 UNK         0.0600 
    182 H182        5.7722  -12.3966  -43.2324 H         1 UNK         0.0600 
    183 H183        6.5128  -11.8691  -44.7365 H         1 UNK         0.0600 
    184 H184        4.2156  -12.1250  -46.5033 H         1 UNK         0.3000 
    185 H185        2.5898   -9.6597  -48.3755 H         1 UNK         0.0600 
    186 H186        4.8922   -8.7464  -48.6935 H         1 UNK         0.0600 
    187 H187        5.5427  -10.3786  -48.7871 H         1 UNK         0.0600 
    188 H188        4.4366   -9.7906  -50.0298 H         1 UNK         0.0600 
    189 H189        3.8500  -12.1355  -49.1090 H         1 UNK         0.3000 
    190 H190       -1.1477  -21.9474  -46.1242 H         1 UNK         0.3000 
    191 H191       -2.6385  -22.0602  -48.6076 H         1 UNK         0.0600 
    192 H192       -4.6314  -21.9168  -47.1179 H         1 UNK         0.0600 
    193 H193       -3.4598  -20.6768  -46.7316 H         1 UNK         0.0600 
    194 H194       -3.6120  -22.0957  -45.6987 H         1 UNK         0.0600 
    195 H195       -2.1253  -24.2909  -45.8436 H         1 UNK         0.3000 
    196 H196       -3.6673  -26.4582  -46.8040 H         1 UNK         0.0600 
    197 H197       -2.3415  -27.7927  -45.1689 H         1 UNK         0.0600 
    198 H198       -2.8696  -26.2724  -44.4624 H         1 UNK         0.0600 
    199 H199       -1.1993  -26.4680  -44.9855 H         1 UNK         0.0600 
    200 H200       -0.1744  -25.7111  -47.2768 H         1 UNK         0.3000 
    201 H201        0.4660  -27.9535  -48.8808 H         1 UNK         0.0600 
    202 H202        2.1602  -26.4989  -47.7818 H         1 UNK         0.0600 
    203 H203        1.7285  -25.1615  -48.8466 H         1 UNK         0.0600 
    204 H204        2.4661  -26.6139  -49.5083 H         1 UNK         0.0600 
    205 H205       -0.7995  -24.7371  -49.7880 H         1 UNK         0.3000 
    206 H206       -0.8165  -25.2135  -52.6405 H         1 UNK         0.0600 
    207 H207       -0.6442  -22.9384  -51.6570 H         1 UNK         0.0600 
    208 H208       -2.0984  -23.0552  -52.6298 H         1 UNK         0.0600 
    209 H209       -2.2160  -23.1235  -50.8816 H         1 UNK         0.0600 
    210 H210       -2.7693  -26.4514  -50.1794 H         1 UNK         0.3000 
    211 H211       -4.7653  -27.3538  -49.9173 H         1 UNK         0.0600 
    212 H212       -4.7670  -27.8007  -52.9527 H         1 UNK         0.0600 
    213 H213       -5.7441  -28.6634  -51.7719 H         1 UNK         0.0600 
    214 H214       -3.9992  -28.8604  -51.7709 H         1 UNK         0.0600 
    215 H215       -4.6613  -24.6049  -50.0607 H         1 UNK         0.3000 
    216 H216       -5.6787  -22.6899  -50.1853 H         1 UNK         0.0600 
    217 H217       -8.2804  -24.2462  -50.6353 H         1 UNK         0.0600 
    218 H218       -8.1775  -22.5416  -50.2390 H         1 UNK         0.0600 
    219 H219       -7.6138  -23.7405  -49.0839 H         1 UNK         0.0600 
    220 H220       -6.7759  -24.7431  -52.8519 H         1 UNK         0.3000 
    221 H221       -7.7148  -22.7837  -54.5907 H         1 UNK         0.0600 
    222 H222       -6.5981  -25.5684  -55.2099 H         1 UNK         0.0600 
    223 H223       -8.2641  -25.1809  -54.7840 H         1 UNK         0.0600 
    224 H224       -7.5921  -24.6118  -56.3042 H         1 UNK         0.0600 
    225 H225       -4.3593  -24.1391  -54.4657 H         1 UNK         0.3000 
    226 H226       -3.5847  -22.9014  -56.9394 H         1 UNK         0.0600 
    227 H227       -2.5157  -24.9677  -56.0201 H         1 UNK         0.0600 
    228 H228       -1.3407  -23.7150  -56.3905 H         1 UNK         0.0600 
    229 H229       -1.7965  -24.0162  -54.7235 H         1 UNK         0.0600 
    230 H230       -3.6741  -21.7173  -53.6645 H         1 UNK         0.3000 
    231 H231       -2.0617  -19.2917  -54.3269 H         1 UNK         0.0600 
    232 H232       -2.9884  -20.5058  -51.6805 H         1 UNK         0.0600 
    233 H233       -1.3415  -20.4236  -52.2938 H         1 UNK         0.0600 
    234 H234       -2.1729  -18.9518  -51.8254 H         1 UNK         0.0600 
    235 H235       -5.2324  -20.3685  -54.3932 H         1 UNK         0.3000 
    236 H236       -7.2492  -19.5251  -54.5488 H         1 UNK         0.0600 
    237 H237       -6.2287  -18.1280  -56.3486 H         1 UNK         0.0600 
    238 H238       -7.5628  -17.2973  -55.5656 H         1 UNK         0.0600 
    239 H239       -5.9075  -16.8439  -55.1835 H         1 UNK         0.0600 
    240 H240       -6.4556  -19.8924  -51.9958 H         1 UNK         0.3000 
    241 H241       -6.8699  -17.6290  -50.2893 H         1 UNK         0.0600 
    242 H242       -8.7123  -16.9922  -49.0044 H         1 UNK         0.3800 
    243 H243      -10.2967  -17.6325  -49.3294 H         1 UNK         0.3800 
    244 H244       -6.8442  -19.2468  -48.4196 H         1 UNK         0.0800 
    245 H245       -7.0470  -20.5812  -49.5220 H         1 UNK         0.0800 
    246 H246       -4.2120  -18.5649  -47.5919 H         1 UNK         0.0800 
    247 H247       -4.9124  -17.4805  -48.7684 H         1 UNK         0.0800 
@<TRIPOS>BOND
     1    1    2 1    
     2    1  127 1    
     3    1  128 1    
     4    1  129 1    
     5    2    3 2    
     6    2    4 am   BACKBONE|DICT|INTERRES
     7    4    5 1    
     8    4  130 1    
     9    5    6 1    
    10    5   65 1    
    11    5  131 1    
    12    6    7 1    
    13    6  132 1    
    14    6  133 1    
    15    7    8 1    
    16    8    9 1    
    17    8  134 1    
    18    8  135 1    
    19    9   10 ar   
    20    9   14 ar   
    21   10   11 ar   
    22   10  136 1    
    23   11   12 ar   
    24   11  126 1    
    25   12   13 ar   
    26   12  137 1    
    27   13   14 ar   
    28   13   15 1    
    29   14  138 1    
    30   15   16 1    
    31   15  139 1    
    32   15  140 1    
    33   16   17 1    
    34   17   18 1    
    35   17  141 1    
    36   17  142 1    
    37   18   19 1    
    38   18   67 1    
    39   18  143 1    
    40   19   20 am   BACKBONE|DICT|INTERRES
    41   19  144 1    
    42   20   21 2    
    43   20   22 1    
    44   22   23 1    
    45   22   24 1    
    46   22  145 1    
    47   23  146 1    
    48   23  147 1    
    49   23  148 1    
    50   24   25 am   BACKBONE|DICT|INTERRES
    51   24  149 1    
    52   25   26 2    
    53   25   27 1    
    54   27   28 1    
    55   27   29 1    
    56   27  150 1    
    57   28  151 1    
    58   28  152 1    
    59   28  153 1    
    60   29   30 am   BACKBONE|DICT|INTERRES
    61   29  154 1    
    62   30   31 2    
    63   30   32 1    
    64   32   33 1    
    65   32   34 1    
    66   32  155 1    
    67   33  156 1    
    68   33  157 1    
    69   33  158 1    
    70   34   35 am   BACKBONE|DICT|INTERRES
    71   34  159 1    
    72   35   36 2    
    73   35   37 1    
    74   37   38 1    
    75   37   39 1    
    76   37  160 1    
    77   38  161 1    
    78   38  162 1    
    79   38  163 1    
    80   39   40 am   BACKBONE|DICT|INTERRES
    81   39  164 1    
    82   40   41 2    
    83   40   42 1    
    84   42   43 1    
    85   42   44 1    
    86   42  165 1    
    87   43  166 1    
    88   43  167 1    
    89   43  168 1    
    90   44   45 am   BACKBONE|DICT|INTERRES
    91   44  169 1    
    92   45   46 2    
    93   45   47 1    
    94   47   48 1    
    95   47   49 1    
    96   47  170 1    
    97   48  171 1    
    98   48  172 1    
    99   48  173 1    
   100   49   50 am   BACKBONE|DICT|INTERRES
   101   49  174 1    
   102   50   51 2    
   103   50   52 1    
   104   52   53 1    
   105   52   54 1    
   106   52  175 1    
   107   53  176 1    
   108   53  177 1    
   109   53  178 1    
   110   54   55 am   BACKBONE|DICT|INTERRES
   111   54  179 1    
   112   55   56 2    
   113   55   57 1    
   114   57   58 1    
   115   57   59 1    
   116   57  180 1    
   117   58  181 1    
   118   58  182 1    
   119   58  183 1    
   120   59   60 am   BACKBONE|DICT|INTERRES
   121   59  184 1    
   122   60   61 2    
   123   60   62 1    
   124   62   63 1    
   125   62   64 1    
   126   62  185 1    
   127   63  186 1    
   128   63  187 1    
   129   63  188 1    
   130   64   65 am   BACKBONE|DICT|INTERRES
   131   64  189 1    
   132   65   66 2    
   133   67   68 2    
   134   67   69 am   BACKBONE|DICT|INTERRES
   135   69   70 1    
   136   69  190 1    
   137   70   71 1    
   138   70   72 1    
   139   70  191 1    
   140   71  192 1    
   141   71  193 1    
   142   71  194 1    
   143   72   73 2    
   144   72   74 am   BACKBONE|DICT|INTERRES
   145   74   75 1    
   146   74  195 1    
   147   75   76 1    
   148   75   77 1    
   149   75  196 1    
   150   76  197 1    
   151   76  198 1    
   152   76  199 1    
   153   77   78 2    
   154   77   79 am   BACKBONE|DICT|INTERRES
   155   79   80 1    
   156   79  200 1    
   157   80   81 1    
   158   80   82 1    
   159   80  201 1    
   160   81  202 1    
   161   81  203 1    
   162   81  204 1    
   163   82   83 2    
   164   82   84 am   BACKBONE|DICT|INTERRES
   165   84   85 1    
   166   84  205 1    
   167   85   86 1    
   168   85   87 1    
   169   85  206 1    
   170   86  207 1    
   171   86  208 1    
   172   86  209 1    
   173   87   88 2    
   174   87   89 am   BACKBONE|DICT|INTERRES
   175   89   90 1    
   176   89  210 1    
   177   90   91 1    
   178   90   92 1    
   179   90  211 1    
   180   91  212 1    
   181   91  213 1    
   182   91  214 1    
   183   92   93 2    
   184   92   94 am   BACKBONE|DICT|INTERRES
   185   94   95 1    
   186   94  215 1    
   187   95   96 1    
   188   95   97 1    
   189   95  216 1    
   190   96  217 1    
   191   96  218 1    
   192   96  219 1    
   193   97   98 2    
   194   97   99 am   BACKBONE|DICT|INTERRES
   195   99  100 1    
   196   99  220 1    
   197  100  101 1    
   198  100  102 1    
   199  100  221 1    
   200  101  222 1    
   201  101  223 1    
   202  101  224 1    
   203  102  103 2    
   204  102  104 am   BACKBONE|DICT|INTERRES
   205  104  105 1    
   206  104  225 1    
   207  105  106 1    
   208  105  107 1    
   209  105  226 1    
   210  106  227 1    
   211  106  228 1    
   212  106  229 1    
   213  107  108 2    
   214  107  109 am   BACKBONE|DICT|INTERRES
   215  109  110 1    
   216  109  230 1    
   217  110  111 1    
   218  110  112 1    
   219  110  231 1    
   220  111  232 1    
   221  111  233 1    
   222  111  234 1    
   223  112  113 2    
   224  112  114 am   BACKBONE|DICT|INTERRES
   225  114  115 1    
   226  114  235 1    
   227  115  116 1    
   228  115  117 1    
   229  115  236 1    
   230  116  237 1    
   231  116  238 1    
   232  116  239 1    
   233  117  118 2    
   234  117  119 am   BACKBONE|DICT|INTERRES
   235  119  120 1    
   236  119  240 1    
   237  120  121 1    
   238  120  124 1    
   239  120  241 1    
   240  121  122 am   BACKBONE|DICT|INTERRES
   241  121  123 2    
   242  122  242 1    
   243  122  243 1    
   244  124  125 1    
   245  124  244 1    
   246  124  245 1    
   247  125  126 1    
   248  126  246 1    
   249  126  247 1    
@<TRIPOS>SUBSTRUCTURE
     1 UNK         1 GROUP             0       ****    0 ROOT    
