@<TRIPOS>MOLECULE
3R540
247   249    1
SMALL
USER_CHARGES


@<TRIPOS>ATOM
      1 CA          2.5803   -9.4564  -46.9398 C.3       0 UNK        -0.1800 
      2 C           1.7533  -10.7321  -46.8821 C.2       0 UNK         0.5000 
      3 O           0.5441  -10.6658  -46.6584 O.2       0 UNK        -0.5000 
      4 N           2.4023  -11.8913  -47.0661 N.am      1 UNK        -0.5000 
      5 CA          1.8171  -13.2363  -47.0106 C.3       1 UNK         0.1400 
      6 C6          0.9030  -13.5357  -48.2311 C.3       23 UNK        -0.0398 
      7 S7          0.5693  -15.3196  -48.4446 S.3       23 UNK        -0.2404 
      8 C8          1.8149  -15.7486  -49.6948 C.3       23 UNK        -0.0205 
      9 C9          1.7282  -17.2069  -50.1212 C.ar      23 UNK        -0.0193 
     10 C10         0.9054  -17.5772  -51.1892 C.ar      23 UNK        -0.1150 
     11 C11         0.8992  -18.8940  -51.6591 C.ar      23 UNK        -0.0193 
     12 C12         1.7146  -19.8471  -51.0408 C.ar      23 UNK        -0.1150 
     13 C13         2.5313  -19.4946  -49.9611 C.ar      23 UNK        -0.0193 
     14 C14         2.5251  -18.1736  -49.5000 C.ar      23 UNK        -0.1150 
     15 C15         3.4845  -20.5150  -49.3479 C.3       23 UNK        -0.0205 
     16 S16         2.6436  -21.9375  -48.5812 S.3       23 UNK        -0.2404 
     17 C17         1.8106  -21.1572  -47.1589 C.3       23 UNK        -0.0398 
     18 CA          0.3468  -21.6268  -46.9901 C.3       11 UNK         0.1400 
     19 N          -0.1560  -21.3621  -45.6338 N.am      11 UNK        -0.5000 
     20 C          -1.3768  -21.6714  -45.1671 C.2       10 UNK         0.5000 
     21 O          -2.2560  -22.2094  -45.8409 O.2       10 UNK        -0.5000 
     22 CA         -1.6876  -21.2622  -43.7168 C.3       10 UNK         0.1400 
     23 CB         -0.9558  -22.1611  -42.7087 C.3       10 UNK        -0.1800 
     24 N          -1.3507  -19.8615  -43.4750 N.am      10 UNK        -0.5000 
     25 C          -2.0109  -18.8281  -44.0163 C.2       9 UNK         0.5000 
     26 O          -3.0470  -18.9441  -44.6703 O.2       9 UNK        -0.5000 
     27 CA         -1.3942  -17.4316  -43.8188 C.3       9 UNK         0.1400 
     28 CB         -1.8533  -16.8376  -42.4751 C.3       9 UNK        -0.1800 
     29 N           0.0710  -17.4361  -43.9067 N.am      9 UNK        -0.5000 
     30 C           0.7653  -17.8088  -44.9945 C.2       8 UNK         0.5000 
     31 O           0.2409  -18.1291  -46.0582 O.2       8 UNK        -0.5000 
     32 CA          2.2946  -17.9250  -44.8588 C.3       8 UNK         0.1400 
     33 CB          3.0014  -16.5994  -45.1583 C.3       8 UNK        -0.1800 
     34 N           2.6947  -18.4124  -43.5421 N.am      8 UNK        -0.5000 
     35 C           2.5040  -19.6692  -43.1188 C.2       7 UNK         0.5000 
     36 O           2.0229  -20.5600  -43.8188 O.2       7 UNK        -0.5000 
     37 CA          2.8547  -19.9538  -41.6476 C.3       7 UNK         0.1400 
     38 CB          4.3619  -20.1994  -41.4844 C.3       7 UNK        -0.1800 
     39 N           2.4395  -18.8593  -40.7678 N.am      7 UNK        -0.5000 
     40 C           1.1624  -18.5154  -40.5460 C.2       6 UNK         0.5000 
     41 O           0.2045  -19.1418  -40.9982 O.2       6 UNK        -0.5000 
     42 CA          0.9170  -17.2363  -39.7225 C.3       6 UNK         0.1400 
     43 CB          0.7756  -17.5757  -38.2316 C.3       6 UNK        -0.1800 
     44 N           1.9743  -16.2355  -39.8941 N.am      6 UNK        -0.5000 
     45 C           2.2034  -15.5516  -41.0232 C.2       5 UNK         0.5000 
     46 O           1.5313  -15.6741  -42.0487 O.2       5 UNK        -0.5000 
     47 CA          3.4430  -14.6499  -41.0202 C.3       5 UNK         0.1400 
     48 CB          4.6768  -15.4433  -41.4908 C.3       5 UNK        -0.1800 
     49 N           3.2505  -13.4805  -41.8765 N.am      5 UNK        -0.5000 
     50 C           3.9262  -12.3320  -41.7254 C.2       4 UNK         0.5000 
     51 O           4.7466  -12.1406  -40.8262 O.2       4 UNK        -0.5000 
     52 CA          3.6570  -11.2012  -42.7308 C.3       4 UNK         0.1400 
     53 CB          4.4798  -11.4062  -44.0131 C.3       4 UNK        -0.1800 
     54 N           2.2395  -11.0885  -43.0669 N.am      4 UNK        -0.5000 
     55 C           1.3711  -10.2897  -42.4297 C.2       3 UNK         0.5000 
     56 O           1.6811   -9.5752  -41.4754 O.2       3 UNK        -0.5000 
     57 CA         -0.0826  -10.2533  -42.9434 C.3       3 UNK         0.1400 
     58 CB         -0.3402   -8.9620  -43.7358 C.3       3 UNK        -0.1800 
     59 N          -0.4160  -11.4016  -43.7854 N.am      3 UNK        -0.5000 
     60 C          -0.7578  -12.6067  -43.3083 C.2       2 UNK         0.5000 
     61 O          -0.9136  -12.8461  -42.1108 O.2       2 UNK        -0.5000 
     62 CA         -0.9344  -13.7443  -44.3339 C.3       2 UNK         0.1400 
     63 CB         -2.4179  -13.9169  -44.6944 C.3       2 UNK        -0.1800 
     64 N          -0.1635  -13.5766  -45.5652 N.am      2 UNK        -0.5000 
     65 C           1.1703  -13.4743  -45.6274 C.2       1 UNK         0.5000 
     66 O           1.8937  -13.4963  -44.6311 O.2       1 UNK        -0.5000 
     67 C          -0.5612  -21.0588  -48.1018 C.2       11 UNK         0.5000 
     68 O          -0.7924  -21.7462  -49.0962 O.2       11 UNK        -0.5000 
     69 N          -1.1250  -19.8648  -47.8665 N.am      12 UNK        -0.5000 
     70 CA         -2.0814  -19.1692  -48.7309 C.3       12 UNK         0.1400 
     71 CB         -2.4604  -17.8297  -48.0811 C.3       12 UNK        -0.1800 
     72 C          -3.3551  -19.9696  -49.0805 C.2       12 UNK         0.5000 
     73 O          -4.0368  -19.6049  -50.0367 O.2       12 UNK        -0.5000 
     74 N          -3.6531  -21.0325  -48.3218 N.am      13 UNK        -0.5000 
     75 CA         -4.6408  -22.0490  -48.6665 C.3       13 UNK         0.1400 
     76 CB         -5.6820  -22.1561  -47.5420 C.3       13 UNK        -0.1800 
     77 C          -3.9502  -23.4000  -48.9083 C.2       13 UNK         0.5000 
     78 O          -4.1776  -24.0210  -49.9455 O.2       13 UNK        -0.5000 
     79 N          -3.1150  -23.8349  -47.9530 N.am      14 UNK        -0.5000 
     80 CA         -2.5293  -25.1755  -47.8683 C.3       14 UNK         0.1400 
     81 CB         -1.7747  -25.3130  -46.5367 C.3       14 UNK        -0.1800 
     82 C          -1.6255  -25.5973  -49.0423 C.2       14 UNK         0.5000 
     83 O          -1.4193  -26.7984  -49.2187 O.2       14 UNK        -0.5000 
     84 N          -1.1207  -24.6389  -49.8328 N.am      15 UNK        -0.5000 
     85 CA         -0.2898  -24.8874  -51.0149 C.3       15 UNK         0.1400 
     86 CB          0.2041  -23.5500  -51.5807 C.3       15 UNK        -0.1800 
     87 C          -0.9765  -25.7232  -52.1165 C.2       15 UNK         0.5000 
     88 O          -0.2813  -26.4398  -52.8384 O.2       15 UNK        -0.5000 
     89 N          -2.3117  -25.6473  -52.2147 N.am      16 UNK        -0.5000 
     90 CA         -3.1143  -26.4469  -53.1471 C.3       16 UNK         0.1400 
     91 CB         -3.1825  -25.7430  -54.5136 C.3       16 UNK        -0.1800 
     92 C          -4.5124  -26.7712  -52.5909 C.2       16 UNK         0.5000 
     93 O          -5.4126  -27.0951  -53.3673 O.2       16 UNK        -0.5000 
     94 N          -4.6876  -26.6465  -51.2674 N.am      17 UNK        -0.5000 
     95 CA         -5.9278  -26.7346  -50.4813 C.3       17 UNK         0.1400 
     96 CB         -6.5878  -28.1211  -50.6031 C.3       17 UNK        -0.1800 
     97 C          -6.9336  -25.6002  -50.7713 C.2       17 UNK         0.5000 
     98 O          -7.4448  -24.9882  -49.8324 O.2       17 UNK        -0.5000 
     99 N          -7.1842  -25.3245  -52.0551 N.am      18 UNK        -0.5000 
    100 CA        -7.9494  -24.1853  -52.5391 C.3       18 UNK         0.1400 
    101 CB        -8.5211  -24.5141  -53.9274 C.3       18 UNK        -0.1800 
    102 C         -7.0443  -22.9457  -52.6037 C.2       18 UNK         0.5000 
    103 O         -6.0648  -22.9404  -53.3555 O.2       18 UNK        -0.5000 
    104 N         -7.4154  -21.9001  -51.8549 N.am      19 UNK        -0.5000 
    105 CA        -6.7296  -20.6040  -51.8337 C.3       19 UNK         0.1400 
    106 CB        -7.2881  -19.7637  -50.6748 C.3       19 UNK        -0.1800 
    107 C         -6.8376  -19.8311  -53.1621 C.2       19 UNK         0.5000 
    108 O         -5.9682  -19.0154  -53.4675 O.2       19 UNK        -0.5000 
    109 N         -7.8897  -20.1220  -53.9405 N.am      20 UNK        -0.5000 
    110 CA        -8.0965  -19.6059  -55.2935 C.3       20 UNK         0.1400 
    111 CB        -9.5370  -19.9162  -55.7288 C.3       20 UNK        -0.1800 
    112 C         -7.0907  -20.1735  -56.3153 C.2       20 UNK         0.5000 
    113 O         -6.8327  -19.5211  -57.3276 O.2       20 UNK        -0.5000 
    114 N         -6.5460  -21.3668  -56.0374 N.am      21 UNK        -0.5000 
    115 CA        -5.5071  -22.0054  -56.8372 C.3       21 UNK         0.1400 
    116 CB        -5.6987  -23.5329  -56.8160 C.3       21 UNK        -0.1800 
    117 C         -4.1222  -21.5939  -56.3159 C.2       21 UNK         0.5000 
    118 O         -3.3776  -20.9271  -57.0346 O.2       21 UNK        -0.5000 
    119 N         -3.8081  -21.9986  -55.0765 N.am      22 UNK        -0.5000 
    120 CA        -2.5238  -21.7712  -54.3844 C.3       22 UNK         0.1400 
    121 C         -1.2683  -22.4190  -55.0595 C.2       22 UNK         0.5000 
    122 N         -1.4124  -23.2840  -56.0555 N.am      22 UNK        -0.7600 
    123 O         -0.1367  -22.1565  -54.6678 O.2       22 UNK        -0.5000 
    124 C124       -2.3145  -20.2694  -54.0302 C.3       23 UNK        -0.0398 
    125 S125       -1.5255  -20.0173  -52.4024 S.3       23 UNK        -0.2404 
    126 C126        0.0630  -19.2703  -52.8741 C.3       23 UNK        -0.0205 
    127 H127        2.1721   -8.7783  -47.6891 H         1 UNK         0.0600 
    128 H128        3.6209   -9.6584  -47.1942 H         1 UNK         0.0600 
    129 H129        2.5576   -8.9528  -45.9733 H         1 UNK         0.0600 
    130 H130        3.4006  -11.8680  -47.2198 H         1 UNK         0.3000 
    131 H131        2.6672  -13.9179  -47.0632 H         1 UNK         0.0600 
    132 H132        1.3799  -13.1657  -49.1396 H         1 UNK         0.0800 
    133 H133       -0.0422  -12.9945  -48.1713 H         1 UNK         0.0800 
    134 H134        2.8091  -15.5339  -49.2999 H         1 UNK         0.0800 
    135 H135        1.6873  -15.1066  -50.5678 H         1 UNK         0.0800 
    136 H136        0.2935  -16.8310  -51.6762 H         1 UNK         0.1150 
    137 H137        1.7270  -20.8615  -51.4134 H         1 UNK         0.1150 
    138 H138        3.1705  -17.8854  -48.6821 H         1 UNK         0.1150 
    139 H139        4.1447  -20.8864  -50.1328 H         1 UNK         0.0800 
    140 H140        4.1323  -20.0462  -48.6055 H         1 UNK         0.0800 
    141 H141        1.8568  -20.0714  -47.2432 H         1 UNK         0.0800 
    142 H142        2.3933  -21.4194  -46.2758 H         1 UNK         0.0800 
    143 H143        0.3340  -22.7126  -47.0994 H         1 UNK         0.0600 
    144 H144        0.5065  -20.9374  -44.9915 H         1 UNK         0.3000 
    145 H145       -2.7608  -21.3869  -43.5575 H         1 UNK         0.0600 
    146 H146       -1.2225  -21.8995  -41.6845 H         1 UNK         0.0600 
    147 H147        0.1271  -22.0824  -42.7995 H         1 UNK         0.0600 
    148 H148       -1.2217  -23.2083  -42.8578 H         1 UNK         0.0600 
    149 H149       -0.5486  -19.6715  -42.8847 H         1 UNK         0.3000 
    150 H150       -1.7595  -16.7933  -44.6241 H         1 UNK         0.0600 
    151 H151       -2.9116  -16.5783  -42.5157 H         1 UNK         0.0600 
    152 H152       -1.3076  -15.9341  -42.2083 H         1 UNK         0.0600 
    153 H153       -1.7322  -17.5449  -41.6556 H         1 UNK         0.0600 
    154 H154        0.5826  -17.1112  -43.0935 H         1 UNK         0.3000 
    155 H155        2.6356  -18.6464  -45.6026 H         1 UNK         0.0600 
    156 H156        2.6759  -16.1927  -46.1159 H         1 UNK         0.0600 
    157 H157        4.0817  -16.7331  -45.2116 H         1 UNK         0.0600 
    158 H158        2.7973  -15.8576  -44.3889 H         1 UNK         0.0600 
    159 H159        3.0537  -17.7288  -42.8938 H         1 UNK         0.3000 
    160 H160        2.3232  -20.8588  -41.3453 H         1 UNK         0.0600 
    161 H161        4.9475  -19.3183  -41.7497 H         1 UNK         0.0600 
    162 H162        4.6942  -21.0192  -42.1227 H         1 UNK         0.0600 
    163 H163        4.6078  -20.4690  -40.4571 H         1 UNK         0.0600 
    164 H164        3.1698  -18.3073  -40.3442 H         1 UNK         0.3000 
    165 H165       -0.0228  -16.7968  -40.0615 H         1 UNK         0.0600 
    166 H166        0.5284  -16.6893  -37.6471 H         1 UNK         0.0600 
    167 H167       -0.0227  -18.3018  -38.0711 H         1 UNK         0.0600 
    168 H168        1.6936  -18.0019  -37.8252 H         1 UNK         0.0600 
    169 H169        2.5776  -16.0832  -39.0984 H         1 UNK         0.3000 
    170 H170        3.6049  -14.3150  -39.9932 H         1 UNK         0.0600 
    171 H171        4.5778  -15.7588  -42.5300 H         1 UNK         0.0600 
    172 H172        5.5856  -14.8468  -41.4108 H         1 UNK         0.0600 
    173 H173        4.8273  -16.3384  -40.8863 H         1 UNK         0.0600 
    174 H174        2.5877  -13.5914  -42.6387 H         1 UNK         0.3000 
    175 H175        3.9965  -10.2677  -42.2765 H         1 UNK         0.0600 
    176 H176        4.2264  -12.3376  -44.5190 H         1 UNK         0.0600 
    177 H177        4.3247  -10.5878  -44.7153 H         1 UNK         0.0600 
    178 H178        5.5462  -11.4405  -43.7870 H         1 UNK         0.0600 
    179 H179        1.9007  -11.7197  -43.7844 H         1 UNK         0.3000 
    180 H180       -0.7401  -10.2477  -42.0715 H         1 UNK         0.0600 
    181 H181       -1.3713   -8.9122  -44.0859 H         1 UNK         0.0600 
    182 H182        0.3135   -8.8834  -44.6046 H         1 UNK         0.0600 
    183 H183       -0.1654   -8.0822  -43.1153 H         1 UNK         0.0600 
    184 H184       -0.2944  -11.2825  -44.7855 H         1 UNK         0.3000 
    185 H185       -0.5692  -14.6564  -43.8654 H         1 UNK         0.0600 
    186 H186       -2.8281  -13.0106  -45.1416 H         1 UNK         0.0600 
    187 H187       -2.5665  -14.7322  -45.4021 H         1 UNK         0.0600 
    188 H188       -3.0108  -14.1425  -43.8071 H         1 UNK         0.0600 
    189 H189       -0.6940  -13.5246  -46.4219 H         1 UNK         0.3000 
    190 H190       -0.8181  -19.3485  -47.0459 H         1 UNK         0.3000 
    191 H191       -1.5620  -18.9553  -49.6658 H         1 UNK         0.0600 
    192 H192       -2.9990  -17.9763  -47.1453 H         1 UNK         0.0600 
    193 H193       -3.1005  -17.2425  -48.7405 H         1 UNK         0.0600 
    194 H194       -1.5780  -17.2286  -47.8685 H         1 UNK         0.0600 
    195 H195       -3.0358  -21.2506  -47.5486 H         1 UNK         0.3000 
    196 H196       -5.1645  -21.7891  -49.5866 H         1 UNK         0.0600 
    197 H197       -6.2211  -21.2169  -47.4183 H         1 UNK         0.0600 
    198 H198       -5.2225  -22.4050  -46.5845 H         1 UNK         0.0600 
    199 H199       -6.4192  -22.9281  -47.7670 H         1 UNK         0.0600 
    200 H200       -2.9338  -23.2356  -47.1505 H         1 UNK         0.3000 
    201 H201       -3.3634  -25.8797  -47.8507 H         1 UNK         0.0600 
    202 H202       -2.4268  -25.1039  -45.6885 H         1 UNK         0.0600 
    203 H203       -0.9262  -24.6314  -46.4838 H         1 UNK         0.0600 
    204 H204       -1.3895  -26.3251  -46.4060 H         1 UNK         0.0600 
    205 H205       -1.3003  -23.6657  -49.6039 H         1 UNK         0.3000 
    206 H206        0.5838  -25.4524  -50.6839 H         1 UNK         0.0600 
    207 H207        0.8046  -23.6970  -52.4792 H         1 UNK         0.0600 
    208 H208       -0.6265  -22.8941  -51.8419 H         1 UNK         0.0600 
    209 H209        0.8288  -23.0268  -50.8578 H         1 UNK         0.0600 
    210 H210       -2.8145  -25.0153  -51.6026 H         1 UNK         0.3000 
    211 H211       -2.6329  -27.4166  -53.2895 H         1 UNK         0.0600 
    212 H212       -3.6388  -24.7574  -54.4279 H         1 UNK         0.0600 
    213 H213       -3.7664  -26.3170  -55.2340 H         1 UNK         0.0600 
    214 H214       -2.1860  -25.6255  -54.9367 H         1 UNK         0.0600 
    215 H215       -3.8845  -26.3535  -50.7309 H         1 UNK         0.3000 
    216 H216       -5.6185  -26.6136  -49.4418 H         1 UNK         0.0600 
    217 H217       -7.4367  -28.2056  -49.9237 H         1 UNK         0.0600 
    218 H218       -5.8862  -28.9150  -50.3472 H         1 UNK         0.0600 
    219 H219       -6.9597  -28.3130  -51.6097 H         1 UNK         0.0600 
    220 H220       -6.6845  -25.8702  -52.7520 H         1 UNK         0.3000 
    221 H221       -8.7857  -23.9947  -51.8630 H         1 UNK         0.0600 
    222 H222       -7.7344  -24.7596  -54.6419 H         1 UNK         0.0600 
    223 H223       -9.2023  -25.3637  -53.8793 H         1 UNK         0.0600 
    224 H224       -9.0815  -23.6700  -54.3314 H         1 UNK         0.0600 
    225 H225       -8.2253  -21.9883  -51.2579 H         1 UNK         0.3000 
    226 H226       -5.6688  -20.7902  -51.6605 H         1 UNK         0.0600 
    227 H227       -7.1539  -20.2685  -49.7184 H         1 UNK         0.0600 
    228 H228       -6.7720  -18.8050  -50.6069 H         1 UNK         0.0600 
    229 H229       -8.3514  -19.5571  -50.8013 H         1 UNK         0.0600 
    230 H230       -8.5684  -20.7858  -53.5989 H         1 UNK         0.3000 
    231 H231       -7.9699  -18.5215  -55.2703 H         1 UNK         0.0600 
    232 H232       -9.7372  -19.5211  -56.7256 H         1 UNK         0.0600 
    233 H233      -10.2607  -19.4639  -55.0505 H         1 UNK         0.0600 
    234 H234       -9.7269  -20.9900  -55.7572 H         1 UNK         0.0600 
    235 H235       -6.7645  -21.8070  -55.1539 H         1 UNK         0.3000 
    236 H236       -5.5856  -21.6810  -57.8772 H         1 UNK         0.0600 
    237 H237       -5.6614  -23.9442  -55.8075 H         1 UNK         0.0600 
    238 H238       -6.6598  -23.8107  -57.2489 H         1 UNK         0.0600 
    239 H239       -4.9246  -24.0307  -57.4010 H         1 UNK         0.0600 
    240 H240       -4.5096  -22.4996  -54.5391 H         1 UNK         0.3000 
    241 H241       -2.6402  -22.3201  -53.4491 H         1 UNK         0.0600 
    242 H242       -0.5910  -23.6912  -56.4731 H         1 UNK         0.3800 
    243 H243       -2.3244  -23.5121  -56.4127 H         1 UNK         0.3800 
    244 H244       -1.7616  -19.7511  -54.8153 H         1 UNK         0.0800 
    245 H245       -3.2787  -19.7620  -53.9731 H         1 UNK         0.0800 
    246 H246       -0.1231  -18.3880  -53.4883 H         1 UNK         0.0800 
    247 H247        0.6241  -19.9656  -53.4986 H         1 UNK         0.0800 
@<TRIPOS>BOND
     1    1    2 1    
     2    1  127 1    
     3    1  128 1    
     4    1  129 1    
     5    2    3 2    
     6    2    4 am   BACKBONE|DICT|INTERRES
     7    4    5 1    
     8    4  130 1    
     9    5    6 1    
    10    5   65 1    
    11    5  131 1    
    12    6    7 1    
    13    6  132 1    
    14    6  133 1    
    15    7    8 1    
    16    8    9 1    
    17    8  134 1    
    18    8  135 1    
    19    9   10 ar   
    20    9   14 ar   
    21   10   11 ar   
    22   10  136 1    
    23   11   12 ar   
    24   11  126 1    
    25   12   13 ar   
    26   12  137 1    
    27   13   14 ar   
    28   13   15 1    
    29   14  138 1    
    30   15   16 1    
    31   15  139 1    
    32   15  140 1    
    33   16   17 1    
    34   17   18 1    
    35   17  141 1    
    36   17  142 1    
    37   18   19 1    
    38   18   67 1    
    39   18  143 1    
    40   19   20 am   BACKBONE|DICT|INTERRES
    41   19  144 1    
    42   20   21 2    
    43   20   22 1    
    44   22   23 1    
    45   22   24 1    
    46   22  145 1    
    47   23  146 1    
    48   23  147 1    
    49   23  148 1    
    50   24   25 am   BACKBONE|DICT|INTERRES
    51   24  149 1    
    52   25   26 2    
    53   25   27 1    
    54   27   28 1    
    55   27   29 1    
    56   27  150 1    
    57   28  151 1    
    58   28  152 1    
    59   28  153 1    
    60   29   30 am   BACKBONE|DICT|INTERRES
    61   29  154 1    
    62   30   31 2    
    63   30   32 1    
    64   32   33 1    
    65   32   34 1    
    66   32  155 1    
    67   33  156 1    
    68   33  157 1    
    69   33  158 1    
    70   34   35 am   BACKBONE|DICT|INTERRES
    71   34  159 1    
    72   35   36 2    
    73   35   37 1    
    74   37   38 1    
    75   37   39 1    
    76   37  160 1    
    77   38  161 1    
    78   38  162 1    
    79   38  163 1    
    80   39   40 am   BACKBONE|DICT|INTERRES
    81   39  164 1    
    82   40   41 2    
    83   40   42 1    
    84   42   43 1    
    85   42   44 1    
    86   42  165 1    
    87   43  166 1    
    88   43  167 1    
    89   43  168 1    
    90   44   45 am   BACKBONE|DICT|INTERRES
    91   44  169 1    
    92   45   46 2    
    93   45   47 1    
    94   47   48 1    
    95   47   49 1    
    96   47  170 1    
    97   48  171 1    
    98   48  172 1    
    99   48  173 1    
   100   49   50 am   BACKBONE|DICT|INTERRES
   101   49  174 1    
   102   50   51 2    
   103   50   52 1    
   104   52   53 1    
   105   52   54 1    
   106   52  175 1    
   107   53  176 1    
   108   53  177 1    
   109   53  178 1    
   110   54   55 am   BACKBONE|DICT|INTERRES
   111   54  179 1    
   112   55   56 2    
   113   55   57 1    
   114   57   58 1    
   115   57   59 1    
   116   57  180 1    
   117   58  181 1    
   118   58  182 1    
   119   58  183 1    
   120   59   60 am   BACKBONE|DICT|INTERRES
   121   59  184 1    
   122   60   61 2    
   123   60   62 1    
   124   62   63 1    
   125   62   64 1    
   126   62  185 1    
   127   63  186 1    
   128   63  187 1    
   129   63  188 1    
   130   64   65 am   BACKBONE|DICT|INTERRES
   131   64  189 1    
   132   65   66 2    
   133   67   68 2    
   134   67   69 am   BACKBONE|DICT|INTERRES
   135   69   70 1    
   136   69  190 1    
   137   70   71 1    
   138   70   72 1    
   139   70  191 1    
   140   71  192 1    
   141   71  193 1    
   142   71  194 1    
   143   72   73 2    
   144   72   74 am   BACKBONE|DICT|INTERRES
   145   74   75 1    
   146   74  195 1    
   147   75   76 1    
   148   75   77 1    
   149   75  196 1    
   150   76  197 1    
   151   76  198 1    
   152   76  199 1    
   153   77   78 2    
   154   77   79 am   BACKBONE|DICT|INTERRES
   155   79   80 1    
   156   79  200 1    
   157   80   81 1    
   158   80   82 1    
   159   80  201 1    
   160   81  202 1    
   161   81  203 1    
   162   81  204 1    
   163   82   83 2    
   164   82   84 am   BACKBONE|DICT|INTERRES
   165   84   85 1    
   166   84  205 1    
   167   85   86 1    
   168   85   87 1    
   169   85  206 1    
   170   86  207 1    
   171   86  208 1    
   172   86  209 1    
   173   87   88 2    
   174   87   89 am   BACKBONE|DICT|INTERRES
   175   89   90 1    
   176   89  210 1    
   177   90   91 1    
   178   90   92 1    
   179   90  211 1    
   180   91  212 1    
   181   91  213 1    
   182   91  214 1    
   183   92   93 2    
   184   92   94 am   BACKBONE|DICT|INTERRES
   185   94   95 1    
   186   94  215 1    
   187   95   96 1    
   188   95   97 1    
   189   95  216 1    
   190   96  217 1    
   191   96  218 1    
   192   96  219 1    
   193   97   98 2    
   194   97   99 am   BACKBONE|DICT|INTERRES
   195   99  100 1    
   196   99  220 1    
   197  100  101 1    
   198  100  102 1    
   199  100  221 1    
   200  101  222 1    
   201  101  223 1    
   202  101  224 1    
   203  102  103 2    
   204  102  104 am   BACKBONE|DICT|INTERRES
   205  104  105 1    
   206  104  225 1    
   207  105  106 1    
   208  105  107 1    
   209  105  226 1    
   210  106  227 1    
   211  106  228 1    
   212  106  229 1    
   213  107  108 2    
   214  107  109 am   BACKBONE|DICT|INTERRES
   215  109  110 1    
   216  109  230 1    
   217  110  111 1    
   218  110  112 1    
   219  110  231 1    
   220  111  232 1    
   221  111  233 1    
   222  111  234 1    
   223  112  113 2    
   224  112  114 am   BACKBONE|DICT|INTERRES
   225  114  115 1    
   226  114  235 1    
   227  115  116 1    
   228  115  117 1    
   229  115  236 1    
   230  116  237 1    
   231  116  238 1    
   232  116  239 1    
   233  117  118 2    
   234  117  119 am   BACKBONE|DICT|INTERRES
   235  119  120 1    
   236  119  240 1    
   237  120  121 1    
   238  120  124 1    
   239  120  241 1    
   240  121  122 am   BACKBONE|DICT|INTERRES
   241  121  123 2    
   242  122  242 1    
   243  122  243 1    
   244  124  125 1    
   245  124  244 1    
   246  124  245 1    
   247  125  126 1    
   248  126  246 1    
   249  126  247 1    
@<TRIPOS>SUBSTRUCTURE
     1 UNK         1 GROUP             0       ****    0 ROOT    
