@<TRIPOS>MOLECULE
3R540
247   249    1
SMALL
USER_CHARGES


@<TRIPOS>ATOM
      1 CA          4.3607   -9.4090  -50.3787 C.3       0 UNK        -0.1800 
      2 C           3.7801  -10.7256  -49.8817 C.2       0 UNK         0.5000 
      3 O           2.9911  -10.7255  -48.9365 O.2       0 UNK        -0.5000 
      4 N           4.1618  -11.8403  -50.5211 N.am      1 UNK        -0.5000 
      5 CA          3.7815  -13.2161  -50.1721 C.3       1 UNK         0.1400 
      6 C6          2.2381  -13.4336  -50.1989 C.3       23 UNK        -0.0398 
      7 S7          1.7619  -15.1040  -50.7532 S.3       23 UNK        -0.2404 
      8 C8          0.7093  -15.6726  -49.3804 C.3       23 UNK        -0.0205 
      9 C9          0.1564  -17.0602  -49.6628 C.ar      23 UNK        -0.0193 
     10 C10        -1.2089  -17.2431  -49.8993 C.ar      23 UNK        -0.1150 
     11 C11        -1.7142  -18.5132  -50.1898 C.ar      23 UNK        -0.0193 
     12 C12        -0.8446  -19.6069  -50.2273 C.ar      23 UNK        -0.1150 
     13 C13         0.5225  -19.4419  -49.9839 C.ar      23 UNK        -0.0193 
     14 C14         1.0156  -18.1624  -49.7056 C.ar      23 UNK        -0.1150 
     15 C15         1.4512  -20.6508  -50.0646 C.3       23 UNK        -0.0205 
     16 S16         2.7303  -20.7333  -48.7595 S.3       23 UNK        -0.2404 
     17 C17         1.7829  -20.4904  -47.2185 C.3       23 UNK        -0.0398 
     18 CA          1.2357  -21.7972  -46.5965 C.3       11 UNK         0.1400 
     19 N           0.9546  -21.6380  -45.1686 N.am      11 UNK        -0.5000 
     20 C           0.5585  -22.6142  -44.3398 C.2       10 UNK         0.5000 
     21 O           0.4545  -23.7961  -44.6688 O.2       10 UNK        -0.5000 
     22 CA          0.1601  -22.1860  -42.9160 C.3       10 UNK         0.1400 
     23 CB          1.4013  -22.0195  -42.0272 C.3       10 UNK        -0.1800 
     24 N          -0.6297  -20.9525  -42.9022 N.am      10 UNK        -0.5000 
     25 C          -1.8458  -20.8264  -43.4532 C.2       9 UNK         0.5000 
     26 O          -2.4506  -21.7553  -43.9872 O.2       9 UNK        -0.5000 
     27 CA         -2.4774  -19.4224  -43.4495 C.3       9 UNK         0.1400 
     28 CB         -3.0973  -19.1038  -42.0812 C.3       9 UNK        -0.1800 
     29 N          -1.5295  -18.3725  -43.8275 N.am      9 UNK        -0.5000 
     30 C          -0.9430  -18.2834  -45.0301 C.2       8 UNK         0.5000 
     31 O          -1.1732  -19.0566  -45.9586 O.2       8 UNK        -0.5000 
     32 CA          0.1217  -17.1868  -45.2156 C.3       8 UNK         0.1400 
     33 CB         -0.5236  -15.8268  -45.5173 C.3       8 UNK        -0.1800 
     34 N           1.0187  -17.0649  -44.0653 N.am      8 UNK        -0.5000 
     35 C           1.8247  -18.0416  -43.6260 C.2       7 UNK         0.5000 
     36 O           1.9533  -19.1263  -44.1910 O.2       7 UNK        -0.5000 
     37 CA          2.5536  -17.7992  -42.2946 C.3       7 UNK         0.1400 
     38 CB          3.8195  -16.9509  -42.4824 C.3       7 UNK        -0.1800 
     39 N           1.6692  -17.1996  -41.2924 N.am      7 UNK        -0.5000 
     40 C           0.6592  -17.8671  -40.7138 C.2       6 UNK         0.5000 
     41 O           0.3850  -19.0393  -40.9685 O.2       6 UNK        -0.5000 
     42 CA         -0.2054  -17.1040  -39.6967 C.3       6 UNK         0.1400 
     43 CB          0.4580  -17.1109  -38.3116 C.3       6 UNK        -0.1800 
     44 N          -0.4861  -15.7253  -40.0874 N.am      6 UNK        -0.5000 
     45 C          -1.1975  -15.3415  -41.1536 C.2       5 UNK         0.5000 
     46 O          -1.6685  -16.1243  -41.9777 O.2       5 UNK        -0.5000 
     47 CA         -1.3928  -13.8250  -41.3449 C.3       5 UNK         0.1400 
     48 CB         -2.2636  -13.2101  -40.2320 C.3       5 UNK        -0.1800 
     49 N          -0.1237  -13.1093  -41.5092 N.am      5 UNK        -0.5000 
     50 C           0.8906  -12.9729  -40.6433 C.2       4 UNK         0.5000 
     51 O           0.8225  -13.3026  -39.4577 O.2       4 UNK        -0.5000 
     52 CA          2.2196  -12.4052  -41.1906 C.3       4 UNK         0.1400 
     53 CB          3.4194  -13.2560  -40.7258 C.3       4 UNK        -0.1800 
     54 N           2.2847  -12.2101  -42.6485 N.am      4 UNK        -0.5000 
     55 C           2.1569  -13.1254  -43.6225 C.2       3 UNK         0.5000 
     56 O           1.8011  -14.2894  -43.4247 O.2       3 UNK        -0.5000 
     57 CA          2.4052  -12.6371  -45.0670 C.3       3 UNK         0.1400 
     58 CB          3.3076  -11.3853  -45.1528 C.3       3 UNK        -0.1800 
     59 N           2.9215  -13.6842  -45.9526 N.am      3 UNK        -0.5000 
     60 C           4.0548  -14.3913  -45.8140 C.2       2 UNK         0.5000 
     61 O           4.8197  -14.3046  -44.8529 O.2       2 UNK        -0.5000 
     62 CA          4.4199  -15.3235  -46.9888 C.3       2 UNK         0.1400 
     63 CB          3.8223  -16.7238  -46.7807 C.3       2 UNK        -0.1800 
     64 N           3.9848  -14.7977  -48.2886 N.am      2 UNK        -0.5000 
     65 C           4.4595  -13.6799  -48.8572 C.2       1 UNK         0.5000 
     66 O           5.4062  -13.0405  -48.3896 O.2       1 UNK        -0.5000 
     67 C          -0.0042  -22.3103  -47.3542 C.2       11 UNK         0.5000 
     68 O           0.0933  -23.3098  -48.0647 O.2       11 UNK        -0.5000 
     69 N          -1.1542  -21.6501  -47.1532 N.am      12 UNK        -0.5000 
     70 CA         -2.4400  -22.0270  -47.7372 C.3       12 UNK         0.1400 
     71 CB         -3.4988  -20.9688  -47.3973 C.3       12 UNK        -0.1800 
     72 C          -2.9034  -23.4282  -47.3067 C.2       12 UNK         0.5000 
     73 O          -3.3697  -24.1872  -48.1529 O.2       12 UNK        -0.5000 
     74 N          -2.7327  -23.7690  -46.0221 N.am      13 UNK        -0.5000 
     75 CA         -3.0262  -25.0945  -45.4752 C.3       13 UNK         0.1400 
     76 CB         -2.8711  -25.0759  -43.9471 C.3       13 UNK        -0.1800 
     77 C          -2.1608  -26.2005  -46.1068 C.2       13 UNK         0.5000 
     78 O          -2.7005  -27.2266  -46.5228 O.2       13 UNK        -0.5000 
     79 N          -0.8471  -25.9538  -46.2147 N.am      14 UNK        -0.5000 
     80 CA          0.1183  -26.8501  -46.8573 C.3       14 UNK         0.1400 
     81 CB          1.5417  -26.3302  -46.6052 C.3       14 UNK        -0.1800 
     82 C          -0.1360  -27.0307  -48.3668 C.2       14 UNK         0.5000 
     83 O           0.0272  -28.1351  -48.8862 O.2       14 UNK        -0.5000 
     84 N          -0.5614  -25.9507  -49.0330 N.am      15 UNK        -0.5000 
     85 CA         -0.9152  -25.9072  -50.4519 C.3       15 UNK         0.1400 
     86 CB         -0.7430  -24.4633  -50.9472 C.3       15 UNK        -0.1800 
     87 C          -2.3363  -26.4257  -50.7616 C.2       15 UNK         0.5000 
     88 O          -2.7398  -26.3837  -51.9247 O.2       15 UNK        -0.5000 
     89 N          -3.0790  -26.8805  -49.7397 N.am      16 UNK        -0.5000 
     90 CA         -4.4535  -27.3936  -49.8015 C.3       16 UNK         0.1400 
     91 CB         -4.5005  -28.7372  -50.5584 C.3       16 UNK        -0.1800 
     92 C          -5.4461  -26.3475  -50.3529 C.2       16 UNK         0.5000 
     93 O          -6.2040  -26.6287  -51.2820 O.2       16 UNK        -0.5000 
     94 N          -5.3735  -25.1413  -49.7758 N.am      17 UNK        -0.5000 
     95 CA         -6.0884  -23.8993  -50.0888 C.3       17 UNK         0.1400 
     96 CB         -7.6105  -24.1070  -50.2210 C.3       17 UNK        -0.1800 
     97 C          -5.5046  -23.1229  -51.2838 C.2       17 UNK         0.5000 
     98 O          -5.8922  -21.9709  -51.4789 O.2       17 UNK        -0.5000 
     99 N          -4.5854  -23.7358  -52.0458 N.am      18 UNK        -0.5000 
    100 CA        -3.8296  -23.2213  -53.1990 C.3       18 UNK         0.1400 
    101 CB        -2.9464  -22.0282  -52.7913 C.3       18 UNK        -0.1800 
    102 C         -4.6651  -22.8730  -54.4502 C.2       18 UNK         0.5000 
    103 O         -4.2078  -23.1385  -55.5629 O.2       18 UNK        -0.5000 
    104 N         -5.8588  -22.2997  -54.2508 N.am      19 UNK        -0.5000 
    105 CA        -6.7937  -21.7806  -55.2520 C.3       19 UNK         0.1400 
    106 CB        -7.3297  -22.9218  -56.1454 C.3       19 UNK        -0.1800 
    107 C         -6.2083  -20.5906  -56.0466 C.2       19 UNK         0.5000 
    108 O         -5.2907  -19.9200  -55.5649 O.2       19 UNK        -0.5000 
    109 N         -6.7730  -20.3251  -57.2342 N.am      20 UNK        -0.5000 
    110 CA        -6.4571  -19.2117  -58.1342 C.3       20 UNK         0.1400 
    111 CB        -5.0446  -19.3767  -58.7404 C.3       20 UNK        -0.1800 
    112 C         -6.6939  -17.8525  -57.4441 C.2       20 UNK         0.5000 
    113 O         -7.8493  -17.4559  -57.2837 O.2       20 UNK        -0.5000 
    114 N         -5.6127  -17.1747  -57.0382 N.am      21 UNK        -0.5000 
    115 CA        -5.6497  -15.9213  -56.2844 C.3       21 UNK         0.1400 
    116 CB        -4.2650  -15.2587  -56.3539 C.3       21 UNK        -0.1800 
    117 C         -6.0847  -16.1060  -54.8163 C.2       21 UNK         0.5000 
    118 O         -6.6218  -15.1662  -54.2278 O.2       21 UNK        -0.5000 
    119 N         -5.8417  -17.2937  -54.2487 N.am      22 UNK        -0.5000 
    120 CA        -6.2334  -17.6609  -52.8819 C.3       22 UNK         0.1400 
    121 C         -7.7266  -18.0799  -52.8231 C.2       22 UNK         0.5000 
    122 N         -8.4675  -17.6253  -51.8217 N.am      22 UNK        -0.7600 
    123 O         -8.2106  -18.8456  -53.6538 O.2       22 UNK        -0.5000 
    124 C124       -5.3326  -18.7847  -52.3153 C.3       23 UNK        -0.0398 
    125 S125       -3.5768  -18.2924  -52.2113 S.3       23 UNK        -0.2404 
    126 C126       -3.1953  -18.6997  -50.4798 C.3       23 UNK        -0.0205 
    127 H127        5.0334   -9.5551  -51.2242 H         1 UNK         0.0600 
    128 H128        4.9195   -8.9212  -49.5800 H         1 UNK         0.0600 
    129 H129        3.5593   -8.7405  -50.6933 H         1 UNK         0.0600 
    130 H130        4.8335  -11.7623  -51.2720 H         1 UNK         0.3000 
    131 H131        4.2245  -13.8270  -50.9601 H         1 UNK         0.0600 
    132 H132        1.7822  -13.1955  -49.2363 H         1 UNK         0.0800 
    133 H133        1.7803  -12.7447  -50.9102 H         1 UNK         0.0800 
    134 H134        1.2738  -15.6940  -48.4491 H         1 UNK         0.0800 
    135 H135       -0.1034  -14.9591  -49.2339 H         1 UNK         0.0800 
    136 H136       -1.8792  -16.3953  -49.8786 H         1 UNK         0.1150 
    137 H137       -1.2326  -20.5877  -50.4611 H         1 UNK         0.1150 
    138 H138        2.0732  -18.0197  -49.5345 H         1 UNK         0.1150 
    139 H139        0.8749  -21.5764  -50.0447 H         1 UNK         0.0800 
    140 H140        1.9515  -20.6319  -51.0334 H         1 UNK         0.0800 
    141 H141        0.9963  -19.7487  -47.3546 H         1 UNK         0.0800 
    142 H142        2.4891  -20.0322  -46.5264 H         1 UNK         0.0800 
    143 H143        2.0099  -22.5635  -46.6746 H         1 UNK         0.0600 
    144 H144        1.0650  -20.7003  -44.7916 H         1 UNK         0.3000 
    145 H145       -0.4561  -22.9808  -42.4910 H         1 UNK         0.0600 
    146 H146        1.1207  -21.7973  -40.9975 H         1 UNK         0.0600 
    147 H147        1.9968  -22.9331  -42.0126 H         1 UNK         0.0600 
    148 H148        2.0446  -21.2127  -42.3791 H         1 UNK         0.0600 
    149 H149       -0.2165  -20.1529  -42.4305 H         1 UNK         0.3000 
    150 H150       -3.2807  -19.4218  -44.1891 H         1 UNK         0.0600 
    151 H151       -3.6200  -18.1475  -42.0987 H         1 UNK         0.0600 
    152 H152       -3.8232  -19.8658  -41.7949 H         1 UNK         0.0600 
    153 H153       -2.3425  -19.0584  -41.2965 H         1 UNK         0.0600 
    154 H154       -1.3315  -17.6629  -43.1280 H         1 UNK         0.3000 
    155 H155        0.7219  -17.4731  -46.0802 H         1 UNK         0.0600 
    156 H156       -1.1095  -15.4630  -44.6726 H         1 UNK         0.0600 
    157 H157       -1.1898  -15.8937  -46.3785 H         1 UNK         0.0600 
    158 H158        0.2320  -15.0764  -45.7482 H         1 UNK         0.0600 
    159 H159        1.0252  -16.1737  -43.5804 H         1 UNK         0.3000 
    160 H160        2.8722  -18.7733  -41.9168 H         1 UNK         0.0600 
    161 H161        3.5992  -15.9636  -42.8823 H         1 UNK         0.0600 
    162 H162        4.5076  -17.4328  -43.1779 H         1 UNK         0.0600 
    163 H163        4.3503  -16.8196  -41.5396 H         1 UNK         0.0600 
    164 H164        1.8129  -16.2269  -41.0660 H         1 UNK         0.3000 
    165 H165       -1.1608  -17.6263  -39.6179 H         1 UNK         0.0600 
    166 H166       -0.1903  -16.6564  -37.5623 H         1 UNK         0.0600 
    167 H167        0.6684  -18.1298  -37.9837 H         1 UNK         0.0600 
    168 H168        1.4017  -16.5638  -38.3144 H         1 UNK         0.0600 
    169 H169       -0.0824  -14.9900  -39.5138 H         1 UNK         0.3000 
    170 H170       -1.9302  -13.6954  -42.2857 H         1 UNK         0.0600 
    171 H171       -3.2364  -13.7010  -40.1876 H         1 UNK         0.0600 
    172 H172       -1.8082  -13.3058  -39.2463 H         1 UNK         0.0600 
    173 H173       -2.4427  -12.1506  -40.4150 H         1 UNK         0.0600 
    174 H174        0.0796  -12.8353  -42.4595 H         1 UNK         0.3000 
    175 H175        2.3249  -11.4139  -40.7478 H         1 UNK         0.0600 
    176 H176        3.3472  -14.2831  -41.0828 H         1 UNK         0.0600 
    177 H177        4.3605  -12.8422  -41.0881 H         1 UNK         0.0600 
    178 H178        3.4817  -13.2921  -39.6376 H         1 UNK         0.0600 
    179 H179        2.5322  -11.2729  -42.9342 H         1 UNK         0.3000 
    180 H180        1.4260  -12.3661  -45.4638 H         1 UNK         0.0600 
    181 H181        4.2721  -11.5472  -44.6697 H         1 UNK         0.0600 
    182 H182        2.8392  -10.5183  -44.6864 H         1 UNK         0.0600 
    183 H183        3.5024  -11.1158  -46.1912 H         1 UNK         0.0600 
    184 H184        2.3709  -13.8550  -46.7790 H         1 UNK         0.3000 
    185 H185        5.5077  -15.4178  -47.0096 H         1 UNK         0.0600 
    186 H186        4.1395  -17.1474  -45.8269 H         1 UNK         0.0600 
    187 H187        2.7345  -16.6977  -46.7797 H         1 UNK         0.0600 
    188 H188        4.1404  -17.4126  -47.5636 H         1 UNK         0.0600 
    189 H189        3.2592  -15.3091  -48.7700 H         1 UNK         0.3000 
    190 H190       -1.1492  -20.8105  -46.5777 H         1 UNK         0.3000 
    191 H191       -2.3155  -22.0418  -48.8214 H         1 UNK         0.0600 
    192 H192       -3.1906  -19.9800  -47.7369 H         1 UNK         0.0600 
    193 H193       -4.4498  -21.1988  -47.8793 H         1 UNK         0.0600 
    194 H194       -3.6781  -20.9088  -46.3236 H         1 UNK         0.0600 
    195 H195       -2.3955  -23.0676  -45.3678 H         1 UNK         0.3000 
    196 H196       -4.0697  -25.3211  -45.7039 H         1 UNK         0.0600 
    197 H197       -3.1059  -26.0511  -43.5188 H         1 UNK         0.0600 
    198 H198       -3.5453  -24.3500  -43.4923 H         1 UNK         0.0600 
    199 H199       -1.8550  -24.8210  -43.6465 H         1 UNK         0.0600 
    200 H200       -0.4764  -25.0897  -45.8285 H         1 UNK         0.3000 
    201 H201        0.0264  -27.8312  -46.3870 H         1 UNK         0.0600 
    202 H202        1.7579  -26.2767  -45.5380 H         1 UNK         0.0600 
    203 H203        1.6862  -25.3339  -47.0246 H         1 UNK         0.0600 
    204 H204        2.2850  -26.9887  -47.0560 H         1 UNK         0.0600 
    205 H205       -0.6001  -25.0641  -48.5371 H         1 UNK         0.3000 
    206 H206       -0.2176  -26.5384  -51.0057 H         1 UNK         0.0600 
    207 H207        0.2758  -24.1100  -50.7869 H         1 UNK         0.0600 
    208 H208       -0.9479  -24.3819  -52.0151 H         1 UNK         0.0600 
    209 H209       -1.4176  -23.7860  -50.4233 H         1 UNK         0.0600 
    210 H210       -2.6750  -26.8355  -48.8128 H         1 UNK         0.3000 
    211 H211       -4.7537  -27.5871  -48.7706 H         1 UNK         0.0600 
    212 H212       -4.2431  -28.6213  -51.6115 H         1 UNK         0.0600 
    213 H213       -5.4982  -29.1752  -50.5125 H         1 UNK         0.0600 
    214 H214       -3.8095  -29.4584  -50.1220 H         1 UNK         0.0600 
    215 H215       -4.6380  -25.0072  -49.0810 H         1 UNK         0.3000 
    216 H216       -5.9290  -23.2589  -49.2201 H         1 UNK         0.0600 
    217 H217       -8.1290  -23.1481  -50.2562 H         1 UNK         0.0600 
    218 H218       -8.0106  -24.6609  -49.3718 H         1 UNK         0.0600 
    219 H219       -7.8728  -24.6454  -51.1318 H         1 UNK         0.0600 
    220 H220       -4.3730  -24.6972  -51.8117 H         1 UNK         0.3000 
    221 H221       -3.1628  -24.0340  -53.4913 H         1 UNK         0.0600 
    222 H222       -3.5466  -21.1720  -52.4929 H         1 UNK         0.0600 
    223 H223       -2.2928  -22.2763  -51.9583 H         1 UNK         0.0600 
    224 H224       -2.3136  -21.7076  -53.6196 H         1 UNK         0.0600 
    225 H225       -6.0887  -22.0844  -53.2835 H         1 UNK         0.3000 
    226 H226       -7.6361  -21.3803  -54.6866 H         1 UNK         0.0600 
    227 H227       -7.6520  -23.7718  -55.5436 H         1 UNK         0.0600 
    228 H228       -8.1947  -22.6006  -56.7260 H         1 UNK         0.0600 
    229 H229       -6.5745  -23.2785  -56.8465 H         1 UNK         0.0600 
    230 H230       -7.5412  -20.9104  -57.5299 H         1 UNK         0.3000 
    231 H231       -7.1716  -19.2646  -58.9570 H         1 UNK         0.0600 
    232 H232       -4.2615  -19.3996  -57.9823 H         1 UNK         0.0600 
    233 H233       -4.8167  -18.5618  -59.4287 H         1 UNK         0.0600 
    234 H234       -4.9747  -20.3043  -59.3085 H         1 UNK         0.0600 
    235 H235       -4.7045  -17.5920  -57.1820 H         1 UNK         0.3000 
    236 H236       -6.3705  -15.2536  -56.7611 H         1 UNK         0.0600 
    237 H237       -3.9732  -15.0599  -57.3853 H         1 UNK         0.0600 
    238 H238       -4.2623  -14.3039  -55.8264 H         1 UNK         0.0600 
    239 H239       -3.4961  -15.8860  -55.9008 H         1 UNK         0.0600 
    240 H240       -5.4572  -18.0454  -54.8115 H         1 UNK         0.3000 
    241 H241       -6.1015  -16.7848  -52.2435 H         1 UNK         0.0600 
    242 H242       -8.0933  -16.9983  -51.1261 H         1 UNK         0.3800 
    243 H243       -9.4352  -17.9027  -51.7658 H         1 UNK         0.3800 
    244 H244       -5.6795  -19.0813  -51.3239 H         1 UNK         0.0800 
    245 H245       -5.4024  -19.6788  -52.9348 H         1 UNK         0.0800 
    246 H246       -3.7877  -18.0691  -49.8152 H         1 UNK         0.0800 
    247 H247       -3.4910  -19.7307  -50.2786 H         1 UNK         0.0800 
@<TRIPOS>BOND
     1    1    2 1    
     2    1  127 1    
     3    1  128 1    
     4    1  129 1    
     5    2    3 2    
     6    2    4 am   BACKBONE|DICT|INTERRES
     7    4    5 1    
     8    4  130 1    
     9    5    6 1    
    10    5   65 1    
    11    5  131 1    
    12    6    7 1    
    13    6  132 1    
    14    6  133 1    
    15    7    8 1    
    16    8    9 1    
    17    8  134 1    
    18    8  135 1    
    19    9   10 ar   
    20    9   14 ar   
    21   10   11 ar   
    22   10  136 1    
    23   11   12 ar   
    24   11  126 1    
    25   12   13 ar   
    26   12  137 1    
    27   13   14 ar   
    28   13   15 1    
    29   14  138 1    
    30   15   16 1    
    31   15  139 1    
    32   15  140 1    
    33   16   17 1    
    34   17   18 1    
    35   17  141 1    
    36   17  142 1    
    37   18   19 1    
    38   18   67 1    
    39   18  143 1    
    40   19   20 am   BACKBONE|DICT|INTERRES
    41   19  144 1    
    42   20   21 2    
    43   20   22 1    
    44   22   23 1    
    45   22   24 1    
    46   22  145 1    
    47   23  146 1    
    48   23  147 1    
    49   23  148 1    
    50   24   25 am   BACKBONE|DICT|INTERRES
    51   24  149 1    
    52   25   26 2    
    53   25   27 1    
    54   27   28 1    
    55   27   29 1    
    56   27  150 1    
    57   28  151 1    
    58   28  152 1    
    59   28  153 1    
    60   29   30 am   BACKBONE|DICT|INTERRES
    61   29  154 1    
    62   30   31 2    
    63   30   32 1    
    64   32   33 1    
    65   32   34 1    
    66   32  155 1    
    67   33  156 1    
    68   33  157 1    
    69   33  158 1    
    70   34   35 am   BACKBONE|DICT|INTERRES
    71   34  159 1    
    72   35   36 2    
    73   35   37 1    
    74   37   38 1    
    75   37   39 1    
    76   37  160 1    
    77   38  161 1    
    78   38  162 1    
    79   38  163 1    
    80   39   40 am   BACKBONE|DICT|INTERRES
    81   39  164 1    
    82   40   41 2    
    83   40   42 1    
    84   42   43 1    
    85   42   44 1    
    86   42  165 1    
    87   43  166 1    
    88   43  167 1    
    89   43  168 1    
    90   44   45 am   BACKBONE|DICT|INTERRES
    91   44  169 1    
    92   45   46 2    
    93   45   47 1    
    94   47   48 1    
    95   47   49 1    
    96   47  170 1    
    97   48  171 1    
    98   48  172 1    
    99   48  173 1    
   100   49   50 am   BACKBONE|DICT|INTERRES
   101   49  174 1    
   102   50   51 2    
   103   50   52 1    
   104   52   53 1    
   105   52   54 1    
   106   52  175 1    
   107   53  176 1    
   108   53  177 1    
   109   53  178 1    
   110   54   55 am   BACKBONE|DICT|INTERRES
   111   54  179 1    
   112   55   56 2    
   113   55   57 1    
   114   57   58 1    
   115   57   59 1    
   116   57  180 1    
   117   58  181 1    
   118   58  182 1    
   119   58  183 1    
   120   59   60 am   BACKBONE|DICT|INTERRES
   121   59  184 1    
   122   60   61 2    
   123   60   62 1    
   124   62   63 1    
   125   62   64 1    
   126   62  185 1    
   127   63  186 1    
   128   63  187 1    
   129   63  188 1    
   130   64   65 am   BACKBONE|DICT|INTERRES
   131   64  189 1    
   132   65   66 2    
   133   67   68 2    
   134   67   69 am   BACKBONE|DICT|INTERRES
   135   69   70 1    
   136   69  190 1    
   137   70   71 1    
   138   70   72 1    
   139   70  191 1    
   140   71  192 1    
   141   71  193 1    
   142   71  194 1    
   143   72   73 2    
   144   72   74 am   BACKBONE|DICT|INTERRES
   145   74   75 1    
   146   74  195 1    
   147   75   76 1    
   148   75   77 1    
   149   75  196 1    
   150   76  197 1    
   151   76  198 1    
   152   76  199 1    
   153   77   78 2    
   154   77   79 am   BACKBONE|DICT|INTERRES
   155   79   80 1    
   156   79  200 1    
   157   80   81 1    
   158   80   82 1    
   159   80  201 1    
   160   81  202 1    
   161   81  203 1    
   162   81  204 1    
   163   82   83 2    
   164   82   84 am   BACKBONE|DICT|INTERRES
   165   84   85 1    
   166   84  205 1    
   167   85   86 1    
   168   85   87 1    
   169   85  206 1    
   170   86  207 1    
   171   86  208 1    
   172   86  209 1    
   173   87   88 2    
   174   87   89 am   BACKBONE|DICT|INTERRES
   175   89   90 1    
   176   89  210 1    
   177   90   91 1    
   178   90   92 1    
   179   90  211 1    
   180   91  212 1    
   181   91  213 1    
   182   91  214 1    
   183   92   93 2    
   184   92   94 am   BACKBONE|DICT|INTERRES
   185   94   95 1    
   186   94  215 1    
   187   95   96 1    
   188   95   97 1    
   189   95  216 1    
   190   96  217 1    
   191   96  218 1    
   192   96  219 1    
   193   97   98 2    
   194   97   99 am   BACKBONE|DICT|INTERRES
   195   99  100 1    
   196   99  220 1    
   197  100  101 1    
   198  100  102 1    
   199  100  221 1    
   200  101  222 1    
   201  101  223 1    
   202  101  224 1    
   203  102  103 2    
   204  102  104 am   BACKBONE|DICT|INTERRES
   205  104  105 1    
   206  104  225 1    
   207  105  106 1    
   208  105  107 1    
   209  105  226 1    
   210  106  227 1    
   211  106  228 1    
   212  106  229 1    
   213  107  108 2    
   214  107  109 am   BACKBONE|DICT|INTERRES
   215  109  110 1    
   216  109  230 1    
   217  110  111 1    
   218  110  112 1    
   219  110  231 1    
   220  111  232 1    
   221  111  233 1    
   222  111  234 1    
   223  112  113 2    
   224  112  114 am   BACKBONE|DICT|INTERRES
   225  114  115 1    
   226  114  235 1    
   227  115  116 1    
   228  115  117 1    
   229  115  236 1    
   230  116  237 1    
   231  116  238 1    
   232  116  239 1    
   233  117  118 2    
   234  117  119 am   BACKBONE|DICT|INTERRES
   235  119  120 1    
   236  119  240 1    
   237  120  121 1    
   238  120  124 1    
   239  120  241 1    
   240  121  122 am   BACKBONE|DICT|INTERRES
   241  121  123 2    
   242  122  242 1    
   243  122  243 1    
   244  124  125 1    
   245  124  244 1    
   246  124  245 1    
   247  125  126 1    
   248  126  246 1    
   249  126  247 1    
@<TRIPOS>SUBSTRUCTURE
     1 UNK         1 GROUP             0       ****    0 ROOT    
