@<TRIPOS>MOLECULE
3R540
247   249    1
SMALL
USER_CHARGES


@<TRIPOS>ATOM
      1 CA          0.8820   -9.2133  -50.0114 C.3       0 UNK        -0.1800 
      2 C           1.5364   -9.8383  -48.7875 C.2       0 UNK         0.5000 
      3 O           1.9008   -9.1237  -47.8539 O.2       0 UNK        -0.5000 
      4 N           1.6828  -11.1688  -48.7879 N.am      1 UNK        -0.5000 
      5 CA          2.2745  -11.9542  -47.6960 C.3       1 UNK         0.1400 
      6 C6          2.8735  -13.2876  -48.2123 C.3       23 UNK        -0.0398 
      7 S7          1.6673  -14.3745  -49.0503 S.3       23 UNK        -0.2404 
      8 C8          2.3096  -14.4324  -50.7499 C.3       23 UNK        -0.0205 
      9 C9          1.4942  -15.3975  -51.5967 C.ar      23 UNK        -0.0193 
     10 C10         1.8818  -16.7364  -51.7078 C.ar      23 UNK        -0.1150 
     11 C11         1.1167  -17.6347  -52.4574 C.ar      23 UNK        -0.0193 
     12 C12        -0.0286  -17.1827  -53.1169 C.ar      23 UNK        -0.1150 
     13 C13        -0.4238  -15.8468  -53.0173 C.ar      23 UNK        -0.0193 
     14 C14         0.3408  -14.9586  -52.2544 C.ar      23 UNK        -0.1150 
     15 C15        -1.6729  -15.3609  -53.7352 C.3       23 UNK        -0.0205 
     16 S16        -3.1419  -15.4159  -52.6610 S.3       23 UNK        -0.2404 
     17 C17        -3.5987  -17.1894  -52.6966 C.3       23 UNK        -0.0398 
     18 CA         -3.5392  -17.8993  -51.3207 C.3       11 UNK         0.1400 
     19 N          -2.2063  -17.8480  -50.7140 N.am      11 UNK        -0.5000 
     20 C          -1.8296  -18.5545  -49.6409 C.2       10 UNK         0.5000 
     21 O          -2.5632  -19.3515  -49.0515 O.2       10 UNK        -0.5000 
     22 CA         -0.4407  -18.2221  -49.0776 C.3       10 UNK         0.1400 
     23 CB         -0.5521  -16.9734  -48.1961 C.3       10 UNK        -0.1800 
     24 N           0.1648  -19.3060  -48.3025 N.am      10 UNK        -0.5000 
     25 C           0.5215  -20.4991  -48.8024 C.2       9 UNK         0.5000 
     26 O           0.3347  -20.8251  -49.9742 O.2       9 UNK        -0.5000 
     27 CA          1.2434  -21.4979  -47.8715 C.3       9 UNK         0.1400 
     28 CB          2.6860  -21.7254  -48.3521 C.3       9 UNK        -0.1800 
     29 N           1.2836  -21.0826  -46.4699 N.am      9 UNK        -0.5000 
     30 C           0.2703  -21.1887  -45.6002 C.2       8 UNK         0.5000 
     31 O          -0.8104  -21.7051  -45.8745 O.2       8 UNK        -0.5000 
     32 CA          0.4938  -20.5952  -44.1928 C.3       8 UNK         0.1400 
     33 CB          0.8563  -21.7009  -43.1906 C.3       8 UNK        -0.1800 
     34 N           1.5196  -19.5467  -44.1403 N.am      8 UNK        -0.5000 
     35 C           1.4446  -18.3776  -44.7932 C.2       7 UNK         0.5000 
     36 O           0.5094  -18.0936  -45.5384 O.2       7 UNK        -0.5000 
     37 CA          2.6010  -17.3812  -44.5923 C.3       7 UNK         0.1400 
     38 CB          2.1676  -15.9261  -44.8506 C.3       7 UNK        -0.1800 
     39 N           3.1312  -17.4840  -43.2344 N.am      7 UNK        -0.5000 
     40 C           4.4015  -17.7407  -42.8973 C.2       6 UNK         0.5000 
     41 O           5.2912  -17.9572  -43.7207 O.2       6 UNK        -0.5000 
     42 CA          4.7544  -17.7475  -41.3933 C.3       6 UNK         0.1400 
     43 CB          5.6494  -16.5463  -41.0479 C.3       6 UNK        -0.1800 
     44 N           3.5812  -17.7156  -40.5174 N.am      6 UNK        -0.5000 
     45 C           2.8015  -18.7672  -40.2322 C.2       5 UNK         0.5000 
     46 O           3.0251  -19.9109  -40.6287 O.2       5 UNK        -0.5000 
     47 CA          1.5309  -18.4767  -39.4040 C.3       5 UNK         0.1400 
     48 CB          1.8123  -18.6593  -37.9050 C.3       5 UNK        -0.1800 
     49 N           0.9646  -17.1385  -39.6303 N.am      5 UNK        -0.5000 
     50 C           0.5351  -16.6905  -40.8177 C.2       4 UNK         0.5000 
     51 O           0.5965  -17.3620  -41.8480 O.2       4 UNK        -0.5000 
     52 CA          0.0192  -15.2388  -40.8775 C.3       4 UNK         0.1400 
     53 CB          1.1927  -14.2513  -40.7661 C.3       4 UNK        -0.1800 
     54 N          -0.6889  -14.9658  -42.1296 N.am      4 UNK        -0.5000 
     55 C          -1.8664  -15.4987  -42.4828 C.2       3 UNK         0.5000 
     56 O          -2.5640  -16.1723  -41.7222 O.2       3 UNK        -0.5000 
     57 CA         -2.3365  -15.2117  -43.9202 C.3       3 UNK         0.1400 
     58 CB         -3.8564  -15.3827  -44.0991 C.3       3 UNK        -0.1800 
     59 N          -1.9465  -13.8604  -44.3288 N.am      3 UNK        -0.5000 
     60 C          -1.3925  -13.5402  -45.5038 C.2       2 UNK         0.5000 
     61 O          -1.1561  -14.3629  -46.3882 O.2       2 UNK        -0.5000 
     62 CA         -1.0966  -12.0458  -45.7595 C.3       2 UNK         0.1400 
     63 CB         -0.8961  -11.2133  -44.4719 C.3       2 UNK        -0.1800 
     64 N           0.0180  -11.8563  -46.6939 N.am      2 UNK        -0.5000 
     65 C           1.3095  -12.1710  -46.5035 C.2       1 UNK         0.5000 
     66 O           1.7604  -12.6039  -45.4419 O.2       1 UNK        -0.5000 
     67 C          -4.6411  -17.3973  -50.3629 C.2       11 UNK         0.5000 
     68 O          -5.7325  -17.9653  -50.3443 O.2       11 UNK        -0.5000 
     69 N          -4.3142  -16.3923  -49.5368 N.am      12 UNK        -0.5000 
     70 CA         -5.1818  -15.8473  -48.4899 C.3       12 UNK         0.1400 
     71 CB         -4.5695  -14.5383  -47.9709 C.3       12 UNK        -0.1800 
     72 C          -5.4248  -16.8344  -47.3299 C.2       12 UNK         0.5000 
     73 O          -6.4688  -16.7638  -46.6821 O.2       12 UNK        -0.5000 
     74 N          -4.4724  -17.7510  -47.1113 N.am      13 UNK        -0.5000 
     75 CA         -4.5686  -18.8637  -46.1656 C.3       13 UNK         0.1400 
     76 CB         -3.1687  -19.1240  -45.5808 C.3       13 UNK        -0.1800 
     77 C          -5.1282  -20.1412  -46.8286 C.2       13 UNK         0.5000 
     78 O          -5.2233  -21.1724  -46.1610 O.2       13 UNK        -0.5000 
     79 N          -5.4386  -20.0749  -48.1348 N.am      14 UNK        -0.5000 
     80 CA         -5.8602  -21.1668  -49.0203 C.3       14 UNK         0.1400 
     81 CB         -7.2865  -21.6298  -48.6599 C.3       14 UNK        -0.1800 
     82 C          -4.8524  -22.3351  -49.0664 C.2       14 UNK         0.5000 
     83 O          -5.2584  -23.4849  -49.2301 O.2       14 UNK        -0.5000 
     84 N          -3.5633  -22.0248  -48.8639 N.am      15 UNK        -0.5000 
     85 CA         -2.4491  -22.9546  -48.6580 C.3       15 UNK         0.1400 
     86 CB         -2.0546  -23.6297  -49.9833 C.3       15 UNK        -0.1800 
     87 C          -2.6862  -23.9596  -47.5073 C.2       15 UNK         0.5000 
     88 O          -2.2777  -25.1170  -47.6086 O.2       15 UNK        -0.5000 
     89 N          -3.3609  -23.4937  -46.4442 N.am      16 UNK        -0.5000 
     90 CA         -3.8288  -24.2545  -45.2831 C.3       16 UNK         0.1400 
     91 CB         -2.6487  -24.8392  -44.4780 C.3       16 UNK        -0.1800 
     92 C          -4.8931  -25.2981  -45.6807 C.2       16 UNK         0.5000 
     93 O          -4.8210  -26.4544  -45.2609 O.2       16 UNK        -0.5000 
     94 N          -5.8610  -24.8447  -46.4921 N.am      17 UNK        -0.5000 
     95 CA         -6.9634  -25.6031  -47.0912 C.3       17 UNK         0.1400 
     96 CB         -7.9282  -26.1313  -46.0086 C.3       17 UNK        -0.1800 
     97 C          -6.4582  -26.6979  -48.0532 C.2       17 UNK         0.5000 
     98 O          -6.7744  -27.8778  -47.8843 O.2       17 UNK        -0.5000 
     99 N          -5.6734  -26.2729  -49.0472 N.am      18 UNK        -0.5000 
    100 CA        -5.1144  -27.1031  -50.1089 C.3       18 UNK         0.1400 
    101 CB        -3.6929  -27.5537  -49.7154 C.3       18 UNK        -0.1800 
    102 C         -5.1806  -26.3298  -51.4397 C.2       18 UNK         0.5000 
    103 O         -6.1217  -25.5618  -51.6543 O.2       18 UNK        -0.5000 
    104 N         -4.2013  -26.5519  -52.3257 N.am      19 UNK        -0.5000 
    105 CA        -4.0421  -25.8370  -53.5899 C.3       19 UNK         0.1400 
    106 CB        -3.1033  -26.6391  -54.5069 C.3       19 UNK        -0.1800 
    107 C         -3.5011  -24.4219  -53.3242 C.2       19 UNK         0.5000 
    108 O         -2.2982  -24.2629  -53.1112 O.2       19 UNK        -0.5000 
    109 N         -4.4018  -23.4295  -53.3174 N.am      20 UNK        -0.5000 
    110 CA        -4.1449  -22.0295  -52.9570 C.3       20 UNK         0.1400 
    111 CB        -5.4624  -21.2449  -53.0498 C.3       20 UNK        -0.1800 
    112 C         -3.0393  -21.3306  -53.7735 C.2       20 UNK         0.5000 
    113 O         -2.4217  -20.3912  -53.2732 O.2       20 UNK        -0.5000 
    114 N         -2.7660  -21.8234  -54.9882 N.am      21 UNK        -0.5000 
    115 CA        -1.6561  -21.4151  -55.8520 C.3       21 UNK         0.1400 
    116 CB        -1.9938  -21.8114  -57.3007 C.3       21 UNK        -0.1800 
    117 C         -0.2934  -21.9792  -55.3796 C.2       21 UNK         0.5000 
    118 O          0.4566  -22.5383  -56.1822 O.2       21 UNK        -0.5000 
    119 N          0.0006  -21.8099  -54.0851 N.am      22 UNK        -0.5000 
    120 CA         1.2556  -22.1715  -53.4051 C.3       22 UNK         0.1400 
    121 C          1.5329  -23.7035  -53.3162 C.2       22 UNK         0.5000 
    122 N          0.5209  -24.5620  -53.3249 N.am      22 UNK        -0.7600 
    123 O          2.6807  -24.1294  -53.2139 O.2       22 UNK        -0.5000 
    124 C124        2.4855  -21.3661  -53.9274 C.3       23 UNK        -0.0398 
    125 S125        2.2554  -19.5556  -54.0930 S.3       23 UNK        -0.2404 
    126 C126        1.4818  -19.1072  -52.5097 C.3       23 UNK        -0.0205 
    127 H127        1.5631   -8.5021  -50.4787 H         1 UNK         0.0600 
    128 H128       -0.0235   -8.6801  -49.7219 H         1 UNK         0.0600 
    129 H129        0.6119   -9.9637  -50.7550 H         1 UNK         0.0600 
    130 H130        1.3568  -11.7081  -49.5774 H         1 UNK         0.3000 
    131 H131        3.1097  -11.3770  -47.2931 H         1 UNK         0.0600 
    132 H132        3.6962  -13.0710  -48.8948 H         1 UNK         0.0800 
    133 H133        3.3220  -13.8476  -47.3897 H         1 UNK         0.0800 
    134 H134        2.2854  -13.4334  -51.1875 H         1 UNK         0.0800 
    135 H135        3.3560  -14.7415  -50.7348 H         1 UNK         0.0800 
    136 H136        2.7634  -17.0842  -51.1877 H         1 UNK         0.1150 
    137 H137       -0.6168  -17.8803  -53.6972 H         1 UNK         0.1150 
    138 H138        0.0335  -13.9259  -52.1659 H         1 UNK         0.1150 
    139 H139       -1.5228  -14.3321  -54.0662 H         1 UNK         0.0800 
    140 H140       -1.8499  -15.9436  -54.6406 H         1 UNK         0.0800 
    141 H141       -2.9545  -17.7163  -53.4000 H         1 UNK         0.0800 
    142 H142       -4.6020  -17.2726  -53.1181 H         1 UNK         0.0800 
    143 H143       -3.7542  -18.9547  -51.4934 H         1 UNK         0.0600 
    144 H144       -1.5544  -17.2025  -51.1387 H         1 UNK         0.3000 
    145 H145        0.2285  -18.0035  -49.9069 H         1 UNK         0.0600 
    146 H146       -1.2349  -17.1264  -47.3592 H         1 UNK         0.0600 
    147 H147        0.4171  -16.6944  -47.7853 H         1 UNK         0.0600 
    148 H148       -0.9171  -16.1160  -48.7628 H         1 UNK         0.0600 
    149 H149        0.3165  -19.1131  -47.3187 H         1 UNK         0.3000 
    150 H150        0.7147  -22.4506  -47.9382 H         1 UNK         0.0600 
    151 H151        2.7049  -22.0865  -49.3814 H         1 UNK         0.0600 
    152 H152        3.1932  -22.4716  -47.7401 H         1 UNK         0.0600 
    153 H153        3.2715  -20.8058  -48.3166 H         1 UNK         0.0600 
    154 H154        2.1337  -20.6405  -46.1536 H         1 UNK         0.3000 
    155 H155       -0.4512  -20.1467  -43.8791 H         1 UNK         0.0600 
    156 H156        0.0988  -22.4859  -43.1832 H         1 UNK         0.0600 
    157 H157        0.9240  -21.3063  -42.1765 H         1 UNK         0.0600 
    158 H158        1.8116  -22.1672  -43.4345 H         1 UNK         0.0600 
    159 H159        2.3046  -19.7066  -43.5256 H         1 UNK         0.3000 
    160 H160        3.3665  -17.6429  -45.3249 H         1 UNK         0.0600 
    161 H161        1.8222  -15.7900  -45.8764 H         1 UNK         0.0600 
    162 H162        1.3525  -15.6280  -44.1909 H         1 UNK         0.0600 
    163 H163        2.9941  -15.2328  -44.6953 H         1 UNK         0.0600 
    164 H164        2.4317  -17.3914  -42.5040 H         1 UNK         0.3000 
    165 H165        5.3177  -18.6615  -41.1939 H         1 UNK         0.0600 
    166 H166        5.9535  -16.5687  -40.0013 H         1 UNK         0.0600 
    167 H167        6.5600  -16.5497  -41.6484 H         1 UNK         0.0600 
    168 H168        5.1395  -15.5994  -41.2303 H         1 UNK         0.0600 
    169 H169        3.3196  -16.8139  -40.1471 H         1 UNK         0.3000 
    170 H170        0.7767  -19.2084  -39.7013 H         1 UNK         0.0600 
    171 H171        2.2124  -19.6535  -37.7009 H         1 UNK         0.0600 
    172 H172        2.5384  -17.9319  -37.5400 H         1 UNK         0.0600 
    173 H173        0.9014  -18.5507  -37.3160 H         1 UNK         0.0600 
    174 H174        0.8991  -16.5351  -38.8229 H         1 UNK         0.3000 
    175 H175       -0.6676  -15.0785  -40.0440 H         1 UNK         0.0600 
    176 H176        1.9138  -14.3905  -41.5731 H         1 UNK         0.0600 
    177 H177        0.8438  -13.2191  -40.8045 H         1 UNK         0.0600 
    178 H178        1.7269  -14.3740  -39.8232 H         1 UNK         0.0600 
    179 H179       -0.1781  -14.4476  -42.8287 H         1 UNK         0.3000 
    180 H180       -1.8347  -15.9513  -44.5483 H         1 UNK         0.0600 
    181 H181       -4.1553  -15.1795  -45.1257 H         1 UNK         0.0600 
    182 H182       -4.4153  -14.7090  -43.4490 H         1 UNK         0.0600 
    183 H183       -4.1694  -16.4018  -43.8690 H         1 UNK         0.0600 
    184 H184       -2.1078  -13.1301  -43.6492 H         1 UNK         0.3000 
    185 H185       -1.9775  -11.6521  -46.2682 H         1 UNK         0.0600 
    186 H186       -0.1186  -11.6301  -43.8307 H         1 UNK         0.0600 
    187 H187       -0.6136  -10.1877  -44.7102 H         1 UNK         0.0600 
    188 H188       -1.8144  -11.1594  -43.8866 H         1 UNK         0.0600 
    189 H189       -0.2408  -11.5406  -47.6169 H         1 UNK         0.3000 
    190 H190       -3.4004  -15.9734  -49.6310 H         1 UNK         0.3000 
    191 H191       -6.1516  -15.6189  -48.9370 H         1 UNK         0.0600 
    192 H192       -3.5812  -14.7028  -47.5414 H         1 UNK         0.0600 
    193 H193       -4.4689  -13.8049  -48.7712 H         1 UNK         0.0600 
    194 H194       -5.1957  -14.0911  -47.1979 H         1 UNK         0.0600 
    195 H195       -3.6621  -17.7594  -47.7148 H         1 UNK         0.3000 
    196 H196       -5.2379  -18.5984  -45.3450 H         1 UNK         0.0600 
    197 H197       -2.7689  -18.2348  -45.0941 H         1 UNK         0.0600 
    198 H198       -2.4582  -19.4267  -46.3507 H         1 UNK         0.0600 
    199 H199       -3.1940  -19.9174  -44.8329 H         1 UNK         0.0600 
    200 H200       -5.3264  -19.1812  -48.5958 H         1 UNK         0.3000 
    201 H201       -5.8889  -20.7515  -50.0279 H         1 UNK         0.0600 
    202 H202       -7.6595  -22.3542  -49.3850 H         1 UNK         0.0600 
    203 H203       -7.9820  -20.7906  -48.6560 H         1 UNK         0.0600 
    204 H204       -7.3241  -22.1004  -47.6771 H         1 UNK         0.0600 
    205 H205       -3.3178  -21.0397  -48.7803 H         1 UNK         0.3000 
    206 H206       -1.6111  -22.3386  -48.3424 H         1 UNK         0.0600 
    207 H207       -1.8185  -22.8864  -50.7450 H         1 UNK         0.0600 
    208 H208       -2.8554  -24.2639  -50.3625 H         1 UNK         0.0600 
    209 H209       -1.1687  -24.2538  -49.8630 H         1 UNK         0.0600 
    210 H210       -3.6714  -22.5289  -46.4682 H         1 UNK         0.3000 
    211 H211       -4.3350  -23.5351  -44.6378 H         1 UNK         0.0600 
    212 H212       -1.9212  -24.0659  -44.2304 H         1 UNK         0.0600 
    213 H213       -2.9965  -25.2722  -43.5396 H         1 UNK         0.0600 
    214 H214       -2.1289  -25.6256  -45.0254 H         1 UNK         0.0600 
    215 H215       -5.7802  -23.8882  -46.8085 H         1 UNK         0.3000 
    216 H216       -7.5218  -24.8937  -47.7040 H         1 UNK         0.0600 
    217 H217       -8.8027  -26.5979  -46.4634 H         1 UNK         0.0600 
    218 H218       -7.4576  -26.8780  -45.3688 H         1 UNK         0.0600 
    219 H219       -8.2866  -25.3222  -45.3722 H         1 UNK         0.0600 
    220 H220       -5.5060  -25.2709  -49.1458 H         1 UNK         0.3000 
    221 H221       -5.7348  -27.9915  -50.2418 H         1 UNK         0.0600 
    222 H222       -2.9973  -26.7144  -49.6919 H         1 UNK         0.0600 
    223 H223       -3.6867  -28.0127  -48.7264 H         1 UNK         0.0600 
    224 H224       -3.3014  -28.2957  -50.4117 H         1 UNK         0.0600 
    225 H225       -3.4500  -27.1752  -52.0689 H         1 UNK         0.3000 
    226 H226       -5.0123  -25.7613  -54.0858 H         1 UNK         0.0600 
    227 H227       -3.5218  -27.6188  -54.7378 H         1 UNK         0.0600 
    228 H228       -2.9473  -26.1208  -55.4538 H         1 UNK         0.0600 
    229 H229       -2.1235  -26.7930  -54.0526 H         1 UNK         0.0600 
    230 H230       -5.3712  -23.6743  -53.4632 H         1 UNK         0.3000 
    231 H231       -3.8182  -22.0207  -51.9162 H         1 UNK         0.0600 
    232 H232       -5.3267  -20.2032  -52.7586 H         1 UNK         0.0600 
    233 H233       -6.2207  -21.6682  -52.3906 H         1 UNK         0.0600 
    234 H234       -5.8603  -21.2507  -54.0653 H         1 UNK         0.0600 
    235 H235       -3.3002  -22.6211  -55.2986 H         1 UNK         0.3000 
    236 H236       -1.5745  -20.3266  -55.8179 H         1 UNK         0.0600 
    237 H237       -1.2235  -21.4669  -57.9919 H         1 UNK         0.0600 
    238 H238       -2.0774  -22.8931  -57.4121 H         1 UNK         0.0600 
    239 H239       -2.9358  -21.3665  -57.6220 H         1 UNK         0.0600 
    240 H240       -0.6947  -21.3438  -53.5128 H         1 UNK         0.3000 
    241 H241        1.1086  -21.8897  -52.3634 H         1 UNK         0.0600 
    242 H242        0.7174  -25.5470  -53.2613 H         1 UNK         0.3800 
    243 H243       -0.4482  -24.2513  -53.3460 H         1 UNK         0.3800 
    244 H244        3.3400  -21.5256  -53.2679 H         1 UNK         0.0800 
    245 H245        2.7893  -21.7460  -54.9040 H         1 UNK         0.0800 
    246 H246        2.1484  -19.3727  -51.6877 H         1 UNK         0.0800 
    247 H247        0.5656  -19.6794  -52.3663 H         1 UNK         0.0800 
@<TRIPOS>BOND
     1    1    2 1    
     2    1  127 1    
     3    1  128 1    
     4    1  129 1    
     5    2    3 2    
     6    2    4 am   BACKBONE|DICT|INTERRES
     7    4    5 1    
     8    4  130 1    
     9    5    6 1    
    10    5   65 1    
    11    5  131 1    
    12    6    7 1    
    13    6  132 1    
    14    6  133 1    
    15    7    8 1    
    16    8    9 1    
    17    8  134 1    
    18    8  135 1    
    19    9   10 ar   
    20    9   14 ar   
    21   10   11 ar   
    22   10  136 1    
    23   11   12 ar   
    24   11  126 1    
    25   12   13 ar   
    26   12  137 1    
    27   13   14 ar   
    28   13   15 1    
    29   14  138 1    
    30   15   16 1    
    31   15  139 1    
    32   15  140 1    
    33   16   17 1    
    34   17   18 1    
    35   17  141 1    
    36   17  142 1    
    37   18   19 1    
    38   18   67 1    
    39   18  143 1    
    40   19   20 am   BACKBONE|DICT|INTERRES
    41   19  144 1    
    42   20   21 2    
    43   20   22 1    
    44   22   23 1    
    45   22   24 1    
    46   22  145 1    
    47   23  146 1    
    48   23  147 1    
    49   23  148 1    
    50   24   25 am   BACKBONE|DICT|INTERRES
    51   24  149 1    
    52   25   26 2    
    53   25   27 1    
    54   27   28 1    
    55   27   29 1    
    56   27  150 1    
    57   28  151 1    
    58   28  152 1    
    59   28  153 1    
    60   29   30 am   BACKBONE|DICT|INTERRES
    61   29  154 1    
    62   30   31 2    
    63   30   32 1    
    64   32   33 1    
    65   32   34 1    
    66   32  155 1    
    67   33  156 1    
    68   33  157 1    
    69   33  158 1    
    70   34   35 am   BACKBONE|DICT|INTERRES
    71   34  159 1    
    72   35   36 2    
    73   35   37 1    
    74   37   38 1    
    75   37   39 1    
    76   37  160 1    
    77   38  161 1    
    78   38  162 1    
    79   38  163 1    
    80   39   40 am   BACKBONE|DICT|INTERRES
    81   39  164 1    
    82   40   41 2    
    83   40   42 1    
    84   42   43 1    
    85   42   44 1    
    86   42  165 1    
    87   43  166 1    
    88   43  167 1    
    89   43  168 1    
    90   44   45 am   BACKBONE|DICT|INTERRES
    91   44  169 1    
    92   45   46 2    
    93   45   47 1    
    94   47   48 1    
    95   47   49 1    
    96   47  170 1    
    97   48  171 1    
    98   48  172 1    
    99   48  173 1    
   100   49   50 am   BACKBONE|DICT|INTERRES
   101   49  174 1    
   102   50   51 2    
   103   50   52 1    
   104   52   53 1    
   105   52   54 1    
   106   52  175 1    
   107   53  176 1    
   108   53  177 1    
   109   53  178 1    
   110   54   55 am   BACKBONE|DICT|INTERRES
   111   54  179 1    
   112   55   56 2    
   113   55   57 1    
   114   57   58 1    
   115   57   59 1    
   116   57  180 1    
   117   58  181 1    
   118   58  182 1    
   119   58  183 1    
   120   59   60 am   BACKBONE|DICT|INTERRES
   121   59  184 1    
   122   60   61 2    
   123   60   62 1    
   124   62   63 1    
   125   62   64 1    
   126   62  185 1    
   127   63  186 1    
   128   63  187 1    
   129   63  188 1    
   130   64   65 am   BACKBONE|DICT|INTERRES
   131   64  189 1    
   132   65   66 2    
   133   67   68 2    
   134   67   69 am   BACKBONE|DICT|INTERRES
   135   69   70 1    
   136   69  190 1    
   137   70   71 1    
   138   70   72 1    
   139   70  191 1    
   140   71  192 1    
   141   71  193 1    
   142   71  194 1    
   143   72   73 2    
   144   72   74 am   BACKBONE|DICT|INTERRES
   145   74   75 1    
   146   74  195 1    
   147   75   76 1    
   148   75   77 1    
   149   75  196 1    
   150   76  197 1    
   151   76  198 1    
   152   76  199 1    
   153   77   78 2    
   154   77   79 am   BACKBONE|DICT|INTERRES
   155   79   80 1    
   156   79  200 1    
   157   80   81 1    
   158   80   82 1    
   159   80  201 1    
   160   81  202 1    
   161   81  203 1    
   162   81  204 1    
   163   82   83 2    
   164   82   84 am   BACKBONE|DICT|INTERRES
   165   84   85 1    
   166   84  205 1    
   167   85   86 1    
   168   85   87 1    
   169   85  206 1    
   170   86  207 1    
   171   86  208 1    
   172   86  209 1    
   173   87   88 2    
   174   87   89 am   BACKBONE|DICT|INTERRES
   175   89   90 1    
   176   89  210 1    
   177   90   91 1    
   178   90   92 1    
   179   90  211 1    
   180   91  212 1    
   181   91  213 1    
   182   91  214 1    
   183   92   93 2    
   184   92   94 am   BACKBONE|DICT|INTERRES
   185   94   95 1    
   186   94  215 1    
   187   95   96 1    
   188   95   97 1    
   189   95  216 1    
   190   96  217 1    
   191   96  218 1    
   192   96  219 1    
   193   97   98 2    
   194   97   99 am   BACKBONE|DICT|INTERRES
   195   99  100 1    
   196   99  220 1    
   197  100  101 1    
   198  100  102 1    
   199  100  221 1    
   200  101  222 1    
   201  101  223 1    
   202  101  224 1    
   203  102  103 2    
   204  102  104 am   BACKBONE|DICT|INTERRES
   205  104  105 1    
   206  104  225 1    
   207  105  106 1    
   208  105  107 1    
   209  105  226 1    
   210  106  227 1    
   211  106  228 1    
   212  106  229 1    
   213  107  108 2    
   214  107  109 am   BACKBONE|DICT|INTERRES
   215  109  110 1    
   216  109  230 1    
   217  110  111 1    
   218  110  112 1    
   219  110  231 1    
   220  111  232 1    
   221  111  233 1    
   222  111  234 1    
   223  112  113 2    
   224  112  114 am   BACKBONE|DICT|INTERRES
   225  114  115 1    
   226  114  235 1    
   227  115  116 1    
   228  115  117 1    
   229  115  236 1    
   230  116  237 1    
   231  116  238 1    
   232  116  239 1    
   233  117  118 2    
   234  117  119 am   BACKBONE|DICT|INTERRES
   235  119  120 1    
   236  119  240 1    
   237  120  121 1    
   238  120  124 1    
   239  120  241 1    
   240  121  122 am   BACKBONE|DICT|INTERRES
   241  121  123 2    
   242  122  242 1    
   243  122  243 1    
   244  124  125 1    
   245  124  244 1    
   246  124  245 1    
   247  125  126 1    
   248  126  246 1    
   249  126  247 1    
@<TRIPOS>SUBSTRUCTURE
     1 UNK         1 GROUP             0       ****    0 ROOT    
