@<TRIPOS>MOLECULE
3R540
247   249    1
SMALL
USER_CHARGES


@<TRIPOS>ATOM
      1 CA         -2.4285   -8.9635  -45.9550 C.3       0 UNK        -0.1800 
      2 C          -1.5474  -10.2003  -46.0470 C.2       0 UNK         0.5000 
      3 O          -0.8055  -10.4915  -45.1104 O.2       0 UNK        -0.5000 
      4 N          -1.6387  -10.9382  -47.1624 N.am      1 UNK        -0.5000 
      5 CA         -0.8702  -12.1565  -47.4618 C.3       1 UNK         0.1400 
      6 C6         -1.2124  -12.6804  -48.8780 C.3       23 UNK        -0.0398 
      7 S7          0.0174  -13.8424  -49.5624 S.3       23 UNK        -0.2404 
      8 C8         -0.9537  -15.3804  -49.6211 C.3       23 UNK        -0.0205 
      9 C9         -0.2875  -16.4178  -50.5102 C.ar      23 UNK        -0.0193 
     10 C10        -0.5091  -16.4027  -51.8919 C.ar      23 UNK        -0.1150 
     11 C11         0.0925  -17.3529  -52.7232 C.ar      23 UNK        -0.0193 
     12 C12         0.9165  -18.3272  -52.1496 C.ar      23 UNK        -0.1150 
     13 C13         1.1339  -18.3653  -50.7698 C.ar      23 UNK        -0.0193 
     14 C14         0.5370  -17.3996  -49.9542 C.ar      23 UNK        -0.1150 
     15 C15         2.0174  -19.4519  -50.1759 C.3       23 UNK        -0.0205 
     16 S16         1.0470  -20.9087  -49.6702 S.3       23 UNK        -0.2404 
     17 C17         0.7010  -20.4914  -47.9333 C.3       23 UNK        -0.0398 
     18 CA         -0.4903  -21.2607  -47.3132 C.3       11 UNK         0.1400 
     19 N          -0.3818  -21.2991  -45.8525 N.am      11 UNK        -0.5000 
     20 C          -1.1960  -21.9642  -45.0219 C.2       10 UNK         0.5000 
     21 O          -2.1204  -22.6854  -45.3966 O.2       10 UNK        -0.5000 
     22 CA         -0.9694  -21.7366  -43.5149 C.3       10 UNK         0.1400 
     23 CB          0.1833  -22.6061  -42.9917 C.3       10 UNK        -0.1800 
     24 N          -0.7111  -20.3306  -43.1943 N.am      10 UNK        -0.5000 
     25 C          -1.5989  -19.3414  -43.3748 C.2       9 UNK         0.5000 
     26 O          -2.7460  -19.5201  -43.7807 O.2       9 UNK        -0.5000 
     27 CA         -1.1100  -17.9079  -43.1091 C.3       9 UNK         0.1400 
     28 CB         -1.0630  -17.6195  -41.6006 C.3       9 UNK        -0.1800 
     29 N           0.2000  -17.6496  -43.7051 N.am      9 UNK        -0.5000 
     30 C           0.4717  -17.6928  -45.0171 C.2       8 UNK         0.5000 
     31 O          -0.3784  -17.8826  -45.8849 O.2       8 UNK        -0.5000 
     32 CA          1.9511  -17.5763  -45.4268 C.3       8 UNK         0.1400 
     33 CB          2.3740  -16.1103  -45.5850 C.3       8 UNK        -0.1800 
     34 N           2.8421  -18.2493  -44.4805 N.am      8 UNK        -0.5000 
     35 C           2.9022  -19.5785  -44.3154 C.2       7 UNK         0.5000 
     36 O           2.2203  -20.3765  -44.9558 O.2       7 UNK        -0.5000 
     37 CA          3.8493  -20.0985  -43.2202 C.3       7 UNK         0.1400 
     38 CB          5.2971  -20.1460  -43.7305 C.3       7 UNK        -0.1800 
     39 N           3.7861  -19.2843  -42.0071 N.am      7 UNK        -0.5000 
     40 C           2.7141  -19.2045  -41.2059 C.2       6 UNK         0.5000 
     41 O           1.6868  -19.8627  -41.3722 O.2       6 UNK        -0.5000 
     42 CA          2.7889  -18.1716  -40.0636 C.3       6 UNK         0.1400 
     43 CB          3.4552  -18.7835  -38.8225 C.3       6 UNK        -0.1800 
     44 N           3.5020  -16.9475  -40.4492 N.am      6 UNK        -0.5000 
     45 C           3.0831  -16.1088  -41.4053 C.2       5 UNK         0.5000 
     46 O           2.0355  -16.2676  -42.0364 O.2       5 UNK        -0.5000 
     47 CA          4.0052  -14.9365  -41.7627 C.3       5 UNK         0.1400 
     48 CB          5.2002  -15.4346  -42.6009 C.3       5 UNK        -0.1800 
     49 N           3.2164  -13.9712  -42.5202 N.am      5 UNK        -0.5000 
     50 C           3.5755  -12.7338  -42.8742 C.2       4 UNK         0.5000 
     51 O           4.6630  -12.2271  -42.5955 O.2       4 UNK        -0.5000 
     52 CA          2.5380  -11.9167  -43.6681 C.3       4 UNK         0.1400 
     53 CB          2.7539  -12.0887  -45.1794 C.3       4 UNK        -0.1800 
     54 N           1.1489  -12.2518  -43.3422 N.am      4 UNK        -0.5000 
     55 C           0.5482  -11.9466  -42.1812 C.2       3 UNK         0.5000 
     56 O           1.1388  -11.4210  -41.2363 O.2       3 UNK        -0.5000 
     57 CA         -0.9563  -12.2546  -42.0414 C.3       3 UNK         0.1400 
     58 CB         -1.7427  -10.9986  -41.6271 C.3       3 UNK        -0.1800 
     59 N          -1.5313  -12.7666  -43.2854 N.am      3 UNK        -0.5000 
     60 C          -2.1286  -13.9567  -43.4291 C.2       2 UNK         0.5000 
     61 O          -2.2954  -14.7441  -42.4993 O.2       2 UNK        -0.5000 
     62 CA         -2.6533  -14.3424  -44.8302 C.3       2 UNK         0.1400 
     63 CB         -4.1836  -14.4845  -44.8147 C.3       2 UNK        -0.1800 
     64 N          -2.2854  -13.4063  -45.8940 N.am      2 UNK        -0.5000 
     65 C          -1.0495  -13.2522  -46.3873 C.2       1 UNK         0.5000 
     66 O          -0.0734  -13.8755  -45.9734 O.2       1 UNK        -0.5000 
     67 C          -1.8510  -20.6915  -47.7716 C.2       11 UNK         0.5000 
     68 O          -2.5095  -21.2990  -48.6131 O.2       11 UNK        -0.5000 
     69 N          -2.2692  -19.5684  -47.1696 N.am      12 UNK        -0.5000 
     70 CA         -3.5598  -18.9237  -47.4073 C.3       12 UNK         0.1400 
     71 CB         -3.5676  -17.5358  -46.7498 C.3       12 UNK        -0.1800 
     72 C          -4.7589  -19.7627  -46.9240 C.2       12 UNK         0.5000 
     73 O          -5.7891  -19.7836  -47.5961 O.2       12 UNK        -0.5000 
     74 N          -4.6140  -20.4486  -45.7819 N.am      13 UNK        -0.5000 
     75 CA         -5.6371  -21.3299  -45.2135 C.3       13 UNK         0.1400 
     76 CB         -5.2463  -21.7176  -43.7794 C.3       13 UNK        -0.1800 
     77 C          -5.8885  -22.5872  -46.0674 C.2       13 UNK         0.5000 
     78 O          -7.0388  -22.9987  -46.2195 O.2       13 UNK        -0.5000 
     79 N          -4.8138  -23.1574  -46.6254 N.am      14 UNK        -0.5000 
     80 CA         -4.8371  -24.3369  -47.4928 C.3       14 UNK         0.1400 
     81 CB         -3.6019  -25.1961  -47.1737 C.3       14 UNK        -0.1800 
     82 C          -4.9044  -23.9814  -48.9931 C.2       14 UNK         0.5000 
     83 O          -4.6583  -24.8568  -49.8286 O.2       14 UNK        -0.5000 
     84 N          -5.2035  -22.7155  -49.3207 N.am      15 UNK        -0.5000 
     85 CA         -5.1923  -22.1734  -50.6780 C.3       15 UNK         0.1400 
     86 CB         -5.5029  -20.6711  -50.6559 C.3       15 UNK        -0.1800 
     87 C          -6.1501  -22.9060  -51.6291 C.2       15 UNK         0.5000 
     88 O          -7.3312  -23.0550  -51.3105 O.2       15 UNK        -0.5000 
     89 N          -5.6046  -23.3767  -52.7575 N.am      16 UNK        -0.5000 
     90 CA         -6.2247  -24.1614  -53.8330 C.3       16 UNK         0.1400 
     91 CB         -7.4206  -23.4206  -54.4607 C.3       16 UNK        -0.1800 
     92 C          -6.5972  -25.6051  -53.4364 C.2       16 UNK         0.5000 
     93 O          -6.6080  -26.4785  -54.3047 O.2       16 UNK        -0.5000 
     94 N          -6.8652  -25.8466  -52.1469 N.am      17 UNK        -0.5000 
     95 CA         -7.1033  -27.1634  -51.5607 C.3       17 UNK         0.1400 
     96 CB         -7.6515  -26.9911  -50.1356 C.3       17 UNK        -0.1800 
     97 C          -5.8347  -28.0347  -51.5544 C.2       17 UNK         0.5000 
     98 O          -5.9264  -29.2365  -51.8094 O.2       17 UNK        -0.5000 
     99 N          -4.6795  -27.4125  -51.2847 N.am      18 UNK        -0.5000 
    100 CA        -3.3709  -28.0654  -51.2887 C.3       18 UNK         0.1400 
    101 CB        -3.1421  -28.7947  -49.9521 C.3       18 UNK        -0.1800 
    102 C         -2.2137  -27.0953  -51.5795 C.2       18 UNK         0.5000 
    103 O         -1.2045  -27.5322  -52.1352 O.2       18 UNK        -0.5000 
    104 N         -2.3511  -25.8214  -51.1909 N.am      19 UNK        -0.5000 
    105 CA        -1.2953  -24.8114  -51.2592 C.3       19 UNK         0.1400 
    106 CB        -0.9750  -24.3700  -49.8194 C.3       19 UNK        -0.1800 
    107 C         -1.7129  -23.6114  -52.1284 C.2       19 UNK         0.5000 
    108 O         -2.7992  -23.6045  -52.7130 O.2       19 UNK        -0.5000 
    109 N         -0.8288  -22.6075  -52.1715 N.am      20 UNK        -0.5000 
    110 CA        -0.9726  -21.3039  -52.8183 C.3       20 UNK         0.1400 
    111 CB        -1.9806  -20.4184  -52.0525 C.3       20 UNK        -0.1800 
    112 C         -1.2358  -21.3971  -54.3338 C.2       20 UNK         0.5000 
    113 O         -0.4219  -21.9855  -55.0481 O.2       20 UNK        -0.5000 
    114 N         -2.3238  -20.7655  -54.7980 N.am      21 UNK        -0.5000 
    115 CA        -2.7664  -20.5685  -56.1835 C.3       21 UNK         0.1400 
    116 CB        -2.9632  -21.9048  -56.9251 C.3       21 UNK        -0.1800 
    117 C         -1.8763  -19.5937  -56.9794 C.2       21 UNK         0.5000 
    118 O         -2.4052  -18.6611  -57.5845 O.2       21 UNK        -0.5000 
    119 N         -0.5534  -19.8033  -56.9407 N.am      22 UNK        -0.5000 
    120 CA         0.4883  -18.9784  -57.5838 C.3       22 UNK         0.1400 
    121 C          0.4203  -18.9360  -59.1443 C.2       22 UNK         0.5000 
    122 N         -0.2286  -19.8894  -59.8022 N.am      22 UNK        -0.7600 
    123 O          0.9906  -18.0512  -59.7774 O.2       22 UNK        -0.5000 
    124 C124        0.6178  -17.5664  -56.9379 C.3       23 UNK        -0.0398 
    125 S125        1.2915  -17.6329  -55.2418 S.3       23 UNK        -0.2404 
    126 C126       -0.1942  -17.3464  -54.2243 C.3       23 UNK        -0.0205 
    127 H127       -1.8114   -8.0726  -45.8396 H         1 UNK         0.0600 
    128 H128       -3.0872   -9.0374  -45.0897 H         1 UNK         0.0600 
    129 H129       -3.0464   -8.8375  -46.8443 H         1 UNK         0.0600 
    130 H130       -2.2746  -10.6364  -47.8870 H         1 UNK         0.3000 
    131 H131        0.1824  -11.8659  -47.4519 H         1 UNK         0.0600 
    132 H132       -1.2499  -11.8421  -49.5751 H         1 UNK         0.0800 
    133 H133       -2.2113  -13.1196  -48.8999 H         1 UNK         0.0800 
    134 H134       -1.0778  -15.7668  -48.6079 H         1 UNK         0.0800 
    135 H135       -1.9558  -15.1759  -50.0011 H         1 UNK         0.0800 
    136 H136       -1.1544  -15.6473  -52.3180 H         1 UNK         0.1150 
    137 H137        1.3880  -19.0669  -52.7799 H         1 UNK         0.1150 
    138 H138        0.7084  -17.4088  -48.8874 H         1 UNK         0.1150 
    139 H139        2.7577  -19.7675  -50.9126 H         1 UNK         0.0800 
    140 H140        2.5857  -19.0615  -49.3301 H         1 UNK         0.0800 
    141 H141        0.5638  -19.4166  -47.8281 H         1 UNK         0.0800 
    142 H142        1.6167  -20.7301  -47.3934 H         1 UNK         0.0800 
    143 H143       -0.4396  -22.2982  -47.6489 H         1 UNK         0.0600 
    144 H144        0.3903  -20.7778  -45.4477 H         1 UNK         0.3000 
    145 H145       -1.8811  -22.0351  -42.9936 H         1 UNK         0.0600 
    146 H146        0.3017  -22.4949  -41.9137 H         1 UNK         0.0600 
    147 H147        1.1328  -22.3454  -43.4593 H         1 UNK         0.0600 
    148 H148       -0.0029  -23.6619  -43.1923 H         1 UNK         0.0600 
    149 H149        0.2028  -20.1062  -42.8156 H         1 UNK         0.3000 
    150 H150       -1.8237  -17.2222  -43.5678 H         1 UNK         0.0600 
    151 H151       -2.0591  -17.6917  -41.1629 H         1 UNK         0.0600 
    152 H152       -0.6925  -16.6142  -41.4003 H         1 UNK         0.0600 
    153 H153       -0.4210  -18.3208  -41.0695 H         1 UNK         0.0600 
    154 H154        0.9486  -17.4045  -43.0632 H         1 UNK         0.3000 
    155 H155        2.0689  -18.0624  -46.3972 H         1 UNK         0.0600 
    156 H156        1.8262  -15.6422  -46.4033 H         1 UNK         0.0600 
    157 H157        3.4352  -16.0222  -45.8172 H         1 UNK         0.0600 
    158 H158        2.1746  -15.5312  -44.6840 H         1 UNK         0.0600 
    159 H159        3.3992  -17.6603  -43.8820 H         1 UNK         0.3000 
    160 H160        3.5416  -21.1154  -42.9669 H         1 UNK         0.0600 
    161 H161        5.6731  -19.1522  -43.9768 H         1 UNK         0.0600 
    162 H162        5.3730  -20.7583  -44.6302 H         1 UNK         0.0600 
    163 H163        5.9630  -20.5818  -42.9854 H         1 UNK         0.0600 
    164 H164        4.5921  -18.7166  -41.7926 H         1 UNK         0.3000 
    165 H165        1.7655  -17.8963  -39.8003 H         1 UNK         0.0600 
    166 H166        3.4395  -18.0878  -37.9833 H         1 UNK         0.0600 
    167 H167        2.9318  -19.6862  -38.5043 H         1 UNK         0.0600 
    168 H168        4.4937  -19.0562  -39.0141 H         1 UNK         0.0600 
    169 H169        4.3712  -16.7589  -39.9705 H         1 UNK         0.3000 
    170 H170        4.3572  -14.4690  -40.8413 H         1 UNK         0.0600 
    171 H171        4.8750  -15.8659  -43.5482 H         1 UNK         0.0600 
    172 H172        5.8951  -14.6262  -42.8269 H         1 UNK         0.0600 
    173 H173        5.7676  -16.1985  -42.0681 H         1 UNK         0.0600 
    174 H174        2.2892  -14.3041  -42.7555 H         1 UNK         0.3000 
    175 H175        2.6951  -10.8638  -43.4245 H         1 UNK         0.0600 
    176 H176        2.5906  -13.1191  -45.4957 H         1 UNK         0.0600 
    177 H177        2.0752  -11.4525  -45.7478 H         1 UNK         0.0600 
    178 H178        3.7708  -11.8151  -45.4634 H         1 UNK         0.0600 
    179 H179        0.6072  -12.6938  -44.0730 H         1 UNK         0.3000 
    180 H180       -1.0456  -12.9921  -41.2415 H         1 UNK         0.0600 
    181 H181       -2.8019  -11.2226  -41.4993 H         1 UNK         0.0600 
    182 H182       -1.6551  -10.2072  -42.3726 H         1 UNK         0.0600 
    183 H183       -1.3806  -10.6000  -40.6787 H         1 UNK         0.0600 
    184 H184       -1.4333  -12.1574  -44.0908 H         1 UNK         0.3000 
    185 H185       -2.2217  -15.3147  -45.0765 H         1 UNK         0.0600 
    186 H186       -4.6705  -13.5479  -44.5400 H         1 UNK         0.0600 
    187 H187       -4.5641  -14.7866  -45.7902 H         1 UNK         0.0600 
    188 H188       -4.4993  -15.2425  -44.0966 H         1 UNK         0.0600 
    189 H189       -3.0243  -12.8192  -46.2529 H         1 UNK         0.3000 
    190 H190       -1.6448  -19.0978  -46.5190 H         1 UNK         0.3000 
    191 H191       -3.6642  -18.7825  -48.4844 H         1 UNK         0.0600 
    192 H192       -2.7692  -16.9072  -47.1439 H         1 UNK         0.0600 
    193 H193       -3.4381  -17.6014  -45.6691 H         1 UNK         0.0600 
    194 H194       -4.5104  -17.0215  -46.9384 H         1 UNK         0.0600 
    195 H195       -3.7663  -20.3203  -45.2370 H         1 UNK         0.3000 
    196 H196       -6.5732  -20.7695  -45.1666 H         1 UNK         0.0600 
    197 H197       -5.1456  -20.8359  -43.1463 H         1 UNK         0.0600 
    198 H198       -4.3008  -22.2593  -43.7518 H         1 UNK         0.0600 
    199 H199       -6.0049  -22.3575  -43.3270 H         1 UNK         0.0600 
    200 H200       -3.8973  -22.7700  -46.4209 H         1 UNK         0.3000 
    201 H201       -5.7223  -24.9374  -47.2745 H         1 UNK         0.0600 
    202 H202       -3.6002  -25.5051  -46.1283 H         1 UNK         0.0600 
    203 H203       -2.6763  -24.6508  -47.3572 H         1 UNK         0.0600 
    204 H204       -3.5784  -26.1033  -47.7776 H         1 UNK         0.0600 
    205 H205       -5.3834  -22.0572  -48.5763 H         1 UNK         0.3000 
    206 H206       -4.1738  -22.2983  -51.0369 H         1 UNK         0.0600 
    207 H207       -4.7341  -20.1232  -50.1133 H         1 UNK         0.0600 
    208 H208       -5.5352  -20.2613  -51.6662 H         1 UNK         0.0600 
    209 H209       -6.4658  -20.4662  -50.1868 H         1 UNK         0.0600 
    210 H210       -4.5917  -23.2958  -52.8448 H         1 UNK         0.3000 
    211 H211       -5.4554  -24.2474  -54.6021 H         1 UNK         0.0600 
    212 H212       -7.1403  -22.4158  -54.7768 H         1 UNK         0.0600 
    213 H213       -8.2586  -23.3352  -53.7686 H         1 UNK         0.0600 
    214 H214       -7.7833  -23.9496  -55.3427 H         1 UNK         0.0600 
    215 H215       -6.8776  -25.0536  -51.5165 H         1 UNK         0.3000 
    216 H216       -7.8599  -27.6726  -52.1612 H         1 UNK         0.0600 
    217 H217       -7.8660  -27.9591  -49.6810 H         1 UNK         0.0600 
    218 H218       -8.5797  -26.4194  -50.1368 H         1 UNK         0.0600 
    219 H219       -6.9412  -26.4751  -49.4887 H         1 UNK         0.0600 
    220 H220       -4.7057  -26.4266  -51.0478 H         1 UNK         0.3000 
    221 H221       -3.3560  -28.8062  -52.0912 H         1 UNK         0.0600 
    222 H222       -3.1894  -28.1060  -49.1086 H         1 UNK         0.0600 
    223 H223       -3.8875  -29.5735  -49.7907 H         1 UNK         0.0600 
    224 H224       -2.1633  -29.2756  -49.9301 H         1 UNK         0.0600 
    225 H225       -3.2144  -25.5076  -50.7566 H         1 UNK         0.3000 
    226 H226       -0.3883  -25.2278  -51.7016 H         1 UNK         0.0600 
    227 H227       -0.7912  -25.2279  -49.1723 H         1 UNK         0.0600 
    228 H228       -0.0820  -23.7469  -49.7811 H         1 UNK         0.0600 
    229 H229       -1.7957  -23.7959  -49.3894 H         1 UNK         0.0600 
    230 H230        0.0401  -22.7285  -51.6712 H         1 UNK         0.3000 
    231 H231        0.0063  -20.8397  -52.7242 H         1 UNK         0.0600 
    232 H232       -1.9646  -19.3914  -52.4171 H         1 UNK         0.0600 
    233 H233       -1.7371  -20.3761  -50.9917 H         1 UNK         0.0600 
    234 H234       -3.0000  -20.7843  -52.1476 H         1 UNK         0.0600 
    235 H235       -2.9011  -20.3039  -54.1098 H         1 UNK         0.3000 
    236 H236       -3.7488  -20.0994  -56.1073 H         1 UNK         0.0600 
    237 H237       -2.0218  -22.4298  -57.0879 H         1 UNK         0.0600 
    238 H238       -3.6249  -22.5689  -56.3685 H         1 UNK         0.0600 
    239 H239       -3.4153  -21.7404  -57.9039 H         1 UNK         0.0600 
    240 H240       -0.2265  -20.6041  -56.4085 H         1 UNK         0.3000 
    241 H241        1.4245  -19.5024  -57.3889 H         1 UNK         0.0600 
    242 H242       -0.2600  -19.8645  -60.8095 H         1 UNK         0.3800 
    243 H243       -0.6896  -20.6336  -59.3039 H         1 UNK         0.3800 
    244 H244       -0.3358  -17.0377  -56.9495 H         1 UNK         0.0800 
    245 H245        1.3081  -16.9416  -57.5064 H         1 UNK         0.0800 
    246 H246       -0.9325  -18.1177  -54.4418 H         1 UNK         0.0800 
    247 H247       -0.6386  -16.3950  -54.5202 H         1 UNK         0.0800 
@<TRIPOS>BOND
     1    1    2 1    
     2    1  127 1    
     3    1  128 1    
     4    1  129 1    
     5    2    3 2    
     6    2    4 am   BACKBONE|DICT|INTERRES
     7    4    5 1    
     8    4  130 1    
     9    5    6 1    
    10    5   65 1    
    11    5  131 1    
    12    6    7 1    
    13    6  132 1    
    14    6  133 1    
    15    7    8 1    
    16    8    9 1    
    17    8  134 1    
    18    8  135 1    
    19    9   10 ar   
    20    9   14 ar   
    21   10   11 ar   
    22   10  136 1    
    23   11   12 ar   
    24   11  126 1    
    25   12   13 ar   
    26   12  137 1    
    27   13   14 ar   
    28   13   15 1    
    29   14  138 1    
    30   15   16 1    
    31   15  139 1    
    32   15  140 1    
    33   16   17 1    
    34   17   18 1    
    35   17  141 1    
    36   17  142 1    
    37   18   19 1    
    38   18   67 1    
    39   18  143 1    
    40   19   20 am   BACKBONE|DICT|INTERRES
    41   19  144 1    
    42   20   21 2    
    43   20   22 1    
    44   22   23 1    
    45   22   24 1    
    46   22  145 1    
    47   23  146 1    
    48   23  147 1    
    49   23  148 1    
    50   24   25 am   BACKBONE|DICT|INTERRES
    51   24  149 1    
    52   25   26 2    
    53   25   27 1    
    54   27   28 1    
    55   27   29 1    
    56   27  150 1    
    57   28  151 1    
    58   28  152 1    
    59   28  153 1    
    60   29   30 am   BACKBONE|DICT|INTERRES
    61   29  154 1    
    62   30   31 2    
    63   30   32 1    
    64   32   33 1    
    65   32   34 1    
    66   32  155 1    
    67   33  156 1    
    68   33  157 1    
    69   33  158 1    
    70   34   35 am   BACKBONE|DICT|INTERRES
    71   34  159 1    
    72   35   36 2    
    73   35   37 1    
    74   37   38 1    
    75   37   39 1    
    76   37  160 1    
    77   38  161 1    
    78   38  162 1    
    79   38  163 1    
    80   39   40 am   BACKBONE|DICT|INTERRES
    81   39  164 1    
    82   40   41 2    
    83   40   42 1    
    84   42   43 1    
    85   42   44 1    
    86   42  165 1    
    87   43  166 1    
    88   43  167 1    
    89   43  168 1    
    90   44   45 am   BACKBONE|DICT|INTERRES
    91   44  169 1    
    92   45   46 2    
    93   45   47 1    
    94   47   48 1    
    95   47   49 1    
    96   47  170 1    
    97   48  171 1    
    98   48  172 1    
    99   48  173 1    
   100   49   50 am   BACKBONE|DICT|INTERRES
   101   49  174 1    
   102   50   51 2    
   103   50   52 1    
   104   52   53 1    
   105   52   54 1    
   106   52  175 1    
   107   53  176 1    
   108   53  177 1    
   109   53  178 1    
   110   54   55 am   BACKBONE|DICT|INTERRES
   111   54  179 1    
   112   55   56 2    
   113   55   57 1    
   114   57   58 1    
   115   57   59 1    
   116   57  180 1    
   117   58  181 1    
   118   58  182 1    
   119   58  183 1    
   120   59   60 am   BACKBONE|DICT|INTERRES
   121   59  184 1    
   122   60   61 2    
   123   60   62 1    
   124   62   63 1    
   125   62   64 1    
   126   62  185 1    
   127   63  186 1    
   128   63  187 1    
   129   63  188 1    
   130   64   65 am   BACKBONE|DICT|INTERRES
   131   64  189 1    
   132   65   66 2    
   133   67   68 2    
   134   67   69 am   BACKBONE|DICT|INTERRES
   135   69   70 1    
   136   69  190 1    
   137   70   71 1    
   138   70   72 1    
   139   70  191 1    
   140   71  192 1    
   141   71  193 1    
   142   71  194 1    
   143   72   73 2    
   144   72   74 am   BACKBONE|DICT|INTERRES
   145   74   75 1    
   146   74  195 1    
   147   75   76 1    
   148   75   77 1    
   149   75  196 1    
   150   76  197 1    
   151   76  198 1    
   152   76  199 1    
   153   77   78 2    
   154   77   79 am   BACKBONE|DICT|INTERRES
   155   79   80 1    
   156   79  200 1    
   157   80   81 1    
   158   80   82 1    
   159   80  201 1    
   160   81  202 1    
   161   81  203 1    
   162   81  204 1    
   163   82   83 2    
   164   82   84 am   BACKBONE|DICT|INTERRES
   165   84   85 1    
   166   84  205 1    
   167   85   86 1    
   168   85   87 1    
   169   85  206 1    
   170   86  207 1    
   171   86  208 1    
   172   86  209 1    
   173   87   88 2    
   174   87   89 am   BACKBONE|DICT|INTERRES
   175   89   90 1    
   176   89  210 1    
   177   90   91 1    
   178   90   92 1    
   179   90  211 1    
   180   91  212 1    
   181   91  213 1    
   182   91  214 1    
   183   92   93 2    
   184   92   94 am   BACKBONE|DICT|INTERRES
   185   94   95 1    
   186   94  215 1    
   187   95   96 1    
   188   95   97 1    
   189   95  216 1    
   190   96  217 1    
   191   96  218 1    
   192   96  219 1    
   193   97   98 2    
   194   97   99 am   BACKBONE|DICT|INTERRES
   195   99  100 1    
   196   99  220 1    
   197  100  101 1    
   198  100  102 1    
   199  100  221 1    
   200  101  222 1    
   201  101  223 1    
   202  101  224 1    
   203  102  103 2    
   204  102  104 am   BACKBONE|DICT|INTERRES
   205  104  105 1    
   206  104  225 1    
   207  105  106 1    
   208  105  107 1    
   209  105  226 1    
   210  106  227 1    
   211  106  228 1    
   212  106  229 1    
   213  107  108 2    
   214  107  109 am   BACKBONE|DICT|INTERRES
   215  109  110 1    
   216  109  230 1    
   217  110  111 1    
   218  110  112 1    
   219  110  231 1    
   220  111  232 1    
   221  111  233 1    
   222  111  234 1    
   223  112  113 2    
   224  112  114 am   BACKBONE|DICT|INTERRES
   225  114  115 1    
   226  114  235 1    
   227  115  116 1    
   228  115  117 1    
   229  115  236 1    
   230  116  237 1    
   231  116  238 1    
   232  116  239 1    
   233  117  118 2    
   234  117  119 am   BACKBONE|DICT|INTERRES
   235  119  120 1    
   236  119  240 1    
   237  120  121 1    
   238  120  124 1    
   239  120  241 1    
   240  121  122 am   BACKBONE|DICT|INTERRES
   241  121  123 2    
   242  122  242 1    
   243  122  243 1    
   244  124  125 1    
   245  124  244 1    
   246  124  245 1    
   247  125  126 1    
   248  126  246 1    
   249  126  247 1    
@<TRIPOS>SUBSTRUCTURE
     1 UNK         1 GROUP             0       ****    0 ROOT    
