@<TRIPOS>MOLECULE
3R540
247   249    1
SMALL
USER_CHARGES


@<TRIPOS>ATOM
      1 CA         -1.6481  -12.4837  -46.3089 C.3       0 UNK        -0.1800 
      2 C          -0.5262  -12.5120  -47.3370 C.2       0 UNK         0.5000 
      3 O           0.2542  -11.5640  -47.4187 O.2       0 UNK        -0.5000 
      4 N          -0.4294  -13.6030  -48.1099 N.am      1 UNK        -0.5000 
      5 CA          0.5737  -13.8266  -49.1671 C.3       1 UNK         0.1400 
      6 C6          0.3339  -15.1455  -49.9475 C.3       23 UNK        -0.0398 
      7 S7         -1.3928  -15.3709  -50.4969 S.3       23 UNK        -0.2404 
      8 C8         -2.0110  -16.5199  -49.2252 C.3       23 UNK        -0.0205 
      9 C9         -1.9800  -17.9687  -49.6852 C.ar      23 UNK        -0.0193 
     10 C10        -3.1773  -18.6289  -49.9721 C.ar      23 UNK        -0.1150 
     11 C11        -3.1722  -19.9639  -50.3790 C.ar      23 UNK        -0.0193 
     12 C12        -1.9559  -20.6414  -50.4891 C.ar      23 UNK        -0.1150 
     13 C13        -0.7475  -20.0014  -50.2005 C.ar      23 UNK        -0.0193 
     14 C14        -0.7684  -18.6589  -49.8049 C.ar      23 UNK        -0.1150 
     15 C15         0.5568  -20.7795  -50.3689 C.3       23 UNK        -0.0205 
     16 S16         1.8855  -20.4104  -49.1637 S.3       23 UNK        -0.2404 
     17 C17         1.0528  -20.4087  -47.5383 C.3       23 UNK        -0.0398 
     18 CA          0.8752  -21.8025  -46.8882 C.3       11 UNK         0.1400 
     19 N           0.7250  -21.6977  -45.4327 N.am      11 UNK        -0.5000 
     20 C           0.6049  -22.7260  -44.5811 C.2       10 UNK         0.5000 
     21 O           0.6809  -23.9056  -44.9182 O.2       10 UNK        -0.5000 
     22 CA          0.2807  -22.3858  -43.1153 C.3       10 UNK         0.1400 
     23 CB          1.5516  -22.0039  -42.3432 C.3       10 UNK        -0.1800 
     24 N          -0.7200  -21.3238  -42.9962 N.am      10 UNK        -0.5000 
     25 C          -1.9842  -21.4264  -43.4334 C.2       9 UNK         0.5000 
     26 O          -2.4534  -22.4525  -43.9251 O.2       9 UNK        -0.5000 
     27 CA         -2.8573  -20.1606  -43.3544 C.3       9 UNK         0.1400 
     28 CB         -3.4349  -19.9792  -41.9431 C.3       9 UNK        -0.1800 
     29 N          -2.1355  -18.9518  -43.7555 N.am      9 UNK        -0.5000 
     30 C          -1.6512  -18.7330  -44.9863 C.2       8 UNK         0.5000 
     31 O          -1.8117  -19.5090  -45.9280 O.2       8 UNK        -0.5000 
     32 CA         -0.7952  -17.4665  -45.1849 C.3       8 UNK         0.1400 
     33 CB         -1.6772  -16.2219  -45.3579 C.3       8 UNK        -0.1800 
     34 N           0.1486  -17.2467  -44.0872 N.am      8 UNK        -0.5000 
     35 C           1.1416  -18.0869  -43.7615 C.2       7 UNK         0.5000 
     36 O           1.4173  -19.0964  -44.4072 O.2       7 UNK        -0.5000 
     37 CA          1.9156  -17.7866  -42.4665 C.3       7 UNK         0.1400 
     38 CB          3.0356  -16.7646  -42.7023 C.3       7 UNK        -0.1800 
     39 N           1.0302  -17.3162  -41.4026 N.am      7 UNK        -0.5000 
     40 C           0.1505  -18.0974  -40.7603 C.2       6 UNK         0.5000 
     41 O           0.0220  -19.3019  -40.9770 O.2       6 UNK        -0.5000 
     42 CA         -0.7660  -17.4071  -39.7341 C.3       6 UNK         0.1400 
     43 CB         -0.0614  -17.2843  -38.3751 C.3       6 UNK        -0.1800 
     44 N          -1.2012  -16.0819  -40.1771 N.am      6 UNK        -0.5000 
     45 C          -2.0097  -15.8616  -41.2237 C.2       5 UNK         0.5000 
     46 O          -2.5111  -16.7591  -41.8987 O.2       5 UNK        -0.5000 
     47 CA         -2.2552  -14.3916  -41.6106 C.3       5 UNK         0.1400 
     48 CB         -3.4427  -13.8161  -40.8254 C.3       5 UNK        -0.1800 
     49 N          -1.0767  -13.5458  -41.4034 N.am      5 UNK        -0.5000 
     50 C           0.0733  -13.6739  -42.0771 C.2       4 UNK         0.5000 
     51 O           0.2656  -14.5257  -42.9490 O.2       4 UNK        -0.5000 
     52 CA          1.2154  -12.7349  -41.6601 C.3       4 UNK         0.1400 
     53 CB          2.1761  -13.4480  -40.6968 C.3       4 UNK        -0.1800 
     54 N           1.9608  -12.2772  -42.8277 N.am      4 UNK        -0.5000 
     55 C           1.5723  -11.2839  -43.6331 C.2       3 UNK         0.5000 
     56 O           0.5586  -10.6103  -43.4432 O.2       3 UNK        -0.5000 
     57 CA          2.4568  -10.9888  -44.8573 C.3       3 UNK         0.1400 
     58 CB          3.7760  -10.3007  -44.4554 C.3       3 UNK        -0.1800 
     59 N           2.6856  -12.1538  -45.7193 N.am      3 UNK        -0.5000 
     60 C           3.4022  -13.2643  -45.4866 C.2       2 UNK         0.5000 
     61 O           4.0094  -13.4766  -44.4357 O.2       2 UNK        -0.5000 
     62 CA          3.4220  -14.3164  -46.6163 C.3       2 UNK         0.1400 
     63 CB          3.6246  -15.7486  -46.0937 C.3       2 UNK        -0.1800 
     64 N           2.1761  -14.2821  -47.3787 N.am      2 UNK        -0.5000 
     65 C           2.0200  -13.8172  -48.6244 C.2       1 UNK         0.5000 
     66 O           2.9377  -13.3860  -49.3225 O.2       1 UNK        -0.5000 
     67 C          -0.3054  -22.5660  -47.5212 C.2       11 UNK         0.5000 
     68 O          -0.0853  -23.5280  -48.2586 O.2       11 UNK        -0.5000 
     69 N          -1.5352  -22.1507  -47.1880 N.am      12 UNK        -0.5000 
     70 CA         -2.7762  -22.7630  -47.6616 C.3       12 UNK         0.1400 
     71 CB         -3.9685  -21.9120  -47.2011 C.3       12 UNK        -0.1800 
     72 C          -2.9453  -24.2309  -47.2270 C.2       12 UNK         0.5000 
     73 O          -3.5110  -25.0199  -47.9831 O.2       12 UNK        -0.5000 
     74 N          -2.4460  -24.5715  -46.0331 N.am      13 UNK        -0.5000 
     75 CA         -2.4495  -25.9274  -45.4956 C.3       13 UNK         0.1400 
     76 CB         -2.3080  -25.8683  -43.9658 C.3       13 UNK        -0.1800 
     77 C          -1.3530  -26.8128  -46.1160 C.2       13 UNK         0.5000 
     78 O          -1.6581  -27.9061  -46.5944 O.2       13 UNK        -0.5000 
     79 N          -0.0960  -26.3531  -46.0550 N.am      14 UNK        -0.5000 
     80 CA          1.0829  -27.1578  -46.3734 C.3       14 UNK         0.1400 
     81 CB          2.2939  -26.6292  -45.5878 C.3       14 UNK        -0.1800 
     82 C           1.3982  -27.2095  -47.8752 C.2       14 UNK         0.5000 
     83 O           1.6347  -28.2980  -48.4016 O.2       14 UNK        -0.5000 
     84 N           1.4281  -26.0428  -48.5319 N.am      15 UNK        -0.5000 
     85 CA          1.7660  -25.9212  -49.9505 C.3       15 UNK         0.1400 
     86 CB          2.4935  -24.5902  -50.2054 C.3       15 UNK        -0.1800 
     87 C           0.5116  -26.0458  -50.8252 C.2       15 UNK         0.5000 
     88 O           0.5343  -26.7766  -51.8159 O.2       15 UNK        -0.5000 
     89 N          -0.5562  -25.3365  -50.4286 N.am      16 UNK        -0.5000 
     90 CA         -1.8868  -25.3126  -51.0490 C.3       16 UNK         0.1400 
     91 CB         -2.5872  -26.6752  -50.8672 C.3       16 UNK        -0.1800 
     92 C          -1.8922  -24.8302  -52.5178 C.2       16 UNK         0.5000 
     93 O          -2.7784  -25.2076  -53.2871 O.2       16 UNK        -0.5000 
     94 N          -0.9041  -24.0016  -52.8823 N.am      17 UNK        -0.5000 
     95 CA         -0.7830  -23.3622  -54.1921 C.3       17 UNK         0.1400 
     96 CB          0.6120  -22.7271  -54.2993 C.3       17 UNK        -0.1800 
     97 C          -1.8720  -22.2948  -54.3956 C.2       17 UNK         0.5000 
     98 O          -2.3073  -21.6808  -53.4225 O.2       17 UNK        -0.5000 
     99 N          -2.2637  -22.0531  -55.6518 N.am      18 UNK        -0.5000 
    100 CA        -3.2838  -21.0745  -56.0436 C.3       18 UNK         0.1400 
    101 CB        -3.8336  -21.4686  -57.4267 C.3       18 UNK        -0.1800 
    102 C         -2.7586  -19.6209  -56.0029 C.2       18 UNK         0.5000 
    103 O         -2.7721  -18.9233  -57.0188 O.2       18 UNK        -0.5000 
    104 N         -2.2689  -19.2013  -54.8317 N.am      19 UNK        -0.5000 
    105 CA        -1.6736  -17.8875  -54.5875 C.3       19 UNK         0.1400 
    106 CB        -0.7312  -17.9998  -53.3821 C.3       19 UNK        -0.1800 
    107 C         -2.7179  -16.7805  -54.3485 C.2       19 UNK         0.5000 
    108 O         -2.3950  -15.6038  -54.5183 O.2       19 UNK        -0.5000 
    109 N         -3.9374  -17.1680  -53.9599 N.am      20 UNK        -0.5000 
    110 CA        -5.0569  -16.2784  -53.6654 C.3       20 UNK         0.1400 
    111 CB        -5.1121  -16.0272  -52.1442 C.3       20 UNK        -0.1800 
    112 C         -6.3502  -16.8831  -54.2412 C.2       20 UNK         0.5000 
    113 O         -6.3025  -17.5606  -55.2714 O.2       20 UNK        -0.5000 
    114 N         -7.4844  -16.6626  -53.5588 N.am      21 UNK        -0.5000 
    115 CA        -8.8177  -17.1791  -53.9035 C.3       21 UNK         0.1400 
    116 CB        -9.8422  -16.6030  -52.9139 C.3       21 UNK        -0.1800 
    117 C         -8.9144  -18.7202  -53.9465 C.2       21 UNK         0.5000 
    118 O         -9.8332  -19.2575  -54.5659 O.2       21 UNK        -0.5000 
    119 N         -7.9454  -19.3935  -53.3168 N.am      22 UNK        -0.5000 
    120 CA        -7.6464  -20.8244  -53.4532 C.3       22 UNK         0.1400 
    121 C         -7.2135  -21.2791  -54.8814 C.2       22 UNK         0.5000 
    122 N         -6.8326  -20.3851  -55.7875 N.am      22 UNK        -0.7600 
    123 O         -7.2421  -22.4702  -55.1774 O.2       22 UNK        -0.5000 
    124 C124       -6.6212  -21.2763  -52.3804 C.3       23 UNK        -0.0398 
    125 S125       -5.1060  -20.2508  -52.3353 S.3       23 UNK        -0.2404 
    126 C126       -4.4814  -20.6749  -50.6817 C.3       23 UNK        -0.0205 
    127 H127       -2.1990  -11.5459  -46.3797 H         1 UNK         0.0600 
    128 H128       -1.2350  -12.5624  -45.3028 H         1 UNK         0.0600 
    129 H129       -2.3535  -13.3019  -46.4552 H         1 UNK         0.0600 
    130 H130       -1.1341  -14.3202  -48.0313 H         1 UNK         0.3000 
    131 H131        0.4842  -12.9960  -49.8704 H         1 UNK         0.0600 
    132 H132        0.9664  -15.1707  -50.8367 H         1 UNK         0.0800 
    133 H133        0.6361  -16.0041  -49.3476 H         1 UNK         0.0800 
    134 H134       -3.0302  -16.2277  -48.9674 H         1 UNK         0.0800 
    135 H135       -1.4299  -16.4255  -48.3089 H         1 UNK         0.0800 
    136 H136       -4.1181  -18.1058  -49.8795 H         1 UNK         0.1150 
    137 H137       -1.9513  -21.6723  -50.8128 H         1 UNK         0.1150 
    138 H138        0.1613  -18.1555  -49.5916 H         1 UNK         0.1150 
    139 H139        0.3576  -21.8505  -50.3381 H         1 UNK         0.0800 
    140 H140        0.9410  -20.5770  -51.3690 H         1 UNK         0.0800 
    141 H141        0.1105  -19.8670  -47.5896 H         1 UNK         0.0800 
    142 H142        1.6914  -19.7978  -46.9001 H         1 UNK         0.0800 
    143 H143        1.7811  -22.3853  -47.0668 H         1 UNK         0.0600 
    144 H144        0.7070  -20.7562  -45.0504 H         1 UNK         0.3000 
    145 H145       -0.1352  -23.2832  -42.6528 H         1 UNK         0.0600 
    146 H146        1.3331  -21.8186  -41.2914 H         1 UNK         0.0600 
    147 H147        2.2883  -22.8070  -42.3860 H         1 UNK         0.0600 
    148 H148        2.0201  -21.1085  -42.7503 H         1 UNK         0.0600 
    149 H149       -0.4241  -20.4646  -42.5441 H         1 UNK         0.3000 
    150 H150       -3.6921  -20.2923  -44.0458 H         1 UNK         0.0600 
    151 H151       -3.9977  -20.8614  -41.6356 H         1 UNK         0.0600 
    152 H152       -4.1153  -19.1285  -41.9027 H         1 UNK         0.0600 
    153 H153       -2.6512  -19.8153  -41.2035 H         1 UNK         0.0600 
    154 H154       -2.0208  -18.2330  -43.0467 H         1 UNK         0.3000 
    155 H155       -0.2159  -17.6015  -46.1008 H         1 UNK         0.0600 
    156 H156       -2.3987  -16.3578  -46.1636 H         1 UNK         0.0600 
    157 H157       -1.0738  -15.3459  -45.5934 H         1 UNK         0.0600 
    158 H158       -2.2443  -16.0017  -44.4547 H         1 UNK         0.0600 
    159 H159        0.0240  -16.4032  -43.5359 H         1 UNK         0.3000 
    160 H160        2.3807  -18.7169  -42.1339 H         1 UNK         0.0600 
    161 H161        2.6495  -15.8132  -43.0687 H         1 UNK         0.0600 
    162 H162        3.7487  -17.1374  -43.4380 H         1 UNK         0.0600 
    163 H163        3.5927  -16.5714  -41.7857 H         1 UNK         0.0600 
    164 H164        1.0418  -16.3280  -41.2024 H         1 UNK         0.3000 
    165 H165       -1.6526  -18.0316  -39.6050 H         1 UNK         0.0600 
    166 H166       -0.7282  -16.8639  -37.6220 H         1 UNK         0.0600 
    167 H167        0.2601  -18.2619  -38.0132 H         1 UNK         0.0600 
    168 H168        0.8230  -16.6486  -38.4336 H         1 UNK         0.0600 
    169 H169       -0.8388  -15.2874  -39.6715 H         1 UNK         0.3000 
    170 H170       -2.5053  -14.3646  -42.6730 H         1 UNK         0.0600 
    171 H171       -4.3398  -14.4175  -40.9791 H         1 UNK         0.0600 
    172 H172       -3.2443  -13.7904  -39.7532 H         1 UNK         0.0600 
    173 H173       -3.6746  -12.8012  -41.1489 H         1 UNK         0.0600 
    174 H174       -1.1578  -12.8256  -40.7000 H         1 UNK         0.3000 
    175 H175        0.7950  -11.8689  -41.1442 H         1 UNK         0.0600 
    176 H176        1.6498  -13.8156  -39.8150 H         1 UNK         0.0600 
    177 H177        2.6650  -14.2996  -41.1686 H         1 UNK         0.0600 
    178 H178        2.9556  -12.7699  -40.3491 H         1 UNK         0.0600 
    179 H179        2.7704  -12.8223  -43.1095 H         1 UNK         0.3000 
    180 H180        1.9030  -10.2798  -45.4749 H         1 UNK         0.0600 
    181 H181        4.3921  -10.9310  -43.8139 H         1 UNK         0.0600 
    182 H182        3.5793   -9.3779  -43.9084 H         1 UNK         0.0600 
    183 H183        4.3660  -10.0381  -45.3335 H         1 UNK         0.0600 
    184 H184        2.1735  -12.1139  -46.5928 H         1 UNK         0.3000 
    185 H185        4.2701  -14.0687  -47.2576 H         1 UNK         0.0600 
    186 H186        2.7852  -16.0666  -45.4765 H         1 UNK         0.0600 
    187 H187        3.7139  -16.4562  -46.9181 H         1 UNK         0.0600 
    188 H188        4.5340  -15.8328  -45.4975 H         1 UNK         0.0600 
    189 H189        1.3487  -14.5765  -46.8803 H         1 UNK         0.3000 
    190 H190       -1.6326  -21.3283  -46.5984 H         1 UNK         0.3000 
    191 H191       -2.7529  -22.7514  -48.7516 H         1 UNK         0.0600 
    192 H192       -4.0483  -21.8875  -46.1141 H         1 UNK         0.0600 
    193 H193       -4.9060  -22.3084  -47.5926 H         1 UNK         0.0600 
    194 H194       -3.8768  -20.8836  -47.5513 H         1 UNK         0.0600 
    195 H195       -2.0549  -23.8439  -45.4452 H         1 UNK         0.3000 
    196 H196       -3.4148  -26.3869  -45.7195 H         1 UNK         0.0600 
    197 H197       -2.3114  -26.8696  -43.5335 H         1 UNK         0.0600 
    198 H198       -3.1341  -25.3166  -43.5168 H         1 UNK         0.0600 
    199 H199       -1.3808  -25.3814  -43.6621 H         1 UNK         0.0600 
    200 H200        0.0816  -25.4321  -45.6568 H         1 UNK         0.3000 
    201 H201        0.9028  -28.1819  -46.0385 H         1 UNK         0.0600 
    202 H202        2.0991  -26.6304  -44.5152 H         1 UNK         0.0600 
    203 H203        2.5531  -25.6107  -45.8789 H         1 UNK         0.0600 
    204 H204        3.1725  -27.2521  -45.7601 H         1 UNK         0.0600 
    205 H205        1.1369  -25.1960  -48.0577 H         1 UNK         0.3000 
    206 H206        2.4513  -26.7232  -50.2339 H         1 UNK         0.0600 
    207 H207        3.4125  -24.5287  -49.6226 H         1 UNK         0.0600 
    208 H208        2.7686  -24.4930  -51.2563 H         1 UNK         0.0600 
    209 H209        1.8807  -23.7275  -49.9486 H         1 UNK         0.0600 
    210 H210       -0.4460  -24.7481  -49.6050 H         1 UNK         0.3000 
    211 H211       -2.4624  -24.5709  -50.4949 H         1 UNK         0.0600 
    212 H212       -2.1106  -27.4577  -51.4583 H         1 UNK         0.0600 
    213 H213       -3.6326  -26.6227  -51.1730 H         1 UNK         0.0600 
    214 H214       -2.5729  -26.9879  -49.8228 H         1 UNK         0.0600 
    215 H215       -0.2290  -23.7327  -52.1842 H         1 UNK         0.3000 
    216 H216       -0.8867  -24.1281  -54.9635 H         1 UNK         0.0600 
    217 H217        0.7593  -22.2683  -55.2778 H         1 UNK         0.0600 
    218 H218        1.3969  -23.4725  -54.1692 H         1 UNK         0.0600 
    219 H219        0.7587  -21.9496  -53.5483 H         1 UNK         0.0600 
    220 H220       -1.8286  -22.5649  -56.4056 H         1 UNK         0.3000 
    221 H221       -4.1089  -21.1324  -55.3309 H         1 UNK         0.0600 
    222 H222       -3.0494  -21.4763  -58.1846 H         1 UNK         0.0600 
    223 H223       -4.2873  -22.4596  -57.4010 H         1 UNK         0.0600 
    224 H224       -4.6025  -20.7703  -57.7586 H         1 UNK         0.0600 
    225 H225       -2.2827  -19.8579  -54.0546 H         1 UNK         0.3000 
    226 H226       -1.0797  -17.6012  -55.4579 H         1 UNK         0.0600 
    227 H227        0.0480  -18.7431  -53.5511 H         1 UNK         0.0600 
    228 H228       -0.2402  -17.0487  -53.1725 H         1 UNK         0.0600 
    229 H229       -1.2824  -18.2881  -52.4887 H         1 UNK         0.0600 
    230 H230       -4.1303  -18.1581  -53.8960 H         1 UNK         0.3000 
    231 H231       -4.9143  -15.3220  -54.1721 H         1 UNK         0.0600 
    232 H232       -4.1517  -15.6708  -51.7723 H         1 UNK         0.0600 
    233 H233       -5.3600  -16.9367  -51.5960 H         1 UNK         0.0600 
    234 H234       -5.8500  -15.2664  -51.8886 H         1 UNK         0.0600 
    235 H235       -7.4323  -16.1033  -52.7197 H         1 UNK         0.3000 
    236 H236       -9.0629  -16.8148  -54.9030 H         1 UNK         0.0600 
    237 H237      -10.8518  -16.9380  -53.1558 H         1 UNK         0.0600 
    238 H238       -9.6299  -16.9137  -51.8901 H         1 UNK         0.0600 
    239 H239       -9.8489  -15.5132  -52.9411 H         1 UNK         0.0600 
    240 H240       -7.2394  -18.8571  -52.8356 H         1 UNK         0.3000 
    241 H241       -8.5784  -21.3558  -53.2522 H         1 UNK         0.0600 
    242 H242       -6.5965  -20.6991  -56.7138 H         1 UNK         0.3800 
    243 H243       -6.7709  -19.3963  -55.5621 H         1 UNK         0.3800 
    244 H244       -7.0958  -21.2270  -51.3995 H         1 UNK         0.0800 
    245 H245       -6.3389  -22.3217  -52.5185 H         1 UNK         0.0800 
    246 H246       -4.3487  -21.7559  -50.6166 H         1 UNK         0.0800 
    247 H247       -5.2245  -20.4063  -49.9295 H         1 UNK         0.0800 
@<TRIPOS>BOND
     1    1    2 1    
     2    1  127 1    
     3    1  128 1    
     4    1  129 1    
     5    2    3 2    
     6    2    4 am   BACKBONE|DICT|INTERRES
     7    4    5 1    
     8    4  130 1    
     9    5    6 1    
    10    5   65 1    
    11    5  131 1    
    12    6    7 1    
    13    6  132 1    
    14    6  133 1    
    15    7    8 1    
    16    8    9 1    
    17    8  134 1    
    18    8  135 1    
    19    9   10 ar   
    20    9   14 ar   
    21   10   11 ar   
    22   10  136 1    
    23   11   12 ar   
    24   11  126 1    
    25   12   13 ar   
    26   12  137 1    
    27   13   14 ar   
    28   13   15 1    
    29   14  138 1    
    30   15   16 1    
    31   15  139 1    
    32   15  140 1    
    33   16   17 1    
    34   17   18 1    
    35   17  141 1    
    36   17  142 1    
    37   18   19 1    
    38   18   67 1    
    39   18  143 1    
    40   19   20 am   BACKBONE|DICT|INTERRES
    41   19  144 1    
    42   20   21 2    
    43   20   22 1    
    44   22   23 1    
    45   22   24 1    
    46   22  145 1    
    47   23  146 1    
    48   23  147 1    
    49   23  148 1    
    50   24   25 am   BACKBONE|DICT|INTERRES
    51   24  149 1    
    52   25   26 2    
    53   25   27 1    
    54   27   28 1    
    55   27   29 1    
    56   27  150 1    
    57   28  151 1    
    58   28  152 1    
    59   28  153 1    
    60   29   30 am   BACKBONE|DICT|INTERRES
    61   29  154 1    
    62   30   31 2    
    63   30   32 1    
    64   32   33 1    
    65   32   34 1    
    66   32  155 1    
    67   33  156 1    
    68   33  157 1    
    69   33  158 1    
    70   34   35 am   BACKBONE|DICT|INTERRES
    71   34  159 1    
    72   35   36 2    
    73   35   37 1    
    74   37   38 1    
    75   37   39 1    
    76   37  160 1    
    77   38  161 1    
    78   38  162 1    
    79   38  163 1    
    80   39   40 am   BACKBONE|DICT|INTERRES
    81   39  164 1    
    82   40   41 2    
    83   40   42 1    
    84   42   43 1    
    85   42   44 1    
    86   42  165 1    
    87   43  166 1    
    88   43  167 1    
    89   43  168 1    
    90   44   45 am   BACKBONE|DICT|INTERRES
    91   44  169 1    
    92   45   46 2    
    93   45   47 1    
    94   47   48 1    
    95   47   49 1    
    96   47  170 1    
    97   48  171 1    
    98   48  172 1    
    99   48  173 1    
   100   49   50 am   BACKBONE|DICT|INTERRES
   101   49  174 1    
   102   50   51 2    
   103   50   52 1    
   104   52   53 1    
   105   52   54 1    
   106   52  175 1    
   107   53  176 1    
   108   53  177 1    
   109   53  178 1    
   110   54   55 am   BACKBONE|DICT|INTERRES
   111   54  179 1    
   112   55   56 2    
   113   55   57 1    
   114   57   58 1    
   115   57   59 1    
   116   57  180 1    
   117   58  181 1    
   118   58  182 1    
   119   58  183 1    
   120   59   60 am   BACKBONE|DICT|INTERRES
   121   59  184 1    
   122   60   61 2    
   123   60   62 1    
   124   62   63 1    
   125   62   64 1    
   126   62  185 1    
   127   63  186 1    
   128   63  187 1    
   129   63  188 1    
   130   64   65 am   BACKBONE|DICT|INTERRES
   131   64  189 1    
   132   65   66 2    
   133   67   68 2    
   134   67   69 am   BACKBONE|DICT|INTERRES
   135   69   70 1    
   136   69  190 1    
   137   70   71 1    
   138   70   72 1    
   139   70  191 1    
   140   71  192 1    
   141   71  193 1    
   142   71  194 1    
   143   72   73 2    
   144   72   74 am   BACKBONE|DICT|INTERRES
   145   74   75 1    
   146   74  195 1    
   147   75   76 1    
   148   75   77 1    
   149   75  196 1    
   150   76  197 1    
   151   76  198 1    
   152   76  199 1    
   153   77   78 2    
   154   77   79 am   BACKBONE|DICT|INTERRES
   155   79   80 1    
   156   79  200 1    
   157   80   81 1    
   158   80   82 1    
   159   80  201 1    
   160   81  202 1    
   161   81  203 1    
   162   81  204 1    
   163   82   83 2    
   164   82   84 am   BACKBONE|DICT|INTERRES
   165   84   85 1    
   166   84  205 1    
   167   85   86 1    
   168   85   87 1    
   169   85  206 1    
   170   86  207 1    
   171   86  208 1    
   172   86  209 1    
   173   87   88 2    
   174   87   89 am   BACKBONE|DICT|INTERRES
   175   89   90 1    
   176   89  210 1    
   177   90   91 1    
   178   90   92 1    
   179   90  211 1    
   180   91  212 1    
   181   91  213 1    
   182   91  214 1    
   183   92   93 2    
   184   92   94 am   BACKBONE|DICT|INTERRES
   185   94   95 1    
   186   94  215 1    
   187   95   96 1    
   188   95   97 1    
   189   95  216 1    
   190   96  217 1    
   191   96  218 1    
   192   96  219 1    
   193   97   98 2    
   194   97   99 am   BACKBONE|DICT|INTERRES
   195   99  100 1    
   196   99  220 1    
   197  100  101 1    
   198  100  102 1    
   199  100  221 1    
   200  101  222 1    
   201  101  223 1    
   202  101  224 1    
   203  102  103 2    
   204  102  104 am   BACKBONE|DICT|INTERRES
   205  104  105 1    
   206  104  225 1    
   207  105  106 1    
   208  105  107 1    
   209  105  226 1    
   210  106  227 1    
   211  106  228 1    
   212  106  229 1    
   213  107  108 2    
   214  107  109 am   BACKBONE|DICT|INTERRES
   215  109  110 1    
   216  109  230 1    
   217  110  111 1    
   218  110  112 1    
   219  110  231 1    
   220  111  232 1    
   221  111  233 1    
   222  111  234 1    
   223  112  113 2    
   224  112  114 am   BACKBONE|DICT|INTERRES
   225  114  115 1    
   226  114  235 1    
   227  115  116 1    
   228  115  117 1    
   229  115  236 1    
   230  116  237 1    
   231  116  238 1    
   232  116  239 1    
   233  117  118 2    
   234  117  119 am   BACKBONE|DICT|INTERRES
   235  119  120 1    
   236  119  240 1    
   237  120  121 1    
   238  120  124 1    
   239  120  241 1    
   240  121  122 am   BACKBONE|DICT|INTERRES
   241  121  123 2    
   242  122  242 1    
   243  122  243 1    
   244  124  125 1    
   245  124  244 1    
   246  124  245 1    
   247  125  126 1    
   248  126  246 1    
   249  126  247 1    
@<TRIPOS>SUBSTRUCTURE
     1 UNK         1 GROUP             0       ****    0 ROOT    
