@<TRIPOS>MOLECULE
3R540
247   249    1
SMALL
USER_CHARGES


@<TRIPOS>ATOM
      1 CA         -1.6976  -18.4639  -49.3635 C.3       0 UNK        -0.1800 
      2 C          -1.6008  -16.9494  -49.2608 C.2       0 UNK         0.5000 
      3 O          -2.6279  -16.2831  -49.1347 O.2       0 UNK        -0.5000 
      4 N          -0.3791  -16.4022  -49.3228 N.am      1 UNK        -0.5000 
      5 CA         -0.1011  -14.9729  -49.1491 C.3       1 UNK         0.1400 
      6 C6          1.3577  -14.6009  -49.5132 C.3       23 UNK        -0.0398 
      7 S7          1.6984  -14.7417  -51.2972 S.3       23 UNK        -0.2404 
      8 C8          3.1839  -15.7952  -51.3102 C.3       23 UNK        -0.0205 
      9 C9          2.8437  -17.2520  -51.0429 C.ar      23 UNK        -0.0193 
     10 C10         2.1269  -17.9771  -51.9964 C.ar      23 UNK        -0.1150 
     11 C11         1.7818  -19.3103  -51.7675 C.ar      23 UNK        -0.0193 
     12 C12         2.1993  -19.9326  -50.5873 C.ar      23 UNK        -0.1150 
     13 C13         2.9450  -19.2264  -49.6360 C.ar      23 UNK        -0.0193 
     14 C14         3.2537  -17.8816  -49.8639 C.ar      23 UNK        -0.1150 
     15 C15         3.4420  -19.9246  -48.3764 C.3       23 UNK        -0.0205 
     16 S16         2.5436  -19.4147  -46.8755 S.3       23 UNK        -0.2404 
     17 C17         0.8573  -19.9869  -47.2504 C.3       23 UNK        -0.0398 
     18 CA          0.5916  -21.4571  -46.8521 C.3       11 UNK         0.1400 
     19 N           0.6552  -21.6867  -45.4043 N.am      11 UNK        -0.5000 
     20 C           0.5163  -22.8836  -44.8129 C.2       10 UNK         0.5000 
     21 O           0.4000  -23.9428  -45.4278 O.2       10 UNK        -0.5000 
     22 CA          0.4186  -22.8974  -43.2784 C.3       10 UNK         0.1400 
     23 CB          1.8088  -22.8481  -42.6260 C.3       10 UNK        -0.1800 
     24 N          -0.4142  -21.8020  -42.7816 N.am      10 UNK        -0.5000 
     25 C          -1.7439  -21.7348  -42.9440 C.2       9 UNK         0.5000 
     26 O          -2.4104  -22.6168  -43.4848 O.2       9 UNK        -0.5000 
     27 CA         -2.4391  -20.4481  -42.4606 C.3       9 UNK         0.1400 
     28 CB         -2.7406  -20.5265  -40.9569 C.3       9 UNK        -0.1800 
     29 N          -1.6463  -19.2495  -42.7318 N.am      9 UNK        -0.5000 
     30 C          -1.3605  -18.7872  -43.9576 C.2       8 UNK         0.5000 
     31 O          -1.8020  -19.2809  -44.9941 O.2       8 UNK        -0.5000 
     32 CA         -0.3622  -17.6182  -44.0399 C.3       8 UNK         0.1400 
     33 CB         -1.1059  -16.2758  -44.0354 C.3       8 UNK        -0.1800 
     34 N           0.6403  -17.6524  -42.9667 N.am      8 UNK        -0.5000 
     35 C           1.5465  -18.6361  -42.8309 C.2       7 UNK         0.5000 
     36 O           1.6090  -19.5897  -43.6048 O.2       7 UNK        -0.5000 
     37 CA          2.5126  -18.6027  -41.6310 C.3       7 UNK         0.1400 
     38 CB          3.9750  -18.4809  -42.0867 C.3       7 UNK        -0.1800 
     39 N           2.2098  -17.5379  -40.6771 N.am      7 UNK        -0.5000 
     40 C           1.3096  -17.6438  -39.6894 C.2       6 UNK         0.5000 
     41 O           0.6612  -18.6668  -39.4664 O.2       6 UNK        -0.5000 
     42 CA          1.0649  -16.3890  -38.8262 C.3       6 UNK         0.1400 
     43 CB          1.9439  -16.4226  -37.5670 C.3       6 UNK        -0.1800 
     44 N           1.2983  -15.1302  -39.5394 N.am      6 UNK        -0.5000 
     45 C           0.6195  -14.7305  -40.6229 C.2       5 UNK         0.5000 
     46 O          -0.2984  -15.3820  -41.1196 O.2       5 UNK        -0.5000 
     47 CA          1.0515  -13.4153  -41.2980 C.3       5 UNK         0.1400 
     48 CB          2.0087  -12.5503  -40.4479 C.3       5 UNK        -0.1800 
     49 N           1.6239  -13.6545  -42.6255 N.am      5 UNK        -0.5000 
     50 C           2.6930  -14.4097  -42.9317 C.2       4 UNK         0.5000 
     51 O           3.3134  -15.0736  -42.1000 O.2       4 UNK        -0.5000 
     52 CA          3.1666  -14.4242  -44.4037 C.3       4 UNK         0.1400 
     53 CB          2.9615  -15.8045  -45.0456 C.3       4 UNK        -0.1800 
     54 N           2.5036  -13.4182  -45.2348 N.am      4 UNK        -0.5000 
     55 C           2.7589  -12.1014  -45.1896 C.2       3 UNK         0.5000 
     56 O           3.6614  -11.6090  -44.5120 O.2       3 UNK        -0.5000 
     57 CA          1.8429  -11.1686  -46.0107 C.3       3 UNK         0.1400 
     58 CB          2.5681  -10.6853  -47.2762 C.3       3 UNK        -0.1800 
     59 N           0.5657  -11.7694  -46.4038 N.am      3 UNK        -0.5000 
     60 C          -0.3900  -12.2158  -45.5749 C.2       2 UNK         0.5000 
     61 O          -0.3236  -12.1333  -44.3483 O.2       2 UNK        -0.5000 
     62 CA         -1.5904  -12.9285  -46.2306 C.3       2 UNK         0.1400 
     63 CB         -2.7619  -11.9525  -46.4124 C.3       2 UNK        -0.1800 
     64 N          -1.2664  -13.5398  -47.5258 N.am      2 UNK        -0.5000 
     65 C          -0.3890  -14.5386  -47.6993 C.2       1 UNK         0.5000 
     66 O           0.2319  -15.0678  -46.7767 O.2       1 UNK        -0.5000 
     67 C          -0.7570  -21.9157  -47.4405 C.2       11 UNK         0.5000 
     68 O          -0.7681  -22.6480  -48.4295 O.2       11 UNK        -0.5000 
     69 N          -1.8620  -21.5051  -46.8012 N.am      12 UNK        -0.5000 
     70 CA         -3.2254  -21.8812  -47.1679 C.3       12 UNK         0.1400 
     71 CB         -4.2276  -21.1160  -46.2912 C.3       12 UNK        -0.1800 
     72 C          -3.4709  -23.3971  -47.0937 C.2       12 UNK         0.5000 
     73 O          -4.0513  -23.9572  -48.0226 O.2       12 UNK        -0.5000 
     74 N          -2.9906  -24.0365  -46.0181 N.am      13 UNK        -0.5000 
     75 CA         -3.0561  -25.4844  -45.8194 C.3       13 UNK         0.1400 
     76 CB         -2.6065  -25.8295  -44.3917 C.3       13 UNK        -0.1800 
     77 C          -2.2335  -26.2717  -46.8562 C.2       13 UNK         0.5000 
     78 O          -2.7143  -27.2867  -47.3609 O.2       13 UNK        -0.5000 
     79 N          -1.0235  -25.7849  -47.1669 N.am      14 UNK        -0.5000 
     80 CA         -0.1200  -26.3731  -48.1564 C.3       14 UNK         0.1400 
     81 CB          1.2671  -25.7223  -48.0393 C.3       14 UNK        -0.1800 
     82 C          -0.6544  -26.2586  -49.5949 C.2       14 UNK         0.5000 
     83 O          -0.5885  -27.2324  -50.3464 O.2       14 UNK        -0.5000 
     84 N          -1.1792  -25.0780  -49.9491 N.am      15 UNK        -0.5000 
     85 CA         -1.7616  -24.7952  -51.2613 C.3       15 UNK         0.1400 
     86 CB         -1.8586  -23.2748  -51.4431 C.3       15 UNK        -0.1800 
     87 C          -3.1425  -25.4434  -51.4674 C.2       15 UNK         0.5000 
     88 O          -3.5251  -25.6911  -52.6113 O.2       15 UNK        -0.5000 
     89 N          -3.8784  -25.6644  -50.3684 N.am      16 UNK        -0.5000 
     90 CA         -5.2403  -26.2016  -50.2432 C.3       16 UNK         0.1400 
     91 CB         -5.3600  -27.6111  -50.8523 C.3       16 UNK        -0.1800 
     92 C          -6.3293  -25.2528  -50.7808 C.2       16 UNK         0.5000 
     93 O          -7.3156  -25.0027  -50.0876 O.2       16 UNK        -0.5000 
     94 N          -6.1183  -24.7153  -51.9877 N.am      17 UNK        -0.5000 
     95 CA         -6.9378  -23.6763  -52.6128 C.3       17 UNK         0.1400 
     96 CB         -6.6733  -23.6949  -54.1250 C.3       17 UNK        -0.1800 
     97 C          -6.6624  -22.2725  -52.0366 C.2       17 UNK         0.5000 
     98 O          -7.4862  -21.3747  -52.2165 O.2       17 UNK        -0.5000 
     99 N          -5.5133  -22.1088  -51.3625 N.am      18 UNK        -0.5000 
    100 CA        -5.0220  -20.8796  -50.7374 C.3       18 UNK         0.1400 
    101 CB        -5.8764  -20.5336  -49.4981 C.3       18 UNK        -0.1800 
    102 C         -4.8879  -19.7347  -51.7606 C.2       18 UNK         0.5000 
    103 O         -4.2958  -19.9454  -52.8205 O.2       18 UNK        -0.5000 
    104 N         -5.4440  -18.5569  -51.4480 N.am      19 UNK        -0.5000 
    105 CA        -5.3936  -17.3370  -52.2586 C.3       19 UNK         0.1400 
    106 CB        -6.1200  -16.2114  -51.5082 C.3       19 UNK        -0.1800 
    107 C         -5.9511  -17.4801  -53.6895 C.2       19 UNK         0.5000 
    108 O         -5.5363  -16.7233  -54.5670 O.2       19 UNK        -0.5000 
    109 N         -6.8366  -18.4607  -53.9222 N.am      20 UNK        -0.5000 
    110 CA        -7.3551  -18.7974  -55.2507 C.3       20 UNK         0.1400 
    111 CB        -8.5356  -19.7691  -55.1088 C.3       20 UNK        -0.1800 
    112 C         -6.2815  -19.3761  -56.1966 C.2       20 UNK         0.5000 
    113 O         -6.4207  -19.2383  -57.4127 O.2       20 UNK        -0.5000 
    114 N         -5.2322  -19.9888  -55.6310 N.am      21 UNK        -0.5000 
    115 CA        -4.0531  -20.4577  -56.3568 C.3       21 UNK         0.1400 
    116 CB        -3.6765  -21.8644  -55.8655 C.3       21 UNK        -0.1800 
    117 C         -2.8736  -19.4894  -56.1724 C.2       21 UNK         0.5000 
    118 O         -2.1831  -19.1834  -57.1453 O.2       21 UNK        -0.5000 
    119 N         -2.6564  -19.0374  -54.9312 N.am      22 UNK        -0.5000 
    120 CA        -1.5209  -18.1910  -54.5346 C.3       22 UNK         0.1400 
    121 C         -1.6192  -16.7009  -54.9692 C.2       22 UNK         0.5000 
    122 N         -2.7857  -16.1710  -55.3131 N.am      22 UNK        -0.7600 
    123 O         -0.6051  -16.0103  -55.0065 O.2       22 UNK        -0.5000 
    124 C124       -1.2320  -18.3035  -53.0172 C.3       23 UNK        -0.0398 
    125 S125       -0.8112  -20.0062  -52.5065 S.3       23 UNK        -0.2404 
    126 C126        0.9836  -20.0816  -52.8083 C.3       23 UNK        -0.0205 
    127 H127       -0.7819  -18.8932  -49.7671 H         1 UNK         0.0600 
    128 H128       -1.8855  -18.8970  -48.3812 H         1 UNK         0.0600 
    129 H129       -2.5179  -18.7461  -50.0225 H         1 UNK         0.0600 
    130 H130        0.4322  -16.9933  -49.4336 H         1 UNK         0.3000 
    131 H131       -0.7686  -14.4202  -49.8141 H         1 UNK         0.0600 
    132 H132        2.0607  -15.2130  -48.9451 H         1 UNK         0.0800 
    133 H133        1.5725  -13.5664  -49.2386 H         1 UNK         0.0800 
    134 H134        3.9106  -15.4191  -50.5883 H         1 UNK         0.0800 
    135 H135        3.6595  -15.7178  -52.2890 H         1 UNK         0.0800 
    136 H136        1.8284  -17.4926  -52.9156 H         1 UNK         0.1150 
    137 H137        1.9482  -20.9699  -50.4144 H         1 UNK         0.1150 
    138 H138        3.8228  -17.3325  -49.1267 H         1 UNK         0.1150 
    139 H139        3.3743  -21.0082  -48.4838 H         1 UNK         0.0800 
    140 H140        4.5011  -19.7014  -48.2406 H         1 UNK         0.0800 
    141 H141        0.6772  -19.8448  -48.3136 H         1 UNK         0.0800 
    142 H142        0.1593  -19.3197  -46.7462 H         1 UNK         0.0800 
    143 H143        1.3648  -22.0775  -47.3096 H         1 UNK         0.0600 
    144 H144        0.8217  -20.8720  -44.8198 H         1 UNK         0.3000 
    145 H145       -0.0526  -23.8376  -42.9840 H         1 UNK         0.0600 
    146 H146        1.7357  -22.8707  -41.5387 H         1 UNK         0.0600 
    147 H147        2.4065  -23.7086  -42.9291 H         1 UNK         0.0600 
    148 H148        2.3647  -21.9543  -42.9069 H         1 UNK         0.0600 
    149 H149        0.0685  -21.0102  -42.3842 H         1 UNK         0.3000 
    150 H150       -3.3863  -20.3577  -42.9961 H         1 UNK         0.0600 
    151 H151       -3.3393  -21.4082  -40.7243 H         1 UNK         0.0600 
    152 H152       -3.3034  -19.6549  -40.6221 H         1 UNK         0.0600 
    153 H153       -1.8266  -20.5831  -40.3640 H         1 UNK         0.0600 
    154 H154       -1.2365  -18.7825  -41.9357 H         1 UNK         0.3000 
    155 H155        0.1679  -17.7027  -44.9902 H         1 UNK         0.0600 
    156 H156       -0.4120  -15.4355  -44.0584 H         1 UNK         0.0600 
    157 H157       -1.7475  -16.1905  -44.9132 H         1 UNK         0.0600 
    158 H158       -1.7413  -16.1668  -43.1563 H         1 UNK         0.0600 
    159 H159        0.5929  -16.9125  -42.2760 H         1 UNK         0.3000 
    160 H160        2.4135  -19.5677  -41.1293 H         1 UNK         0.0600 
    161 H161        4.6567  -18.6001  -41.2446 H         1 UNK         0.0600 
    162 H162        4.1820  -17.5154  -42.5441 H         1 UNK         0.0600 
    163 H163        4.2261  -19.2513  -42.8171 H         1 UNK         0.0600 
    164 H164        2.6686  -16.6471  -40.8372 H         1 UNK         0.3000 
    165 H165        0.0186  -16.4059  -38.5143 H         1 UNK         0.0600 
    166 H166        1.7199  -15.5850  -36.9063 H         1 UNK         0.0600 
    167 H167        1.7760  -17.3378  -36.9976 H         1 UNK         0.0600 
    168 H168        3.0050  -16.3809  -37.8162 H         1 UNK         0.0600 
    169 H169        2.0589  -14.5546  -39.2085 H         1 UNK         0.3000 
    170 H170        0.1383  -12.8397  -41.4555 H         1 UNK         0.0600 
    171 H171        1.5719  -12.3186  -39.4757 H         1 UNK         0.0600 
    172 H172        2.9692  -13.0374  -40.2764 H         1 UNK         0.0600 
    173 H173        2.2095  -11.5994  -40.9419 H         1 UNK         0.0600 
    174 H174        1.1433  -13.1783  -43.3811 H         1 UNK         0.3000 
    175 H175        4.2380  -14.2139  -44.3987 H         1 UNK         0.0600 
    176 H176        1.9141  -16.0988  -45.0327 H         1 UNK         0.0600 
    177 H177        3.2956  -15.8143  -46.0833 H         1 UNK         0.0600 
    178 H178        3.5244  -16.5747  -44.5209 H         1 UNK         0.0600 
    179 H179        1.7393  -13.7519  -45.8095 H         1 UNK         0.3000 
    180 H180        1.6222  -10.3005  -45.3864 H         1 UNK         0.0600 
    181 H181        2.7979  -11.5126  -47.9489 H         1 UNK         0.0600 
    182 H182        3.5101  -10.1959  -47.0250 H         1 UNK         0.0600 
    183 H183        1.9657   -9.9615  -47.8255 H         1 UNK         0.0600 
    184 H184        0.4102  -11.8742  -47.3949 H         1 UNK         0.3000 
    185 H185       -1.9090  -13.7233  -45.5535 H         1 UNK         0.0600 
    186 H186       -3.0439  -11.4995  -45.4609 H         1 UNK         0.0600 
    187 H187       -2.5101  -11.1436  -47.0994 H         1 UNK         0.0600 
    188 H188       -3.6436  -12.4625  -46.8013 H         1 UNK         0.0600 
    189 H189       -1.7501  -13.1663  -48.3300 H         1 UNK         0.3000 
    190 H190       -1.7695  -20.8627  -46.0180 H         1 UNK         0.3000 
    191 H191       -3.3770  -21.5760  -48.2033 H         1 UNK         0.0600 
    192 H192       -4.0712  -21.3172  -45.2317 H         1 UNK         0.0600 
    193 H193       -5.2543  -21.3971  -46.5267 H         1 UNK         0.0600 
    194 H194       -4.1406  -20.0400  -46.4430 H         1 UNK         0.0600 
    195 H195       -2.5659  -23.4939  -45.2724 H         1 UNK         0.3000 
    196 H196       -4.0998  -25.7870  -45.9270 H         1 UNK         0.0600 
    197 H197       -2.6627  -26.9038  -44.2126 H         1 UNK         0.0600 
    198 H198       -3.2407  -25.3425  -43.6507 H         1 UNK         0.0600 
    199 H199       -1.5780  -25.5183  -44.2070 H         1 UNK         0.0600 
    200 H200       -0.6781  -24.9702  -46.6669 H         1 UNK         0.3000 
    201 H201       -0.0146  -27.4351  -47.9250 H         1 UNK         0.0600 
    202 H202        1.6938  -25.8821  -47.0490 H         1 UNK         0.0600 
    203 H203        1.2240  -24.6467  -48.2141 H         1 UNK         0.0600 
    204 H204        1.9617  -26.1468  -48.7652 H         1 UNK         0.0600 
    205 H205       -1.1448  -24.3043  -49.2891 H         1 UNK         0.3000 
    206 H206       -1.0938  -25.1881  -52.0309 H         1 UNK         0.0600 
    207 H207       -0.8714  -22.8152  -51.3956 H         1 UNK         0.0600 
    208 H208       -2.2943  -23.0132  -52.4085 H         1 UNK         0.0600 
    209 H209       -2.4715  -22.8196  -50.6658 H         1 UNK         0.0600 
    210 H210       -3.4967  -25.3281  -49.4910 H         1 UNK         0.3000 
    211 H211       -5.4122  -26.2972  -49.1697 H         1 UNK         0.0600 
    212 H212       -5.2316  -27.6045  -51.9349 H         1 UNK         0.0600 
    213 H213       -6.3413  -28.0394  -50.6453 H         1 UNK         0.0600 
    214 H214       -4.6148  -28.2852  -50.4297 H         1 UNK         0.0600 
    215 H215       -5.2773  -25.0027  -52.4820 H         1 UNK         0.3000 
    216 H216       -7.9921  -23.9038  -52.4424 H         1 UNK         0.0600 
    217 H217       -7.2487  -22.9250  -54.6396 H         1 UNK         0.0600 
    218 H218       -6.9514  -24.6542  -54.5615 H         1 UNK         0.0600 
    219 H219       -5.6198  -23.5219  -54.3423 H         1 UNK         0.0600 
    220 H220       -4.9053  -22.9100  -51.2926 H         1 UNK         0.3000 
    221 H221       -4.0084  -21.0875  -50.3972 H         1 UNK         0.0600 
    222 H222       -6.8922  -20.2408  -49.7662 H         1 UNK         0.0600 
    223 H223       -5.9543  -21.3939  -48.8337 H         1 UNK         0.0600 
    224 H224       -5.4310  -19.7215  -48.9219 H         1 UNK         0.0600 
    225 H225       -5.9343  -18.4826  -50.5688 H         1 UNK         0.3000 
    226 H226       -4.3436  -17.0547  -52.3537 H         1 UNK         0.0600 
    227 H227       -5.6582  -16.0226  -50.5385 H         1 UNK         0.0600 
    228 H228       -6.0819  -15.2774  -52.0705 H         1 UNK         0.0600 
    229 H229       -7.1706  -16.4524  -51.3414 H         1 UNK         0.0600 
    230 H230       -7.1115  -19.0647  -53.1587 H         1 UNK         0.3000 
    231 H231       -7.7295  -17.8780  -55.7058 H         1 UNK         0.0600 
    232 H232       -8.2237  -20.7216  -54.6823 H         1 UNK         0.0600 
    233 H233       -9.3161  -19.3543  -54.4707 H         1 UNK         0.0600 
    234 H234       -8.9863  -19.9786  -56.0797 H         1 UNK         0.0600 
    235 H235       -5.1775  -20.0262  -54.6189 H         1 UNK         0.3000 
    236 H236       -4.2615  -20.5245  -57.4267 H         1 UNK         0.0600 
    237 H237       -2.7483  -22.2054  -56.3259 H         1 UNK         0.0600 
    238 H238       -3.5377  -21.8949  -54.7838 H         1 UNK         0.0600 
    239 H239       -4.4492  -22.5855  -56.1295 H         1 UNK         0.0600 
    240 H240       -3.2444  -19.3732  -54.1721 H         1 UNK         0.3000 
    241 H241       -0.6421  -18.5787  -55.0534 H         1 UNK         0.0600 
    242 H242       -3.6549  -16.6863  -55.2357 H         1 UNK         0.3800 
    243 H243       -2.8153  -15.2061  -55.6006 H         1 UNK         0.3800 
    244 H244       -0.4371  -17.6251  -52.7120 H         1 UNK         0.0800 
    245 H245       -2.1096  -17.9931  -52.4499 H         1 UNK         0.0800 
    246 H246        1.2042  -19.7114  -53.8104 H         1 UNK         0.0800 
    247 H247        1.2913  -21.1281  -52.8002 H         1 UNK         0.0800 
@<TRIPOS>BOND
     1    1    2 1    
     2    1  127 1    
     3    1  128 1    
     4    1  129 1    
     5    2    3 2    
     6    2    4 am   BACKBONE|DICT|INTERRES
     7    4    5 1    
     8    4  130 1    
     9    5    6 1    
    10    5   65 1    
    11    5  131 1    
    12    6    7 1    
    13    6  132 1    
    14    6  133 1    
    15    7    8 1    
    16    8    9 1    
    17    8  134 1    
    18    8  135 1    
    19    9   10 ar   
    20    9   14 ar   
    21   10   11 ar   
    22   10  136 1    
    23   11   12 ar   
    24   11  126 1    
    25   12   13 ar   
    26   12  137 1    
    27   13   14 ar   
    28   13   15 1    
    29   14  138 1    
    30   15   16 1    
    31   15  139 1    
    32   15  140 1    
    33   16   17 1    
    34   17   18 1    
    35   17  141 1    
    36   17  142 1    
    37   18   19 1    
    38   18   67 1    
    39   18  143 1    
    40   19   20 am   BACKBONE|DICT|INTERRES
    41   19  144 1    
    42   20   21 2    
    43   20   22 1    
    44   22   23 1    
    45   22   24 1    
    46   22  145 1    
    47   23  146 1    
    48   23  147 1    
    49   23  148 1    
    50   24   25 am   BACKBONE|DICT|INTERRES
    51   24  149 1    
    52   25   26 2    
    53   25   27 1    
    54   27   28 1    
    55   27   29 1    
    56   27  150 1    
    57   28  151 1    
    58   28  152 1    
    59   28  153 1    
    60   29   30 am   BACKBONE|DICT|INTERRES
    61   29  154 1    
    62   30   31 2    
    63   30   32 1    
    64   32   33 1    
    65   32   34 1    
    66   32  155 1    
    67   33  156 1    
    68   33  157 1    
    69   33  158 1    
    70   34   35 am   BACKBONE|DICT|INTERRES
    71   34  159 1    
    72   35   36 2    
    73   35   37 1    
    74   37   38 1    
    75   37   39 1    
    76   37  160 1    
    77   38  161 1    
    78   38  162 1    
    79   38  163 1    
    80   39   40 am   BACKBONE|DICT|INTERRES
    81   39  164 1    
    82   40   41 2    
    83   40   42 1    
    84   42   43 1    
    85   42   44 1    
    86   42  165 1    
    87   43  166 1    
    88   43  167 1    
    89   43  168 1    
    90   44   45 am   BACKBONE|DICT|INTERRES
    91   44  169 1    
    92   45   46 2    
    93   45   47 1    
    94   47   48 1    
    95   47   49 1    
    96   47  170 1    
    97   48  171 1    
    98   48  172 1    
    99   48  173 1    
   100   49   50 am   BACKBONE|DICT|INTERRES
   101   49  174 1    
   102   50   51 2    
   103   50   52 1    
   104   52   53 1    
   105   52   54 1    
   106   52  175 1    
   107   53  176 1    
   108   53  177 1    
   109   53  178 1    
   110   54   55 am   BACKBONE|DICT|INTERRES
   111   54  179 1    
   112   55   56 2    
   113   55   57 1    
   114   57   58 1    
   115   57   59 1    
   116   57  180 1    
   117   58  181 1    
   118   58  182 1    
   119   58  183 1    
   120   59   60 am   BACKBONE|DICT|INTERRES
   121   59  184 1    
   122   60   61 2    
   123   60   62 1    
   124   62   63 1    
   125   62   64 1    
   126   62  185 1    
   127   63  186 1    
   128   63  187 1    
   129   63  188 1    
   130   64   65 am   BACKBONE|DICT|INTERRES
   131   64  189 1    
   132   65   66 2    
   133   67   68 2    
   134   67   69 am   BACKBONE|DICT|INTERRES
   135   69   70 1    
   136   69  190 1    
   137   70   71 1    
   138   70   72 1    
   139   70  191 1    
   140   71  192 1    
   141   71  193 1    
   142   71  194 1    
   143   72   73 2    
   144   72   74 am   BACKBONE|DICT|INTERRES
   145   74   75 1    
   146   74  195 1    
   147   75   76 1    
   148   75   77 1    
   149   75  196 1    
   150   76  197 1    
   151   76  198 1    
   152   76  199 1    
   153   77   78 2    
   154   77   79 am   BACKBONE|DICT|INTERRES
   155   79   80 1    
   156   79  200 1    
   157   80   81 1    
   158   80   82 1    
   159   80  201 1    
   160   81  202 1    
   161   81  203 1    
   162   81  204 1    
   163   82   83 2    
   164   82   84 am   BACKBONE|DICT|INTERRES
   165   84   85 1    
   166   84  205 1    
   167   85   86 1    
   168   85   87 1    
   169   85  206 1    
   170   86  207 1    
   171   86  208 1    
   172   86  209 1    
   173   87   88 2    
   174   87   89 am   BACKBONE|DICT|INTERRES
   175   89   90 1    
   176   89  210 1    
   177   90   91 1    
   178   90   92 1    
   179   90  211 1    
   180   91  212 1    
   181   91  213 1    
   182   91  214 1    
   183   92   93 2    
   184   92   94 am   BACKBONE|DICT|INTERRES
   185   94   95 1    
   186   94  215 1    
   187   95   96 1    
   188   95   97 1    
   189   95  216 1    
   190   96  217 1    
   191   96  218 1    
   192   96  219 1    
   193   97   98 2    
   194   97   99 am   BACKBONE|DICT|INTERRES
   195   99  100 1    
   196   99  220 1    
   197  100  101 1    
   198  100  102 1    
   199  100  221 1    
   200  101  222 1    
   201  101  223 1    
   202  101  224 1    
   203  102  103 2    
   204  102  104 am   BACKBONE|DICT|INTERRES
   205  104  105 1    
   206  104  225 1    
   207  105  106 1    
   208  105  107 1    
   209  105  226 1    
   210  106  227 1    
   211  106  228 1    
   212  106  229 1    
   213  107  108 2    
   214  107  109 am   BACKBONE|DICT|INTERRES
   215  109  110 1    
   216  109  230 1    
   217  110  111 1    
   218  110  112 1    
   219  110  231 1    
   220  111  232 1    
   221  111  233 1    
   222  111  234 1    
   223  112  113 2    
   224  112  114 am   BACKBONE|DICT|INTERRES
   225  114  115 1    
   226  114  235 1    
   227  115  116 1    
   228  115  117 1    
   229  115  236 1    
   230  116  237 1    
   231  116  238 1    
   232  116  239 1    
   233  117  118 2    
   234  117  119 am   BACKBONE|DICT|INTERRES
   235  119  120 1    
   236  119  240 1    
   237  120  121 1    
   238  120  124 1    
   239  120  241 1    
   240  121  122 am   BACKBONE|DICT|INTERRES
   241  121  123 2    
   242  122  242 1    
   243  122  243 1    
   244  124  125 1    
   245  124  244 1    
   246  124  245 1    
   247  125  126 1    
   248  126  246 1    
   249  126  247 1    
@<TRIPOS>SUBSTRUCTURE
     1 UNK         1 GROUP             0       ****    0 ROOT    
