@<TRIPOS>MOLECULE
3R540
247   249    1
SMALL
USER_CHARGES


@<TRIPOS>ATOM
      1 CA          0.8832  -11.1090  -46.1846 C.3       0 UNK        -0.1800 
      2 C           0.1448  -11.5142  -47.4523 C.2       0 UNK         0.5000 
      3 O           0.6621  -11.3032  -48.5483 O.2       0 UNK        -0.5000 
      4 N          -1.0619  -12.0787  -47.3044 N.am      1 UNK        -0.5000 
      5 CA         -1.9523  -12.4779  -48.4007 C.3       1 UNK         0.1400 
      6 C6         -3.3578  -12.9145  -47.9144 C.3       23 UNK        -0.0398 
      7 S7         -4.0971  -11.9372  -46.5548 S.3       23 UNK        -0.2404 
      8 C8         -5.7534  -12.6997  -46.3512 C.3       23 UNK        -0.0205 
      9 C9         -5.7643  -14.1932  -46.6547 C.ar      23 UNK        -0.0193 
     10 C10        -6.0219  -14.6208  -47.9603 C.ar      23 UNK        -0.1150 
     11 C11        -5.8818  -15.9635  -48.3097 C.ar      23 UNK        -0.0193 
     12 C12        -5.5732  -16.8986  -47.3197 C.ar      23 UNK        -0.1150 
     13 C13        -5.3477  -16.4937  -46.0009 C.ar      23 UNK        -0.0193 
     14 C14        -5.4374  -15.1356  -45.6725 C.ar      23 UNK        -0.1150 
     15 C15        -4.9991  -17.5350  -44.9479 C.3       23 UNK        -0.0205 
     16 S16        -3.2253  -17.9588  -44.9670 S.3       23 UNK        -0.2404 
     17 C17        -3.2463  -19.5524  -44.0708 C.3       23 UNK        -0.0398 
     18 CA         -2.8395  -20.7319  -44.9887 C.3       11 UNK         0.1400 
     19 N          -1.4177  -20.6889  -45.3311 N.am      11 UNK        -0.5000 
     20 C          -0.8765  -21.3245  -46.3752 C.2       10 UNK         0.5000 
     21 O          -1.5223  -21.9931  -47.1772 O.2       10 UNK        -0.5000 
     22 CA          0.6505  -21.2457  -46.5149 C.3       10 UNK         0.1400 
     23 CB          1.0743  -19.9372  -47.1956 C.3       10 UNK        -0.1800 
     24 N           1.3164  -21.4115  -45.2215 N.am      10 UNK        -0.5000 
     25 C           1.3381  -22.5853  -44.5719 C.2       9 UNK         0.5000 
     26 O           0.8036  -23.6064  -45.0087 O.2       9 UNK        -0.5000 
     27 CA          2.0344  -22.6477  -43.1990 C.3       9 UNK         0.1400 
     28 CB          3.5018  -23.0681  -43.3662 C.3       9 UNK        -0.1800 
     29 N           1.9717  -21.4244  -42.3945 N.am      9 UNK        -0.5000 
     30 C           0.8549  -20.7784  -42.0346 C.2       8 UNK         0.5000 
     31 O          -0.2653  -21.0749  -42.4534 O.2       8 UNK        -0.5000 
     32 CA          0.9905  -19.6062  -41.0499 C.3       8 UNK         0.1400 
     33 CB          2.4369  -19.1257  -40.8159 C.3       8 UNK        -0.1800 
     34 N           0.1966  -18.5057  -41.5726 N.am      8 UNK        -0.5000 
     35 C          -0.6913  -17.7696  -40.8953 C.2       7 UNK         0.5000 
     36 O          -0.9281  -17.9220  -39.6958 O.2       7 UNK        -0.5000 
     37 CA         -1.4632  -16.6960  -41.6987 C.3       7 UNK         0.1400 
     38 CB         -1.6918  -15.4014  -40.8915 C.3       7 UNK        -0.1800 
     39 N          -0.8768  -16.4019  -43.0143 N.am      7 UNK        -0.5000 
     40 C           0.3347  -15.8839  -43.2613 C.2       6 UNK         0.5000 
     41 O           1.1185  -15.4915  -42.3943 O.2       6 UNK        -0.5000 
     42 CA          0.7481  -15.8198  -44.7395 C.3       6 UNK         0.1400 
     43 CB          0.7091  -14.3712  -45.2407 C.3       6 UNK        -0.1800 
     44 N           2.0840  -16.3717  -44.9609 N.am      6 UNK        -0.5000 
     45 C           2.4402  -17.6432  -44.7391 C.2       5 UNK         0.5000 
     46 O           1.6764  -18.5045  -44.2914 O.2       5 UNK        -0.5000 
     47 CA          3.8712  -18.0142  -45.1601 C.3       5 UNK         0.1400 
     48 CB          4.2444  -19.4673  -44.7878 C.3       5 UNK        -0.1800 
     49 N           4.0124  -17.7754  -46.5986 N.am      5 UNK        -0.5000 
     50 C           5.1518  -17.8592  -47.3011 C.2       4 UNK         0.5000 
     51 O           6.2465  -18.1304  -46.8062 O.2       4 UNK        -0.5000 
     52 CA          5.0667  -17.5784  -48.8165 C.3       4 UNK         0.1400 
     53 CB          4.6719  -18.8543  -49.5766 C.3       4 UNK        -0.1800 
     54 N           4.1258  -16.5123  -49.1581 N.am      4 UNK        -0.5000 
     55 C           4.2281  -15.2386  -48.7597 C.2       3 UNK         0.5000 
     56 O           5.2070  -14.7957  -48.1574 O.2       3 UNK        -0.5000 
     57 CA          3.0499  -14.2876  -49.0623 C.3       3 UNK         0.1400 
     58 CB          3.4436  -13.2898  -50.1629 C.3       3 UNK        -0.1800 
     59 N           1.7535  -14.8791  -49.4230 N.am      3 UNK        -0.5000 
     60 C           1.0753  -15.8478  -48.7925 C.2       2 UNK         0.5000 
     61 O           1.5504  -16.5808  -47.9254 O.2       2 UNK        -0.5000 
     62 CA         -0.4192  -15.9291  -49.1358 C.3       2 UNK         0.1400 
     63 CB         -1.1044  -17.1711  -48.5348 C.3       2 UNK        -0.1800 
     64 N          -1.0558  -14.7380  -48.5851 N.am      2 UNK        -0.5000 
     65 C          -1.3333  -13.6090  -49.2510 C.2       1 UNK         0.5000 
     66 O          -1.1049  -13.4371  -50.4484 O.2       1 UNK        -0.5000 
     67 C          -3.2226  -22.0881  -44.3612 C.2       11 UNK         0.5000 
     68 O          -4.2682  -22.6387  -44.7060 O.2       11 UNK        -0.5000 
     69 N          -2.3847  -22.5921  -43.4462 N.am      12 UNK        -0.5000 
     70 CA         -2.6678  -23.7703  -42.6307 C.3       12 UNK         0.1400 
     71 CB         -1.7899  -23.7391  -41.3692 C.3       12 UNK        -0.1800 
     72 C          -2.4920  -25.1029  -43.3770 C.2       12 UNK         0.5000 
     73 O          -3.3899  -25.9440  -43.3161 O.2       12 UNK        -0.5000 
     74 N          -1.3352  -25.2948  -44.0251 N.am      13 UNK        -0.5000 
     75 CA         -0.9329  -26.5803  -44.5985 C.3       13 UNK         0.1400 
     76 CB          0.5346  -26.8710  -44.2416 C.3       13 UNK        -0.1800 
     77 C          -1.1444  -26.6213  -46.1168 C.2       13 UNK         0.5000 
     78 O          -1.6922  -27.6031  -46.6197 O.2       13 UNK        -0.5000 
     79 N          -0.7143  -25.5667  -46.8248 N.am      14 UNK        -0.5000 
     80 CA         -0.8156  -25.4879  -48.2877 C.3       14 UNK         0.1400 
     81 CB          0.2379  -24.5072  -48.8259 C.3       14 UNK        -0.1800 
     82 C          -2.2278  -25.1101  -48.7807 C.2       14 UNK         0.5000 
     83 O          -2.5280  -25.3178  -49.9561 O.2       14 UNK        -0.5000 
     84 N          -3.0593  -24.5657  -47.8793 N.am      15 UNK        -0.5000 
     85 CA         -4.4292  -24.0907  -48.1014 C.3       15 UNK         0.1400 
     86 CB         -5.3836  -25.2664  -48.3959 C.3       15 UNK        -0.1800 
     87 C          -4.5211  -22.9307  -49.1182 C.2       15 UNK         0.5000 
     88 O          -5.5052  -22.8236  -49.8525 O.2       15 UNK        -0.5000 
     89 N          -3.4918  -22.0715  -49.1001 N.am      16 UNK        -0.5000 
     90 CA         -3.3248  -20.7823  -49.7684 C.3       16 UNK         0.1400 
     91 CB         -4.0408  -19.6924  -48.9570 C.3       16 UNK        -0.1800 
     92 C          -3.7138  -20.7750  -51.2560 C.2       16 UNK         0.5000 
     93 O          -2.8729  -21.0731  -52.1042 O.2       16 UNK        -0.5000 
     94 N          -4.9779  -20.4422  -51.5494 N.am      17 UNK        -0.5000 
     95 CA         -5.5687  -20.4210  -52.8875 C.3       17 UNK         0.1400 
     96 CB         -7.0115  -19.9053  -52.7890 C.3       17 UNK        -0.1800 
     97 C          -5.5255  -21.7828  -53.6079 C.2       17 UNK         0.5000 
     98 O          -5.4290  -21.8049  -54.8344 O.2       17 UNK        -0.5000 
     99 N          -5.5298  -22.8880  -52.8475 N.am      18 UNK        -0.5000 
    100 CA        -5.3541  -24.2492  -53.3645 C.3       18 UNK         0.1400 
    101 CB        -5.6649  -25.2550  -52.2494 C.3       18 UNK        -0.1800 
    102 C         -3.9417  -24.5044  -53.9313 C.2       18 UNK         0.5000 
    103 O         -3.7924  -25.3191  -54.8423 O.2       18 UNK        -0.5000 
    104 N         -2.9432  -23.7837  -53.4045 N.am      19 UNK        -0.5000 
    105 CA        -1.5572  -23.7727  -53.8749 C.3       19 UNK         0.1400 
    106 CB        -0.6312  -23.7483  -52.6474 C.3       19 UNK        -0.1800 
    107 C         -1.2752  -22.5736  -54.8050 C.2       19 UNK         0.5000 
    108 O         -0.1271  -22.3776  -55.2045 O.2       19 UNK        -0.5000 
    109 N         -2.3173  -21.7858  -55.1151 N.am      20 UNK        -0.5000 
    110 CA        -2.3212  -20.5512  -55.9047 C.3       20 UNK         0.1400 
    111 CB        -1.8908  -20.8230  -57.3610 C.3       20 UNK        -0.1800 
    112 C         -1.5382  -19.3867  -55.2600 C.2       20 UNK         0.5000 
    113 O         -1.2026  -18.4274  -55.9567 O.2       20 UNK        -0.5000 
    114 N         -1.2953  -19.4472  -53.9410 N.am      21 UNK        -0.5000 
    115 CA        -0.5535  -18.4297  -53.1867 C.3       21 UNK         0.1400 
    116 CB        -0.2334  -18.9615  -51.7816 C.3       21 UNK        -0.1800 
    117 C         -1.2975  -17.0830  -53.1010 C.2       21 UNK         0.5000 
    118 O         -0.6522  -16.0365  -53.0503 O.2       21 UNK        -0.5000 
    119 N         -2.6342  -17.1452  -53.1229 N.am      22 UNK        -0.5000 
    120 CA        -3.5427  -15.9919  -53.2305 C.3       22 UNK         0.1400 
    121 C         -3.9207  -15.6409  -54.7020 C.2       22 UNK         0.5000 
    122 N         -3.3267  -16.2543  -55.7202 N.am      22 UNK        -0.7600 
    123 O         -4.7640  -14.7788  -54.9329 O.2       22 UNK        -0.5000 
    124 C124       -4.7985  -16.1767  -52.3362 C.3       23 UNK        -0.0398 
    125 S125       -4.3595  -16.1421  -50.5703 S.3       23 UNK        -0.2404 
    126 C126       -5.9786  -16.3728  -49.7702 C.3       23 UNK        -0.0205 
    127 H127        0.3086  -11.3399  -45.2873 H         1 UNK         0.0600 
    128 H128        1.0804  -10.0371  -46.1933 H         1 UNK         0.0600 
    129 H129        1.8384  -11.6304  -46.1239 H         1 UNK         0.0600 
    130 H130       -1.4494  -12.1850  -46.3778 H         1 UNK         0.3000 
    131 H131       -2.0780  -11.6050  -49.0449 H         1 UNK         0.0600 
    132 H132       -3.3267  -13.9457  -47.5602 H         1 UNK         0.0800 
    133 H133       -4.0426  -12.9001  -48.7634 H         1 UNK         0.0800 
    134 H134       -6.4590  -12.1851  -47.0053 H         1 UNK         0.0800 
    135 H135       -6.1033  -12.5243  -45.3330 H         1 UNK         0.0800 
    136 H136       -6.2482  -13.8937  -48.7276 H         1 UNK         0.1150 
    137 H137       -5.4785  -17.9412  -47.5764 H         1 UNK         0.1150 
    138 H138       -5.2292  -14.8100  -44.6630 H         1 UNK         0.1150 
    139 H139       -5.5929  -18.4321  -45.1304 H         1 UNK         0.0800 
    140 H140       -5.2745  -17.1798  -43.9537 H         1 UNK         0.0800 
    141 H141       -2.5733  -19.4833  -43.2145 H         1 UNK         0.0800 
    142 H142       -4.2420  -19.7115  -43.6529 H         1 UNK         0.0800 
    143 H143       -3.4163  -20.6490  -45.9120 H         1 UNK         0.0600 
    144 H144       -0.8054  -20.2158  -44.6820 H         1 UNK         0.3000 
    145 H145        0.9753  -22.0638  -47.1592 H         1 UNK         0.0600 
    146 H146        0.6967  -19.8996  -48.2176 H         1 UNK         0.0600 
    147 H147        2.1582  -19.8516  -47.2533 H         1 UNK         0.0600 
    148 H148        0.6877  -19.0607  -46.6761 H         1 UNK         0.0600 
    149 H149        1.6966  -20.5814  -44.7818 H         1 UNK         0.3000 
    150 H150        1.5289  -23.4277  -42.6267 H         1 UNK         0.0600 
    151 H151        4.0798  -22.3131  -43.8996 H         1 UNK         0.0600 
    152 H152        3.5798  -23.9989  -43.9300 H         1 UNK         0.0600 
    153 H153        3.9779  -23.2361  -42.4001 H         1 UNK         0.0600 
    154 H154        2.8487  -21.0955  -42.0192 H         1 UNK         0.3000 
    155 H155        0.5796  -19.9523  -40.0997 H         1 UNK         0.0600 
    156 H156        2.4559  -18.2851  -40.1218 H         1 UNK         0.0600 
    157 H157        2.9093  -18.7940  -41.7407 H         1 UNK         0.0600 
    158 H158        3.0548  -19.9110  -40.3793 H         1 UNK         0.0600 
    159 H159        0.3243  -18.3279  -42.5614 H         1 UNK         0.3000 
    160 H160       -2.4440  -17.1283  -41.9012 H         1 UNK         0.0600 
    161 H161       -0.7524  -14.9481  -40.5746 H         1 UNK         0.0600 
    162 H162       -2.2761  -15.5993  -39.9923 H         1 UNK         0.0600 
    163 H163       -2.2408  -14.6637  -41.4768 H         1 UNK         0.0600 
    164 H164       -1.4415  -16.6966  -43.8009 H         1 UNK         0.3000 
    165 H165        0.0478  -16.4099  -45.3344 H         1 UNK         0.0600 
    166 H166        0.9782  -14.3059  -46.2937 H         1 UNK         0.0600 
    167 H167       -0.2905  -13.9503  -45.1292 H         1 UNK         0.0600 
    168 H168        1.3976  -13.7373  -44.6805 H         1 UNK         0.0600 
    169 H169        2.7717  -15.7371  -45.3367 H         1 UNK         0.3000 
    170 H170        4.5443  -17.3399  -44.6274 H         1 UNK         0.0600 
    171 H171        5.3157  -19.6412  -44.8808 H         1 UNK         0.0600 
    172 H172        3.7399  -20.1894  -45.4275 H         1 UNK         0.0600 
    173 H173        3.9836  -19.6932  -43.7541 H         1 UNK         0.0600 
    174 H174        3.1603  -17.4966  -47.0802 H         1 UNK         0.3000 
    175 H175        6.0585  -17.2706  -49.1542 H         1 UNK         0.0600 
    176 H176        5.3614  -19.6701  -49.3553 H         1 UNK         0.0600 
    177 H177        3.6694  -19.1895  -49.3075 H         1 UNK         0.0600 
    178 H178        4.6944  -18.6944  -50.6547 H         1 UNK         0.0600 
    179 H179        3.2671  -16.7922  -49.6084 H         1 UNK         0.3000 
    180 H180        2.8782  -13.7199  -48.1458 H         1 UNK         0.0600 
    181 H181        3.5748  -13.7874  -51.1246 H         1 UNK         0.0600 
    182 H182        4.3800  -12.7841  -49.9233 H         1 UNK         0.0600 
    183 H183        2.6843  -12.5167  -50.2846 H         1 UNK         0.0600 
    184 H184        1.2323  -14.3505  -50.1099 H         1 UNK         0.3000 
    185 H185       -0.5312  -15.9615  -50.2212 H         1 UNK         0.0600 
    186 H186       -0.6696  -18.0875  -48.9309 H         1 UNK         0.0600 
    187 H187       -1.0126  -17.2066  -47.4487 H         1 UNK         0.0600 
    188 H188       -2.1670  -17.1868  -48.7735 H         1 UNK         0.0600 
    189 H189       -1.2358  -14.7618  -47.5930 H         1 UNK         0.3000 
    190 H190       -1.5540  -22.0583  -43.1945 H         1 UNK         0.3000 
    191 H191       -3.7086  -23.7126  -42.3041 H         1 UNK         0.0600 
    192 H192       -1.9714  -22.8361  -40.7859 H         1 UNK         0.0600 
    193 H193       -2.0024  -24.5917  -40.7230 H         1 UNK         0.0600 
    194 H194       -0.7280  -23.7692  -41.6139 H         1 UNK         0.0600 
    195 H195       -0.6633  -24.5387  -44.1024 H         1 UNK         0.3000 
    196 H196       -1.5288  -27.3860  -44.1640 H         1 UNK         0.0600 
    197 H197        0.8321  -27.8565  -44.6017 H         1 UNK         0.0600 
    198 H198        0.6861  -26.8609  -43.1622 H         1 UNK         0.0600 
    199 H199        1.2188  -26.1460  -44.6817 H         1 UNK         0.0600 
    200 H200       -0.2542  -24.8013  -46.3432 H         1 UNK         0.3000 
    201 H201       -0.5815  -26.4722  -48.6990 H         1 UNK         0.0600 
    202 H202        0.3599  -24.6289  -49.9020 H         1 UNK         0.0600 
    203 H203        1.2137  -24.6743  -48.3695 H         1 UNK         0.0600 
    204 H204       -0.0453  -23.4712  -48.6547 H         1 UNK         0.0600 
    205 H205       -2.6857  -24.4035  -46.9550 H         1 UNK         0.3000 
    206 H206       -4.7499  -23.6573  -47.1539 H         1 UNK         0.0600 
    207 H207       -5.3926  -25.9733  -47.5664 H         1 UNK         0.0600 
    208 H208       -6.4088  -24.9214  -48.5346 H         1 UNK         0.0600 
    209 H209       -5.0967  -25.8161  -49.2903 H         1 UNK         0.0600 
    210 H210       -2.7434  -22.2783  -48.4396 H         1 UNK         0.3000 
    211 H211       -2.2568  -20.5646  -49.7318 H         1 UNK         0.0600 
    212 H212       -5.0939  -19.9253  -48.7974 H         1 UNK         0.0600 
    213 H213       -3.9801  -18.7303  -49.4613 H         1 UNK         0.0600 
    214 H214       -3.5742  -19.5657  -47.9806 H         1 UNK         0.0600 
    215 H215       -5.6087  -20.2717  -50.7800 H         1 UNK         0.3000 
    216 H216       -4.9930  -19.7155  -53.4899 H         1 UNK         0.0600 
    217 H217       -7.4707  -19.8380  -53.7762 H         1 UNK         0.0600 
    218 H218       -7.6323  -20.5656  -52.1820 H         1 UNK         0.0600 
    219 H219       -7.0484  -18.9100  -52.3459 H         1 UNK         0.0600 
    220 H220       -5.5956  -22.7885  -51.8377 H         1 UNK         0.3000 
    221 H221       -6.0726  -24.3993  -54.1730 H         1 UNK         0.0600 
    222 H222       -4.9302  -25.1841  -51.4484 H         1 UNK         0.0600 
    223 H223       -6.6525  -25.0855  -51.8200 H         1 UNK         0.0600 
    224 H224       -5.6408  -26.2780  -52.6267 H         1 UNK         0.0600 
    225 H225       -3.1585  -23.1120  -52.6776 H         1 UNK         0.3000 
    226 H226       -1.3450  -24.6806  -54.4429 H         1 UNK         0.0600 
    227 H227        0.4187  -23.7664  -52.9419 H         1 UNK         0.0600 
    228 H228       -0.7879  -22.8573  -52.0383 H         1 UNK         0.0600 
    229 H229       -0.8039  -24.6198  -52.0167 H         1 UNK         0.0600 
    230 H230       -3.2197  -22.0515  -54.7431 H         1 UNK         0.3000 
    231 H231       -3.3610  -20.2229  -55.9321 H         1 UNK         0.0600 
    232 H232       -0.8328  -21.0759  -57.4319 H         1 UNK         0.0600 
    233 H233       -2.0581  -19.9472  -57.9890 H         1 UNK         0.0600 
    234 H234       -2.4628  -21.6435  -57.7943 H         1 UNK         0.0600 
    235 H235       -1.6589  -20.2338  -53.4112 H         1 UNK         0.3000 
    236 H236        0.3911  -18.2552  -53.7062 H         1 UNK         0.0600 
    237 H237       -1.1352  -19.0630  -51.1796 H         1 UNK         0.0600 
    238 H238        0.2555  -19.9350  -51.8251 H         1 UNK         0.0600 
    239 H239        0.4379  -18.2831  -51.2541 H         1 UNK         0.0600 
    240 H240       -3.0635  -18.0558  -53.1718 H         1 UNK         0.3000 
    241 H241       -3.0205  -15.1049  -52.8662 H         1 UNK         0.0600 
    242 H242       -2.5846  -16.9281  -55.5796 H         1 UNK         0.3800 
    243 H243       -3.5873  -15.9988  -56.6596 H         1 UNK         0.3800 
    244 H244       -5.3072  -17.1130  -52.5679 H         1 UNK         0.0800 
    245 H245       -5.5222  -15.3775  -52.5052 H         1 UNK         0.0800 
    246 H246       -6.7342  -15.7698  -50.2759 H         1 UNK         0.0800 
    247 H247       -6.2909  -17.4140  -49.8624 H         1 UNK         0.0800 
@<TRIPOS>BOND
     1    1    2 1    
     2    1  127 1    
     3    1  128 1    
     4    1  129 1    
     5    2    3 2    
     6    2    4 am   BACKBONE|DICT|INTERRES
     7    4    5 1    
     8    4  130 1    
     9    5    6 1    
    10    5   65 1    
    11    5  131 1    
    12    6    7 1    
    13    6  132 1    
    14    6  133 1    
    15    7    8 1    
    16    8    9 1    
    17    8  134 1    
    18    8  135 1    
    19    9   10 ar   
    20    9   14 ar   
    21   10   11 ar   
    22   10  136 1    
    23   11   12 ar   
    24   11  126 1    
    25   12   13 ar   
    26   12  137 1    
    27   13   14 ar   
    28   13   15 1    
    29   14  138 1    
    30   15   16 1    
    31   15  139 1    
    32   15  140 1    
    33   16   17 1    
    34   17   18 1    
    35   17  141 1    
    36   17  142 1    
    37   18   19 1    
    38   18   67 1    
    39   18  143 1    
    40   19   20 am   BACKBONE|DICT|INTERRES
    41   19  144 1    
    42   20   21 2    
    43   20   22 1    
    44   22   23 1    
    45   22   24 1    
    46   22  145 1    
    47   23  146 1    
    48   23  147 1    
    49   23  148 1    
    50   24   25 am   BACKBONE|DICT|INTERRES
    51   24  149 1    
    52   25   26 2    
    53   25   27 1    
    54   27   28 1    
    55   27   29 1    
    56   27  150 1    
    57   28  151 1    
    58   28  152 1    
    59   28  153 1    
    60   29   30 am   BACKBONE|DICT|INTERRES
    61   29  154 1    
    62   30   31 2    
    63   30   32 1    
    64   32   33 1    
    65   32   34 1    
    66   32  155 1    
    67   33  156 1    
    68   33  157 1    
    69   33  158 1    
    70   34   35 am   BACKBONE|DICT|INTERRES
    71   34  159 1    
    72   35   36 2    
    73   35   37 1    
    74   37   38 1    
    75   37   39 1    
    76   37  160 1    
    77   38  161 1    
    78   38  162 1    
    79   38  163 1    
    80   39   40 am   BACKBONE|DICT|INTERRES
    81   39  164 1    
    82   40   41 2    
    83   40   42 1    
    84   42   43 1    
    85   42   44 1    
    86   42  165 1    
    87   43  166 1    
    88   43  167 1    
    89   43  168 1    
    90   44   45 am   BACKBONE|DICT|INTERRES
    91   44  169 1    
    92   45   46 2    
    93   45   47 1    
    94   47   48 1    
    95   47   49 1    
    96   47  170 1    
    97   48  171 1    
    98   48  172 1    
    99   48  173 1    
   100   49   50 am   BACKBONE|DICT|INTERRES
   101   49  174 1    
   102   50   51 2    
   103   50   52 1    
   104   52   53 1    
   105   52   54 1    
   106   52  175 1    
   107   53  176 1    
   108   53  177 1    
   109   53  178 1    
   110   54   55 am   BACKBONE|DICT|INTERRES
   111   54  179 1    
   112   55   56 2    
   113   55   57 1    
   114   57   58 1    
   115   57   59 1    
   116   57  180 1    
   117   58  181 1    
   118   58  182 1    
   119   58  183 1    
   120   59   60 am   BACKBONE|DICT|INTERRES
   121   59  184 1    
   122   60   61 2    
   123   60   62 1    
   124   62   63 1    
   125   62   64 1    
   126   62  185 1    
   127   63  186 1    
   128   63  187 1    
   129   63  188 1    
   130   64   65 am   BACKBONE|DICT|INTERRES
   131   64  189 1    
   132   65   66 2    
   133   67   68 2    
   134   67   69 am   BACKBONE|DICT|INTERRES
   135   69   70 1    
   136   69  190 1    
   137   70   71 1    
   138   70   72 1    
   139   70  191 1    
   140   71  192 1    
   141   71  193 1    
   142   71  194 1    
   143   72   73 2    
   144   72   74 am   BACKBONE|DICT|INTERRES
   145   74   75 1    
   146   74  195 1    
   147   75   76 1    
   148   75   77 1    
   149   75  196 1    
   150   76  197 1    
   151   76  198 1    
   152   76  199 1    
   153   77   78 2    
   154   77   79 am   BACKBONE|DICT|INTERRES
   155   79   80 1    
   156   79  200 1    
   157   80   81 1    
   158   80   82 1    
   159   80  201 1    
   160   81  202 1    
   161   81  203 1    
   162   81  204 1    
   163   82   83 2    
   164   82   84 am   BACKBONE|DICT|INTERRES
   165   84   85 1    
   166   84  205 1    
   167   85   86 1    
   168   85   87 1    
   169   85  206 1    
   170   86  207 1    
   171   86  208 1    
   172   86  209 1    
   173   87   88 2    
   174   87   89 am   BACKBONE|DICT|INTERRES
   175   89   90 1    
   176   89  210 1    
   177   90   91 1    
   178   90   92 1    
   179   90  211 1    
   180   91  212 1    
   181   91  213 1    
   182   91  214 1    
   183   92   93 2    
   184   92   94 am   BACKBONE|DICT|INTERRES
   185   94   95 1    
   186   94  215 1    
   187   95   96 1    
   188   95   97 1    
   189   95  216 1    
   190   96  217 1    
   191   96  218 1    
   192   96  219 1    
   193   97   98 2    
   194   97   99 am   BACKBONE|DICT|INTERRES
   195   99  100 1    
   196   99  220 1    
   197  100  101 1    
   198  100  102 1    
   199  100  221 1    
   200  101  222 1    
   201  101  223 1    
   202  101  224 1    
   203  102  103 2    
   204  102  104 am   BACKBONE|DICT|INTERRES
   205  104  105 1    
   206  104  225 1    
   207  105  106 1    
   208  105  107 1    
   209  105  226 1    
   210  106  227 1    
   211  106  228 1    
   212  106  229 1    
   213  107  108 2    
   214  107  109 am   BACKBONE|DICT|INTERRES
   215  109  110 1    
   216  109  230 1    
   217  110  111 1    
   218  110  112 1    
   219  110  231 1    
   220  111  232 1    
   221  111  233 1    
   222  111  234 1    
   223  112  113 2    
   224  112  114 am   BACKBONE|DICT|INTERRES
   225  114  115 1    
   226  114  235 1    
   227  115  116 1    
   228  115  117 1    
   229  115  236 1    
   230  116  237 1    
   231  116  238 1    
   232  116  239 1    
   233  117  118 2    
   234  117  119 am   BACKBONE|DICT|INTERRES
   235  119  120 1    
   236  119  240 1    
   237  120  121 1    
   238  120  124 1    
   239  120  241 1    
   240  121  122 am   BACKBONE|DICT|INTERRES
   241  121  123 2    
   242  122  242 1    
   243  122  243 1    
   244  124  125 1    
   245  124  244 1    
   246  124  245 1    
   247  125  126 1    
   248  126  246 1    
   249  126  247 1    
@<TRIPOS>SUBSTRUCTURE
     1 UNK         1 GROUP             0       ****    0 ROOT    
