@<TRIPOS>MOLECULE
3R540
247   249    1
SMALL
USER_CHARGES


@<TRIPOS>ATOM
      1 CA         -3.3297  -18.7099  -42.9527 C.3       0 UNK        -0.1800 
      2 C          -3.7801  -17.5796  -43.8651 C.2       0 UNK         0.5000 
      3 O          -4.8944  -17.0778  -43.7126 O.2       0 UNK        -0.5000 
      4 N          -2.9232  -17.1859  -44.8151 N.am      1 UNK        -0.5000 
      5 CA         -3.1408  -16.0604  -45.7320 C.3       1 UNK         0.1400 
      6 C6         -2.0790  -16.0154  -46.8579 C.3       23 UNK        -0.0398 
      7 S7         -1.9782  -17.5630  -47.8132 S.3       23 UNK        -0.2404 
      8 C8         -1.0257  -17.0159  -49.2724 C.3       23 UNK        -0.0205 
      9 C9         -0.3365  -18.1263  -50.0703 C.ar      23 UNK        -0.0193 
     10 C10         0.5031  -17.7559  -51.1255 C.ar      23 UNK        -0.1150 
     11 C11         1.1874  -18.7184  -51.8737 C.ar      23 UNK        -0.0193 
     12 C12         1.0263  -20.0710  -51.5628 C.ar      23 UNK        -0.1150 
     13 C13         0.1771  -20.4628  -50.5268 C.ar      23 UNK        -0.0193 
     14 C14        -0.4991  -19.4896  -49.7868 C.ar      23 UNK        -0.1150 
     15 C15        -0.0354  -21.9395  -50.2290 C.3       23 UNK        -0.0205 
     16 S16         1.2894  -22.6449  -49.1971 S.3       23 UNK        -0.2404 
     17 C17         1.0082  -21.8398  -47.5823 C.3       23 UNK        -0.0398 
     18 CA          0.2515  -22.7279  -46.5642 C.3       11 UNK         0.1400 
     19 N           0.5203  -22.3056  -45.1833 N.am      11 UNK        -0.5000 
     20 C           0.0418  -22.8792  -44.0688 C.2       10 UNK         0.5000 
     21 O          -0.7923  -23.7843  -44.0747 O.2       10 UNK        -0.5000 
     22 CA          0.5753  -22.3579  -42.7234 C.3       10 UNK         0.1400 
     23 CB          1.8740  -23.0892  -42.3503 C.3       10 UNK        -0.1800 
     24 N           0.8350  -20.9174  -42.7601 N.am      10 UNK        -0.5000 
     25 C           0.1225  -19.9918  -42.1020 C.2       9 UNK         0.5000 
     26 O          -0.8212  -20.2623  -41.3593 O.2       9 UNK        -0.5000 
     27 CA          0.5183  -18.5103  -42.2904 C.3       9 UNK         0.1400 
     28 CB          1.2885  -17.9996  -41.0639 C.3       9 UNK        -0.1800 
     29 N           1.3187  -18.2657  -43.4907 N.am      9 UNK        -0.5000 
     30 C           0.8493  -18.3345  -44.7442 C.2       8 UNK         0.5000 
     31 O          -0.3368  -18.5268  -45.0111 O.2       8 UNK        -0.5000 
     32 CA          1.8789  -18.2264  -45.8887 C.3       8 UNK         0.1400 
     33 CB          1.9136  -16.8068  -46.4700 C.3       8 UNK        -0.1800 
     34 N           3.2402  -18.6065  -45.5019 N.am      8 UNK        -0.5000 
     35 C           3.6198  -19.8161  -45.0660 C.2       7 UNK         0.5000 
     36 O           2.8410  -20.7559  -44.9138 O.2       7 UNK        -0.5000 
     37 CA          5.1029  -19.9941  -44.6935 C.3       7 UNK         0.1400 
     38 CB          5.8919  -20.5442  -45.8904 C.3       7 UNK        -0.1800 
     39 N           5.7274  -18.7530  -44.2294 N.am      7 UNK        -0.5000 
     40 C           5.3940  -18.1131  -43.1002 C.2       6 UNK         0.5000 
     41 O           4.5610  -18.5473  -42.3012 O.2       6 UNK        -0.5000 
     42 CA          6.1042  -16.7710  -42.8152 C.3       6 UNK         0.1400 
     43 CB          6.6273  -16.0643  -44.0868 C.3       6 UNK        -0.1800 
     44 N           5.2734  -15.8505  -42.0312 N.am      6 UNK        -0.5000 
     45 C           4.0703  -15.3622  -42.3647 C.2       5 UNK         0.5000 
     46 O           3.4725  -15.6283  -43.4117 O.2       5 UNK        -0.5000 
     47 CA          3.4455  -14.3928  -41.3527 C.3       5 UNK         0.1400 
     48 CB          4.1762  -13.0363  -41.3627 C.3       5 UNK        -0.1800 
     49 N           2.0375  -14.1908  -41.6750 N.am      5 UNK        -0.5000 
     50 C           1.0985  -13.7807  -40.8157 C.2       4 UNK         0.5000 
     51 O           1.3208  -13.5746  -39.6207 O.2       4 UNK        -0.5000 
     52 CA         -0.3218  -13.5650  -41.3857 C.3       4 UNK         0.1400 
     53 CB         -1.1839  -12.6401  -40.5022 C.3       4 UNK        -0.1800 
     54 N          -0.3559  -13.0965  -42.7765 N.am      4 UNK        -0.5000 
     55 C           0.2314  -12.0026  -43.2921 C.2       3 UNK         0.5000 
     56 O           0.9670  -11.2454  -42.6583 O.2       3 UNK        -0.5000 
     57 CA         -0.0689  -11.6903  -44.7734 C.3       3 UNK         0.1400 
     58 CB          0.9615  -12.3816  -45.6808 C.3       3 UNK        -0.1800 
     59 N          -1.4142  -12.0951  -45.1874 N.am      3 UNK        -0.5000 
     60 C          -2.5580  -11.6038  -44.6879 C.2       2 UNK         0.5000 
     61 O          -2.6074  -10.6429  -43.9191 O.2       2 UNK        -0.5000 
     62 CA         -3.8700  -12.3141  -45.0893 C.3       2 UNK         0.1400 
     63 CB         -4.6382  -11.4736  -46.1213 C.3       2 UNK        -0.1800 
     64 N          -3.7192  -13.6794  -45.6132 N.am      2 UNK        -0.5000 
     65 C          -3.1490  -14.7128  -44.9762 C.2       1 UNK         0.5000 
     66 O          -2.5948  -14.6140  -43.8778 O.2       1 UNK        -0.5000 
     67 C          -1.2500  -22.8254  -46.9087 C.2       11 UNK         0.5000 
     68 O          -1.6450  -23.7506  -47.6158 O.2       11 UNK        -0.5000 
     69 N          -2.0723  -21.9189  -46.3630 N.am      12 UNK        -0.5000 
     70 CA         -3.5254  -21.9022  -46.5613 C.3       12 UNK         0.1400 
     71 CB         -4.0874  -20.5759  -46.0353 C.3       12 UNK        -0.1800 
     72 C          -4.2781  -23.0969  -45.9359 C.2       12 UNK         0.5000 
     73 O          -5.4340  -23.3255  -46.2935 O.2       12 UNK        -0.5000 
     74 N          -3.6334  -23.8372  -45.0227 N.am      13 UNK        -0.5000 
     75 CA         -4.1546  -25.0920  -44.4783 C.3       13 UNK         0.1400 
     76 CB         -3.6877  -25.2410  -43.0217 C.3       13 UNK        -0.1800 
     77 C          -3.7134  -26.3105  -45.3137 C.2       13 UNK         0.5000 
     78 O          -4.3467  -27.3626  -45.2178 O.2       13 UNK        -0.5000 
     79 N          -2.6376  -26.1629  -46.0991 N.am      14 UNK        -0.5000 
     80 CA         -2.0404  -27.2249  -46.9078 C.3       14 UNK         0.1400 
     81 CB         -0.5115  -27.0679  -46.8768 C.3       14 UNK        -0.1800 
     82 C          -2.5460  -27.2124  -48.3607 C.2       14 UNK         0.5000 
     83 O          -2.6764  -28.2801  -48.9613 O.2       14 UNK        -0.5000 
     84 N          -2.8061  -26.0186  -48.9038 N.am      15 UNK        -0.5000 
     85 CA         -3.2083  -25.7816  -50.2865 C.3       15 UNK         0.1400 
     86 CB         -1.9595  -25.3943  -51.0991 C.3       15 UNK        -0.1800 
     87 C          -4.2766  -24.6789  -50.3538 C.2       15 UNK         0.5000 
     88 O          -4.5415  -24.0043  -49.3579 O.2       15 UNK        -0.5000 
     89 N          -4.8588  -24.5026  -51.5475 N.am      16 UNK        -0.5000 
     90 CA         -5.9171  -23.5298  -51.8476 C.3       16 UNK         0.1400 
     91 CB         -6.5774  -23.9236  -53.1774 C.3       16 UNK        -0.1800 
     92 C          -5.4619  -22.0522  -51.8617 C.2       16 UNK         0.5000 
     93 O          -6.3122  -21.1646  -51.9447 O.2       16 UNK        -0.5000 
     94 N          -4.1468  -21.8160  -51.7534 N.am      17 UNK        -0.5000 
     95 CA         -3.4926  -20.5191  -51.5705 C.3       17 UNK         0.1400 
     96 CB         -3.9253  -19.8804  -50.2311 C.3       17 UNK        -0.1800 
     97 C          -3.6415  -19.5741  -52.7779 C.2       17 UNK         0.5000 
     98 O          -3.7777  -20.0396  -53.9134 O.2       17 UNK        -0.5000 
     99 N          -3.5619  -18.2609  -52.5222 N.am      18 UNK        -0.5000 
    100 CA        -3.5814  -17.1768  -53.5080 C.3       18 UNK         0.1400 
    101 CB        -3.3876  -15.8384  -52.7812 C.3       18 UNK        -0.1800 
    102 C         -4.8457  -17.1405  -54.3872 C.2       18 UNK         0.5000 
    103 O         -4.7665  -16.7011  -55.5341 O.2       18 UNK        -0.5000 
    104 N         -5.9662  -17.6620  -53.8679 N.am      19 UNK        -0.5000 
    105 CA        -7.2272  -17.8455  -54.5922 C.3       19 UNK         0.1400 
    106 CB        -8.3052  -18.3132  -53.6029 C.3       19 UNK        -0.1800 
    107 C         -7.1221  -18.8276  -55.7784 C.2       19 UNK         0.5000 
    108 O         -7.9032  -18.7163  -56.7238 O.2       19 UNK        -0.5000 
    109 N         -6.1490  -19.7458  -55.7189 N.am      20 UNK        -0.5000 
    110 CA        -5.8047  -20.6956  -56.7760 C.3       20 UNK         0.1400 
    111 CB        -5.7989  -22.1077  -56.1702 C.3       20 UNK        -0.1800 
    112 C         -4.4478  -20.3542  -57.4263 C.2       20 UNK         0.5000 
    113 O         -3.8764  -21.2093  -58.1037 O.2       20 UNK        -0.5000 
    114 N         -3.9534  -19.1239  -57.2084 N.am      21 UNK        -0.5000 
    115 CA        -2.6568  -18.5959  -57.6458 C.3       21 UNK         0.1400 
    116 CB        -2.5958  -18.4775  -59.1835 C.3       21 UNK        -0.1800 
    117 C         -1.4767  -19.3851  -57.0416 C.2       21 UNK         0.5000 
    118 O         -0.6085  -19.8650  -57.7728 O.2       21 UNK        -0.5000 
    119 N         -1.4918  -19.5034  -55.7074 N.am      22 UNK        -0.5000 
    120 CA        -0.5496  -20.2741  -54.8777 C.3       22 UNK         0.1400 
    121 C         -0.8007  -21.8051  -54.9783 C.2       22 UNK         0.5000 
    122 N         -2.0522  -22.2387  -54.8854 N.am      22 UNK        -0.7600 
    123 O          0.1215  -22.6022  -55.1272 O.2       22 UNK        -0.5000 
    124 C124        0.9409  -19.8615  -55.0460 C.3       23 UNK        -0.0398 
    125 S125        1.2331  -18.1175  -54.5878 S.3       23 UNK        -0.2404 
    126 C126        2.1144  -18.2914  -53.0026 C.3       23 UNK        -0.0205 
    127 H127       -2.9837  -18.3086  -42.0003 H         1 UNK         0.0600 
    128 H128       -2.5182  -19.2822  -43.4014 H         1 UNK         0.0600 
    129 H129       -4.1553  -19.3934  -42.7548 H         1 UNK         0.0600 
    130 H130       -2.0230  -17.6515  -44.9033 H         1 UNK         0.3000 
    131 H131       -4.1233  -16.1945  -46.1894 H         1 UNK         0.0600 
    132 H132       -1.0964  -15.8049  -46.4362 H         1 UNK         0.0800 
    133 H133       -2.2958  -15.2051  -47.5563 H         1 UNK         0.0800 
    134 H134       -1.6949  -16.4658  -49.9346 H         1 UNK         0.0800 
    135 H135       -0.2625  -16.3082  -48.9466 H         1 UNK         0.0800 
    136 H136        0.6337  -16.7089  -51.3616 H         1 UNK         0.1150 
    137 H137        1.5571  -20.8237  -52.1280 H         1 UNK         0.1150 
    138 H138       -1.1527  -19.8116  -48.9902 H         1 UNK         0.1150 
    139 H139       -1.0030  -22.0999  -49.7521 H         1 UNK         0.0800 
    140 H140       -0.0710  -22.4912  -51.1696 H         1 UNK         0.0800 
    141 H141        0.5220  -20.8727  -47.6995 H         1 UNK         0.0800 
    142 H142        2.0045  -21.6160  -47.2022 H         1 UNK         0.0800 
    143 H143        0.6547  -23.7399  -46.6394 H         1 UNK         0.0600 
    144 H144        1.2618  -21.6184  -45.0760 H         1 UNK         0.3000 
    145 H145       -0.1725  -22.5956  -41.9642 H         1 UNK         0.0600 
    146 H146        2.2333  -22.7749  -41.3703 H         1 UNK         0.0600 
    147 H147        1.7172  -24.1679  -42.3085 H         1 UNK         0.0600 
    148 H148        2.6680  -22.8996  -43.0738 H         1 UNK         0.0600 
    149 H149        1.5931  -20.6147  -43.3608 H         1 UNK         0.3000 
    150 H150       -0.4037  -17.9315  -42.3751 H         1 UNK         0.0600 
    151 H151        0.6948  -18.1093  -40.1555 H         1 UNK         0.0600 
    152 H152        1.5349  -16.9436  -41.1637 H         1 UNK         0.0600 
    153 H153        2.2187  -18.5489  -40.9160 H         1 UNK         0.0600 
    154 H154        2.3061  -18.0932  -43.3522 H         1 UNK         0.3000 
    155 H155        1.5588  -18.9069  -46.6795 H         1 UNK         0.0600 
    156 H156        2.6426  -16.7263  -47.2764 H         1 UNK         0.0600 
    157 H157        2.1643  -16.0633  -45.7131 H         1 UNK         0.0600 
    158 H158        0.9478  -16.5382  -46.8901 H         1 UNK         0.0600 
    159 H159        3.9387  -17.8798  -45.5559 H         1 UNK         0.3000 
    160 H160        5.1532  -20.7251  -43.8837 H         1 UNK         0.0600 
    161 H161        5.8934  -19.8460  -46.7284 H         1 UNK         0.0600 
    162 H162        5.4599  -21.4813  -46.2448 H         1 UNK         0.0600 
    163 H163        6.9282  -20.7478  -45.6199 H         1 UNK         0.0600 
    164 H164        6.4276  -18.3445  -44.8314 H         1 UNK         0.3000 
    165 H165        6.9652  -17.0117  -42.1902 H         1 UNK         0.0600 
    166 H166        7.0692  -15.0983  -43.8419 H         1 UNK         0.0600 
    167 H167        7.4047  -16.6491  -44.5793 H         1 UNK         0.0600 
    168 H168        5.8315  -15.8878  -44.8115 H         1 UNK         0.0600 
    169 H169        5.6570  -15.5916  -41.1333 H         1 UNK         0.3000 
    170 H170        3.5261  -14.8464  -40.3625 H         1 UNK         0.0600 
    171 H171        5.2349  -13.1522  -41.1287 H         1 UNK         0.0600 
    172 H172        4.1048  -12.5529  -42.3379 H         1 UNK         0.0600 
    173 H173        3.7569  -12.3542  -40.6229 H         1 UNK         0.0600 
    174 H174        1.7928  -14.3941  -42.6356 H         1 UNK         0.3000 
    175 H175       -0.7941  -14.5484  -41.3893 H         1 UNK         0.0600 
    176 H176       -1.2894  -13.0425  -39.4941 H         1 UNK         0.0600 
    177 H177       -0.7467  -11.6448  -40.4158 H         1 UNK         0.0600 
    178 H178       -2.1880  -12.5300  -40.9122 H         1 UNK         0.0600 
    179 H179       -0.9831  -13.6246  -43.3765 H         1 UNK         0.3000 
    180 H180        0.0165  -10.6104  -44.9113 H         1 UNK         0.0600 
    181 H181        0.9045  -13.4682  -45.6024 H         1 UNK         0.0600 
    182 H182        1.9772  -12.0873  -45.4125 H         1 UNK         0.0600 
    183 H183        0.8119  -12.1114  -46.7262 H         1 UNK         0.0600 
    184 H184       -1.4754  -12.8700  -45.8291 H         1 UNK         0.3000 
    185 H185       -4.4788  -12.3825  -44.1856 H         1 UNK         0.0600 
    186 H186       -4.8034  -10.4587  -45.7567 H         1 UNK         0.0600 
    187 H187       -4.0936  -11.3989  -47.0634 H         1 UNK         0.0600 
    188 H188       -5.6180  -11.9029  -46.3313 H         1 UNK         0.0600 
    189 H189       -4.1370  -13.8425  -46.5181 H         1 UNK         0.3000 
    190 H190       -1.6816  -21.1993  -45.7714 H         1 UNK         0.3000 
    191 H191       -3.7100  -21.9497  -47.6349 H         1 UNK         0.0600 
    192 H192       -3.5746  -19.7211  -46.4750 H         1 UNK         0.0600 
    193 H193       -5.1466  -20.4771  -46.2754 H         1 UNK         0.0600 
    194 H194       -3.9908  -20.5133  -44.9530 H         1 UNK         0.0600 
    195 H195       -2.6833  -23.5953  -44.7600 H         1 UNK         0.3000 
    196 H196       -5.2464  -25.0707  -44.4748 H         1 UNK         0.0600 
    197 H197       -4.1280  -26.1265  -42.5617 H         1 UNK         0.0600 
    198 H198       -3.9848  -24.3811  -42.4211 H         1 UNK         0.0600 
    199 H199       -2.6046  -25.3427  -42.9508 H         1 UNK         0.0600 
    200 H200       -2.2096  -25.2495  -46.1725 H         1 UNK         0.3000 
    201 H201       -2.2842  -28.1986  -46.4773 H         1 UNK         0.0600 
    202 H202       -0.1316  -27.1068  -45.8556 H         1 UNK         0.0600 
    203 H203       -0.1929  -26.1221  -47.3167 H         1 UNK         0.0600 
    204 H204       -0.0259  -27.8688  -47.4358 H         1 UNK         0.0600 
    205 H205       -2.6700  -25.1769  -48.3488 H         1 UNK         0.3000 
    206 H206       -3.6485  -26.6867  -50.7100 H         1 UNK         0.0600 
    207 H207       -1.2169  -26.1922  -51.0799 H         1 UNK         0.0600 
    208 H208       -2.2008  -25.2051  -52.1455 H         1 UNK         0.0600 
    209 H209       -1.4892  -24.4960  -50.6988 H         1 UNK         0.0600 
    210 H210       -4.5780  -25.0964  -52.3146 H         1 UNK         0.3000 
    211 H211       -6.6740  -23.6082  -51.0644 H         1 UNK         0.0600 
    212 H212       -5.8484  -23.9757  -53.9854 H         1 UNK         0.0600 
    213 H213       -7.3472  -23.2069  -53.4664 H         1 UNK         0.0600 
    214 H214       -7.0589  -24.8986  -53.1015 H         1 UNK         0.0600 
    215 H215       -3.5387  -22.6203  -51.7359 H         1 UNK         0.3000 
    216 H216       -2.4283  -20.7375  -51.5087 H         1 UNK         0.0600 
    217 H217       -3.3408  -18.9928  -49.9961 H         1 UNK         0.0600 
    218 H218       -3.7801  -20.5758  -49.4075 H         1 UNK         0.0600 
    219 H219       -4.9753  -19.5869  -50.2359 H         1 UNK         0.0600 
    220 H220       -3.4500  -17.9761  -51.5603 H         1 UNK         0.3000 
    221 H221       -2.7288  -17.3231  -54.1733 H         1 UNK         0.0600 
    222 H222       -4.1787  -15.6570  -52.0527 H         1 UNK         0.0600 
    223 H223       -2.4323  -15.8103  -52.2569 H         1 UNK         0.0600 
    224 H224       -3.3921  -15.0057  -53.4859 H         1 UNK         0.0600 
    225 H225       -5.9328  -18.0231  -52.9255 H         1 UNK         0.3000 
    226 H226       -7.5265  -16.8757  -54.9946 H         1 UNK         0.0600 
    227 H227       -8.4441  -17.5906  -52.7985 H         1 UNK         0.0600 
    228 H228       -9.2681  -18.4327  -54.1011 H         1 UNK         0.0600 
    229 H229       -8.0472  -19.2727  -53.1526 H         1 UNK         0.0600 
    230 H230       -5.5386  -19.7601  -54.9082 H         1 UNK         0.3000 
    231 H231       -6.5506  -20.6718  -57.5726 H         1 UNK         0.0600 
    232 H232       -6.7712  -22.3498  -55.7420 H         1 UNK         0.0600 
    233 H233       -5.0497  -22.1986  -55.3835 H         1 UNK         0.0600 
    234 H234       -5.5821  -22.8651  -56.9242 H         1 UNK         0.0600 
    235 H235       -4.5100  -18.4838  -56.6547 H         1 UNK         0.3000 
    236 H236       -2.5861  -17.5851  -57.2414 H         1 UNK         0.0600 
    237 H237       -1.6779  -17.9795  -59.4979 H         1 UNK         0.0600 
    238 H238       -2.6199  -19.4522  -59.6712 H         1 UNK         0.0600 
    239 H239       -3.4305  -17.8903  -59.5662 H         1 UNK         0.0600 
    240 H240       -2.3095  -19.1712  -55.2160 H         1 UNK         0.3000 
    241 H241       -0.8117  -20.0339  -53.8473 H         1 UNK         0.0600 
    242 H242       -2.2415  -23.2241  -54.9663 H         1 UNK         0.3800 
    243 H243       -2.8081  -21.5817  -54.7312 H         1 UNK         0.3800 
    244 H244        1.5849  -20.4980  -54.4392 H         1 UNK         0.0800 
    245 H245        1.2779  -20.0139  -56.0710 H         1 UNK         0.0800 
    246 H246        2.9383  -18.9985  -53.1106 H         1 UNK         0.0800 
    247 H247        2.5739  -17.3337  -52.7537 H         1 UNK         0.0800 
@<TRIPOS>BOND
     1    1    2 1    
     2    1  127 1    
     3    1  128 1    
     4    1  129 1    
     5    2    3 2    
     6    2    4 am   BACKBONE|DICT|INTERRES
     7    4    5 1    
     8    4  130 1    
     9    5    6 1    
    10    5   65 1    
    11    5  131 1    
    12    6    7 1    
    13    6  132 1    
    14    6  133 1    
    15    7    8 1    
    16    8    9 1    
    17    8  134 1    
    18    8  135 1    
    19    9   10 ar   
    20    9   14 ar   
    21   10   11 ar   
    22   10  136 1    
    23   11   12 ar   
    24   11  126 1    
    25   12   13 ar   
    26   12  137 1    
    27   13   14 ar   
    28   13   15 1    
    29   14  138 1    
    30   15   16 1    
    31   15  139 1    
    32   15  140 1    
    33   16   17 1    
    34   17   18 1    
    35   17  141 1    
    36   17  142 1    
    37   18   19 1    
    38   18   67 1    
    39   18  143 1    
    40   19   20 am   BACKBONE|DICT|INTERRES
    41   19  144 1    
    42   20   21 2    
    43   20   22 1    
    44   22   23 1    
    45   22   24 1    
    46   22  145 1    
    47   23  146 1    
    48   23  147 1    
    49   23  148 1    
    50   24   25 am   BACKBONE|DICT|INTERRES
    51   24  149 1    
    52   25   26 2    
    53   25   27 1    
    54   27   28 1    
    55   27   29 1    
    56   27  150 1    
    57   28  151 1    
    58   28  152 1    
    59   28  153 1    
    60   29   30 am   BACKBONE|DICT|INTERRES
    61   29  154 1    
    62   30   31 2    
    63   30   32 1    
    64   32   33 1    
    65   32   34 1    
    66   32  155 1    
    67   33  156 1    
    68   33  157 1    
    69   33  158 1    
    70   34   35 am   BACKBONE|DICT|INTERRES
    71   34  159 1    
    72   35   36 2    
    73   35   37 1    
    74   37   38 1    
    75   37   39 1    
    76   37  160 1    
    77   38  161 1    
    78   38  162 1    
    79   38  163 1    
    80   39   40 am   BACKBONE|DICT|INTERRES
    81   39  164 1    
    82   40   41 2    
    83   40   42 1    
    84   42   43 1    
    85   42   44 1    
    86   42  165 1    
    87   43  166 1    
    88   43  167 1    
    89   43  168 1    
    90   44   45 am   BACKBONE|DICT|INTERRES
    91   44  169 1    
    92   45   46 2    
    93   45   47 1    
    94   47   48 1    
    95   47   49 1    
    96   47  170 1    
    97   48  171 1    
    98   48  172 1    
    99   48  173 1    
   100   49   50 am   BACKBONE|DICT|INTERRES
   101   49  174 1    
   102   50   51 2    
   103   50   52 1    
   104   52   53 1    
   105   52   54 1    
   106   52  175 1    
   107   53  176 1    
   108   53  177 1    
   109   53  178 1    
   110   54   55 am   BACKBONE|DICT|INTERRES
   111   54  179 1    
   112   55   56 2    
   113   55   57 1    
   114   57   58 1    
   115   57   59 1    
   116   57  180 1    
   117   58  181 1    
   118   58  182 1    
   119   58  183 1    
   120   59   60 am   BACKBONE|DICT|INTERRES
   121   59  184 1    
   122   60   61 2    
   123   60   62 1    
   124   62   63 1    
   125   62   64 1    
   126   62  185 1    
   127   63  186 1    
   128   63  187 1    
   129   63  188 1    
   130   64   65 am   BACKBONE|DICT|INTERRES
   131   64  189 1    
   132   65   66 2    
   133   67   68 2    
   134   67   69 am   BACKBONE|DICT|INTERRES
   135   69   70 1    
   136   69  190 1    
   137   70   71 1    
   138   70   72 1    
   139   70  191 1    
   140   71  192 1    
   141   71  193 1    
   142   71  194 1    
   143   72   73 2    
   144   72   74 am   BACKBONE|DICT|INTERRES
   145   74   75 1    
   146   74  195 1    
   147   75   76 1    
   148   75   77 1    
   149   75  196 1    
   150   76  197 1    
   151   76  198 1    
   152   76  199 1    
   153   77   78 2    
   154   77   79 am   BACKBONE|DICT|INTERRES
   155   79   80 1    
   156   79  200 1    
   157   80   81 1    
   158   80   82 1    
   159   80  201 1    
   160   81  202 1    
   161   81  203 1    
   162   81  204 1    
   163   82   83 2    
   164   82   84 am   BACKBONE|DICT|INTERRES
   165   84   85 1    
   166   84  205 1    
   167   85   86 1    
   168   85   87 1    
   169   85  206 1    
   170   86  207 1    
   171   86  208 1    
   172   86  209 1    
   173   87   88 2    
   174   87   89 am   BACKBONE|DICT|INTERRES
   175   89   90 1    
   176   89  210 1    
   177   90   91 1    
   178   90   92 1    
   179   90  211 1    
   180   91  212 1    
   181   91  213 1    
   182   91  214 1    
   183   92   93 2    
   184   92   94 am   BACKBONE|DICT|INTERRES
   185   94   95 1    
   186   94  215 1    
   187   95   96 1    
   188   95   97 1    
   189   95  216 1    
   190   96  217 1    
   191   96  218 1    
   192   96  219 1    
   193   97   98 2    
   194   97   99 am   BACKBONE|DICT|INTERRES
   195   99  100 1    
   196   99  220 1    
   197  100  101 1    
   198  100  102 1    
   199  100  221 1    
   200  101  222 1    
   201  101  223 1    
   202  101  224 1    
   203  102  103 2    
   204  102  104 am   BACKBONE|DICT|INTERRES
   205  104  105 1    
   206  104  225 1    
   207  105  106 1    
   208  105  107 1    
   209  105  226 1    
   210  106  227 1    
   211  106  228 1    
   212  106  229 1    
   213  107  108 2    
   214  107  109 am   BACKBONE|DICT|INTERRES
   215  109  110 1    
   216  109  230 1    
   217  110  111 1    
   218  110  112 1    
   219  110  231 1    
   220  111  232 1    
   221  111  233 1    
   222  111  234 1    
   223  112  113 2    
   224  112  114 am   BACKBONE|DICT|INTERRES
   225  114  115 1    
   226  114  235 1    
   227  115  116 1    
   228  115  117 1    
   229  115  236 1    
   230  116  237 1    
   231  116  238 1    
   232  116  239 1    
   233  117  118 2    
   234  117  119 am   BACKBONE|DICT|INTERRES
   235  119  120 1    
   236  119  240 1    
   237  120  121 1    
   238  120  124 1    
   239  120  241 1    
   240  121  122 am   BACKBONE|DICT|INTERRES
   241  121  123 2    
   242  122  242 1    
   243  122  243 1    
   244  124  125 1    
   245  124  244 1    
   246  124  245 1    
   247  125  126 1    
   248  126  246 1    
   249  126  247 1    
@<TRIPOS>SUBSTRUCTURE
     1 UNK         1 GROUP             0       ****    0 ROOT    
