@<TRIPOS>MOLECULE
3R540
247   249    1
SMALL
USER_CHARGES


@<TRIPOS>ATOM
      1 CA          1.7895  -14.1343  -51.0320 C.3       0 UNK        -0.1800 
      2 C           0.7741  -14.3347  -49.9156 C.2       0 UNK         0.5000 
      3 O           0.4049  -15.4714  -49.6259 O.2       0 UNK        -0.5000 
      4 N           0.3274  -13.2332  -49.2979 N.am      1 UNK        -0.5000 
      5 CA         -0.6051  -13.2141  -48.1659 C.3       1 UNK         0.1400 
      6 C6         -1.2608  -11.8076  -48.0377 C.3       23 UNK        -0.0398 
      7 S7         -2.6519  -11.6670  -46.8525 S.3       23 UNK        -0.2404 
      8 C8         -4.1102  -12.0920  -47.8649 C.3       23 UNK        -0.0205 
      9 C9         -4.0310  -13.5034  -48.4298 C.ar      23 UNK        -0.0193 
     10 C10        -4.0712  -13.7093  -49.8115 C.ar      23 UNK        -0.1150 
     11 C11        -3.9224  -14.9934  -50.3428 C.ar      23 UNK        -0.0193 
     12 C12        -3.7181  -16.0766  -49.4816 C.ar      23 UNK        -0.1150 
     13 C13        -3.6669  -15.8806  -48.0980 C.ar      23 UNK        -0.0193 
     14 C14        -3.8631  -14.5991  -47.5766 C.ar      23 UNK        -0.1150 
     15 C15        -3.3257  -17.0316  -47.1664 C.3       23 UNK        -0.0205 
     16 S16        -1.5179  -17.1692  -46.9946 S.3       23 UNK        -0.2404 
     17 C17        -1.3460  -18.2514  -45.5420 C.3       23 UNK        -0.0398 
     18 CA         -1.0406  -19.7182  -45.9265 C.3       11 UNK         0.1400 
     19 N          -0.3286  -20.4275  -44.8625 N.am      11 UNK        -0.5000 
     20 C           0.1399  -21.6813  -44.9458 C.2       10 UNK         0.5000 
     21 O           0.0952  -22.3677  -45.9661 O.2       10 UNK        -0.5000 
     22 CA          0.6935  -22.2901  -43.6461 C.3       10 UNK         0.1400 
     23 CB          2.1519  -21.8651  -43.4128 C.3       10 UNK        -0.1800 
     24 N          -0.1248  -21.9245  -42.4882 N.am      10 UNK        -0.5000 
     25 C          -1.3809  -22.3509  -42.2868 C.2       9 UNK         0.5000 
     26 O          -1.9618  -23.1423  -43.0289 O.2       9 UNK        -0.5000 
     27 CA         -2.1283  -21.7521  -41.0812 C.3       9 UNK         0.1400 
     28 CB         -1.7544  -22.4929  -39.7888 C.3       9 UNK        -0.1800 
     29 N          -1.8641  -20.3218  -40.9156 N.am      9 UNK        -0.5000 
     30 C          -2.2495  -19.3723  -41.7808 C.2       8 UNK         0.5000 
     31 O          -2.9205  -19.5978  -42.7868 O.2       8 UNK        -0.5000 
     32 CA         -1.7454  -17.9414  -41.5104 C.3       8 UNK         0.1400 
     33 CB         -2.7202  -17.1817  -40.5999 C.3       8 UNK        -0.1800 
     34 N          -0.4026  -17.9183  -40.9223 N.am      8 UNK        -0.5000 
     35 C           0.6952  -18.3499  -41.5551 C.2       7 UNK         0.5000 
     36 O           0.6940  -18.7517  -42.7228 O.2       7 UNK        -0.5000 
     37 CA          1.9857  -18.4180  -40.7291 C.3       7 UNK         0.1400 
     38 CB          1.9454  -19.6309  -39.7774 C.3       7 UNK        -0.1800 
     39 N           3.1047  -18.5367  -41.6546 N.am      7 UNK        -0.5000 
     40 C           4.4042  -18.4129  -41.3648 C.2       6 UNK         0.5000 
     41 O           4.8399  -18.2004  -40.2326 O.2       6 UNK        -0.5000 
     42 CA          5.3877  -18.5381  -42.5468 C.3       6 UNK         0.1400 
     43 CB          5.8661  -19.9913  -42.6915 C.3       6 UNK        -0.1800 
     44 N           4.8268  -18.0908  -43.8264 N.am      6 UNK        -0.5000 
     45 C           4.4791  -16.8263  -44.1006 C.2       5 UNK         0.5000 
     46 O           4.6152  -15.8963  -43.3018 O.2       5 UNK        -0.5000 
     47 CA          3.8448  -16.5873  -45.4870 C.3       5 UNK         0.1400 
     48 CB          2.4223  -17.1723  -45.5265 C.3       5 UNK        -0.1800 
     49 N           3.7798  -15.1675  -45.8359 N.am      5 UNK        -0.5000 
     50 C           4.8349  -14.3764  -46.0771 C.2       4 UNK         0.5000 
     51 O           5.9962  -14.7835  -46.1383 O.2       4 UNK        -0.5000 
     52 CA          4.5485  -12.8773  -46.2779 C.3       4 UNK         0.1400 
     53 CB          4.3228  -12.5657  -47.7668 C.3       4 UNK        -0.1800 
     54 N           3.3770  -12.4469  -45.5126 N.am      4 UNK        -0.5000 
     55 C           3.4134  -11.9500  -44.2681 C.2       3 UNK         0.5000 
     56 O           4.4570  -11.7326  -43.6512 O.2       3 UNK        -0.5000 
     57 CA          2.0625  -11.6253  -43.5953 C.3       3 UNK         0.1400 
     58 CB          1.7019  -10.1466  -43.8054 C.3       3 UNK        -0.1800 
     59 N           0.9590  -12.4532  -44.0840 N.am      3 UNK        -0.5000 
     60 C           0.7816  -13.7458  -43.7786 C.2       2 UNK         0.5000 
     61 O           1.4755  -14.3570  -42.9675 O.2       2 UNK        -0.5000 
     62 CA         -0.3472  -14.4950  -44.5164 C.3       2 UNK         0.1400 
     63 CB         -1.5992  -14.5951  -43.6325 C.3       2 UNK        -0.1800 
     64 N          -0.7309  -13.9359  -45.8165 N.am      2 UNK        -0.5000 
     65 C           0.0724  -13.7132  -46.8647 C.2       1 UNK         0.5000 
     66 O           1.2941  -13.8708  -46.8152 O.2       1 UNK        -0.5000 
     67 C          -2.3213  -20.4638  -46.3478 C.2       11 UNK         0.5000 
     68 O          -2.5112  -20.7090  -47.5367 O.2       11 UNK        -0.5000 
     69 N          -3.1501  -20.8485  -45.3663 N.am      12 UNK        -0.5000 
     70 CA         -4.3786  -21.6174  -45.5668 C.3       12 UNK         0.1400 
     71 CB         -5.1326  -21.7400  -44.2343 C.3       12 UNK        -0.1800 
     72 C          -4.1251  -23.0042  -46.1851 C.2       12 UNK         0.5000 
     73 O          -4.8368  -23.3911  -47.1121 O.2       12 UNK        -0.5000 
     74 N          -3.0955  -23.7069  -45.6907 N.am      13 UNK        -0.5000 
     75 CA         -2.6555  -25.0057  -46.2029 C.3       13 UNK         0.1400 
     76 CB         -1.5727  -25.5846  -45.2801 C.3       13 UNK        -0.1800 
     77 C          -2.1565  -24.9428  -47.6586 C.2       13 UNK         0.5000 
     78 O          -2.4525  -25.8496  -48.4365 O.2       13 UNK        -0.5000 
     79 N          -1.4339  -23.8689  -48.0067 N.am      14 UNK        -0.5000 
     80 CA         -0.9987  -23.5804  -49.3715 C.3       14 UNK         0.1400 
     81 CB          0.0721  -22.4789  -49.3553 C.3       14 UNK        -0.1800 
     82 C          -2.1776  -23.1899  -50.2786 C.2       14 UNK         0.5000 
     83 O          -2.3075  -23.7359  -51.3737 O.2       14 UNK        -0.5000 
     84 N          -3.0288  -22.2704  -49.8039 N.am      15 UNK        -0.5000 
     85 CA         -4.1946  -21.7530  -50.5211 C.3       15 UNK         0.1400 
     86 CB         -4.8752  -20.6611  -49.6812 C.3       15 UNK        -0.1800 
     87 C          -5.2113  -22.8367  -50.9179 C.2       15 UNK         0.5000 
     88 O          -5.8044  -22.7362  -51.9942 O.2       15 UNK        -0.5000 
     89 N          -5.3660  -23.8557  -50.0622 N.am      16 UNK        -0.5000 
     90 CA         -6.1905  -25.0448  -50.2630 C.3       16 UNK         0.1400 
     91 CB         -6.3068  -25.7938  -48.9240 C.3       16 UNK        -0.1800 
     92 C          -5.6590  -25.9511  -51.3948 C.2       16 UNK         0.5000 
     93 O          -5.0578  -26.9930  -51.1312 O.2       16 UNK        -0.5000 
     94 N          -5.8930  -25.5212  -52.6409 N.am      17 UNK        -0.5000 
     95 CA         -5.6776  -26.2063  -53.9226 C.3       17 UNK         0.1400 
     96 CB         -6.4782  -27.5218  -53.9829 C.3       17 UNK        -0.1800 
     97 C          -4.2113  -26.4356  -54.3437 C.2       17 UNK         0.5000 
     98 O          -3.9708  -26.6007  -55.5399 O.2       17 UNK        -0.5000 
     99 N          -3.2604  -26.4355  -53.3996 N.am      18 UNK        -0.5000 
    100 CA        -1.8327  -26.6382  -53.6617 C.3       18 UNK         0.1400 
    101 CB        -1.0876  -26.9001  -52.3428 C.3       18 UNK        -0.1800 
    102 C         -1.2184  -25.4659  -54.4483 C.2       18 UNK         0.5000 
    103 O         -0.6655  -25.6773  -55.5285 O.2       18 UNK        -0.5000 
    104 N         -1.3724  -24.2491  -53.9132 N.am      19 UNK        -0.5000 
    105 CA        -1.0496  -22.9931  -54.5914 C.3       19 UNK         0.1400 
    106 CB        -0.5593  -21.9693  -53.5546 C.3       19 UNK        -0.1800 
    107 C         -2.2616  -22.4328  -55.3597 C.2       19 UNK         0.5000 
    108 O         -2.0655  -21.6033  -56.2476 O.2       19 UNK        -0.5000 
    109 N         -3.4742  -22.8960  -55.0060 N.am      20 UNK        -0.5000 
    110 CA        -4.7840  -22.4749  -55.5179 C.3       20 UNK         0.1400 
    111 CB        -4.9439  -22.8482  -57.0054 C.3       20 UNK        -0.1800 
    112 C         -5.0215  -20.9800  -55.2360 C.2       20 UNK         0.5000 
    113 O         -4.9152  -20.1432  -56.1367 O.2       20 UNK        -0.5000 
    114 N         -5.2681  -20.6776  -53.9535 N.am      21 UNK        -0.5000 
    115 CA        -5.2661  -19.3413  -53.3545 C.3       21 UNK         0.1400 
    116 CB        -6.4667  -18.5045  -53.8529 C.3       21 UNK        -0.1800 
    117 C         -3.8872  -18.6782  -53.5489 C.2       21 UNK         0.5000 
    118 O         -2.9039  -19.1757  -52.9993 O.2       21 UNK        -0.5000 
    119 N         -3.8426  -17.6077  -54.3451 N.am      22 UNK        -0.5000 
    120 CA        -2.6228  -16.9294  -54.8056 C.3       22 UNK         0.1400 
    121 C         -2.4416  -17.0483  -56.3498 C.2       22 UNK         0.5000 
    122 N         -3.1500  -17.9332  -57.0441 N.am      22 UNK        -0.7600 
    123 O         -1.6316  -16.3367  -56.9378 O.2       22 UNK        -0.5000 
    124 C124       -2.5802  -15.4575  -54.3110 C.3       23 UNK        -0.0398 
    125 S125       -2.2645  -15.3283  -52.5178 S.3       23 UNK        -0.2404 
    126 C126       -3.9509  -15.2033  -51.8480 C.3       23 UNK        -0.0205 
    127 H127        2.7154  -14.6582  -50.7942 H         1 UNK         0.0600 
    128 H128        2.0248  -13.0806  -51.1835 H         1 UNK         0.0600 
    129 H129        1.3996  -14.5342  -51.9683 H         1 UNK         0.0600 
    130 H130        0.7007  -12.3364  -49.5719 H         1 UNK         0.3000 
    131 H131       -1.3814  -13.9391  -48.4032 H         1 UNK         0.0600 
    132 H132       -0.5070  -11.0710  -47.7546 H         1 UNK         0.0800 
    133 H133       -1.6301  -11.4882  -49.0135 H         1 UNK         0.0800 
    134 H134       -4.2156  -11.3550  -48.6626 H         1 UNK         0.0800 
    135 H135       -5.0058  -12.0089  -47.2480 H         1 UNK         0.0800 
    136 H136       -4.1971  -12.8672  -50.4776 H         1 UNK         0.1150 
    137 H137       -3.5592  -17.0646  -49.8910 H         1 UNK         0.1150 
    138 H138       -3.8187  -14.4435  -46.5080 H         1 UNK         0.1150 
    139 H139       -3.7834  -16.8688  -46.1895 H         1 UNK         0.0800 
    140 H140       -3.7314  -17.9676  -47.5534 H         1 UNK         0.0800 
    141 H141       -2.2226  -18.1658  -44.8990 H         1 UNK         0.0800 
    142 H142       -0.5175  -17.8475  -44.9606 H         1 UNK         0.0800 
    143 H143       -0.3663  -19.7146  -46.7860 H         1 UNK         0.0600 
    144 H144       -0.1855  -19.9188  -43.9958 H         1 UNK         0.3000 
    145 H145        0.6698  -23.3771  -43.7478 H         1 UNK         0.0600 
    146 H146        2.5515  -22.3052  -42.4991 H         1 UNK         0.0600 
    147 H147        2.7869  -22.1942  -44.2362 H         1 UNK         0.0600 
    148 H148        2.2550  -20.7836  -43.3369 H         1 UNK         0.0600 
    149 H149        0.2641  -21.2459  -41.8527 H         1 UNK         0.3000 
    150 H150       -3.1988  -21.8828  -41.2537 H         1 UNK         0.0600 
    151 H151       -1.9544  -23.5613  -39.8804 H         1 UNK         0.0600 
    152 H152       -2.3357  -22.1263  -38.9426 H         1 UNK         0.0600 
    153 H153       -0.6974  -22.3761  -39.5462 H         1 UNK         0.0600 
    154 H154       -1.3243  -20.0477  -40.1086 H         1 UNK         0.3000 
    155 H155       -1.7023  -17.4243  -42.4707 H         1 UNK         0.0600 
    156 H156       -2.7933  -17.6411  -39.6134 H         1 UNK         0.0600 
    157 H157       -2.4088  -16.1456  -40.4662 H         1 UNK         0.0600 
    158 H158       -3.7226  -17.1652  -41.0301 H         1 UNK         0.0600 
    159 H159       -0.3313  -17.6020  -39.9657 H         1 UNK         0.3000 
    160 H160        2.0884  -17.4926  -40.1592 H         1 UNK         0.0600 
    161 H161        1.8859  -20.5711  -40.3268 H         1 UNK         0.0600 
    162 H162        1.0848  -19.5836  -39.1093 H         1 UNK         0.0600 
    163 H163        2.8326  -19.6730  -39.1459 H         1 UNK         0.0600 
    164 H164        2.8205  -18.6728  -42.6163 H         1 UNK         0.3000 
    165 H165        6.2545  -17.9132  -42.3216 H         1 UNK         0.0600 
    166 H166        6.6230  -20.0826  -43.4707 H         1 UNK         0.0600 
    167 H167        6.3131  -20.3492  -41.7630 H         1 UNK         0.0600 
    168 H168        5.0439  -20.6637  -42.9396 H         1 UNK         0.0600 
    169 H169        4.6922  -18.8018  -44.5306 H         1 UNK         0.3000 
    170 H170        4.4547  -17.0895  -46.2406 H         1 UNK         0.0600 
    171 H171        2.4411  -18.2616  -45.4778 H         1 UNK         0.0600 
    172 H172        1.8302  -16.8252  -44.6804 H         1 UNK         0.0600 
    173 H173        1.8975  -16.8986  -46.4428 H         1 UNK         0.0600 
    174 H174        2.8581  -14.7483  -45.8626 H         1 UNK         0.3000 
    175 H175        5.4285  -12.3209  -45.9485 H         1 UNK         0.0600 
    176 H176        5.1996  -12.8343  -48.3571 H         1 UNK         0.0600 
    177 H177        3.4744  -13.1165  -48.1740 H         1 UNK         0.0600 
    178 H178        4.1385  -11.5028  -47.9234 H         1 UNK         0.0600 
    179 H179        2.4778  -12.6629  -45.9309 H         1 UNK         0.3000 
    180 H180        2.1768  -11.7991  -42.5232 H         1 UNK         0.0600 
    181 H181        1.5600   -9.9126  -44.8613 H         1 UNK         0.0600 
    182 H182        2.4909   -9.4948  -43.4279 H         1 UNK         0.0600 
    183 H183        0.7852   -9.8848  -43.2766 H         1 UNK         0.0600 
    184 H184        0.3300  -12.0288  -44.7491 H         1 UNK         0.3000 
    185 H185        0.0108  -15.5064  -44.7017 H         1 UNK         0.0600 
    186 H186       -1.3533  -14.9934  -42.6475 H         1 UNK         0.0600 
    187 H187       -2.0639  -13.6196  -43.4841 H         1 UNK         0.0600 
    188 H188       -2.3422  -15.2590  -44.0754 H         1 UNK         0.0600 
    189 H189       -1.7124  -13.7265  -45.9315 H         1 UNK         0.3000 
    190 H190       -2.9434  -20.5692  -44.4108 H         1 UNK         0.3000 
    191 H191       -5.0085  -21.0557  -46.2589 H         1 UNK         0.0600 
    192 H192       -4.5428  -22.2662  -43.4835 H         1 UNK         0.0600 
    193 H193       -6.0664  -22.2885  -44.3631 H         1 UNK         0.0600 
    194 H194       -5.3841  -20.7582  -43.8327 H         1 UNK         0.0600 
    195 H195       -2.5874  -23.3371  -44.8928 H         1 UNK         0.3000 
    196 H196       -3.5158  -25.6779  -46.1790 H         1 UNK         0.0600 
    197 H197       -1.2451  -26.5647  -45.6288 H         1 UNK         0.0600 
    198 H198       -1.9465  -25.7091  -44.2636 H         1 UNK         0.0600 
    199 H199       -0.6944  -24.9404  -45.2370 H         1 UNK         0.0600 
    200 H200       -1.1817  -23.1925  -47.2929 H         1 UNK         0.3000 
    201 H201       -0.5441  -24.4836  -49.7835 H         1 UNK         0.0600 
    202 H202        0.9413  -22.7853  -48.7732 H         1 UNK         0.0600 
    203 H203       -0.3059  -21.5515  -48.9240 H         1 UNK         0.0600 
    204 H204        0.4177  -22.2552  -50.3651 H         1 UNK         0.0600 
    205 H205       -2.8322  -21.8391  -48.9019 H         1 UNK         0.3000 
    206 H206       -3.8265  -21.2997  -51.4425 H         1 UNK         0.0600 
    207 H207       -4.2187  -19.8007  -49.5492 H         1 UNK         0.0600 
    208 H208       -5.7910  -20.3044  -50.1529 H         1 UNK         0.0600 
    209 H209       -5.1465  -21.0310  -48.6926 H         1 UNK         0.0600 
    210 H210       -4.8554  -23.8158  -49.1868 H         1 UNK         0.3000 
    211 H211       -7.1932  -24.7186  -50.5466 H         1 UNK         0.0600 
    212 H212       -5.3289  -26.0931  -48.5442 H         1 UNK         0.0600 
    213 H213       -6.9111  -26.6956  -49.0292 H         1 UNK         0.0600 
    214 H214       -6.7819  -25.1717  -48.1653 H         1 UNK         0.0600 
    215 H215       -6.2819  -24.5870  -52.7156 H         1 UNK         0.3000 
    216 H216       -6.1000  -25.5396  -54.6760 H         1 UNK         0.0600 
    217 H217       -6.4207  -27.9683  -54.9764 H         1 UNK         0.0600 
    218 H218       -7.5328  -27.3528  -53.7650 H         1 UNK         0.0600 
    219 H219       -6.1022  -28.2601  -53.2741 H         1 UNK         0.0600 
    220 H220       -3.5488  -26.3471  -52.4323 H         1 UNK         0.3000 
    221 H221       -1.7307  -27.5339  -54.2782 H         1 UNK         0.0600 
    222 H222       -1.2021  -26.0797  -51.6360 H         1 UNK         0.0600 
    223 H223       -1.4559  -27.8049  -51.8592 H         1 UNK         0.0600 
    224 H224       -0.0198  -27.0366  -52.5179 H         1 UNK         0.0600 
    225 H225       -1.7941  -24.1636  -52.9878 H         1 UNK         0.3000 
    226 H226       -0.2439  -23.1583  -55.3097 H         1 UNK         0.0600 
    227 H227        0.2785  -22.3596  -52.9770 H         1 UNK         0.0600 
    228 H228       -0.2218  -21.0542  -54.0427 H         1 UNK         0.0600 
    229 H229       -1.3497  -21.6885  -52.8576 H         1 UNK         0.0600 
    230 H230       -3.4948  -23.5655  -54.2514 H         1 UNK         0.3000 
    231 H231       -5.5369  -23.0323  -54.9586 H         1 UNK         0.0600 
    232 H232       -5.9436  -22.5976  -57.3614 H         1 UNK         0.0600 
    233 H233       -4.8015  -23.9182  -57.1580 H         1 UNK         0.0600 
    234 H234       -4.2316  -22.3222  -57.6414 H         1 UNK         0.0600 
    235 H235       -5.3649  -21.4453  -53.2945 H         1 UNK         0.3000 
    236 H236       -5.3905  -19.4748  -52.2813 H         1 UNK         0.0600 
    237 H237       -7.4069  -19.0047  -53.6205 H         1 UNK         0.0600 
    238 H238       -6.4952  -17.5301  -53.3636 H         1 UNK         0.0600 
    239 H239       -6.4450  -18.3363  -54.9297 H         1 UNK         0.0600 
    240 H240       -4.6988  -17.3031  -54.7853 H         1 UNK         0.3000 
    241 H241       -1.7463  -17.4370  -54.3988 H         1 UNK         0.0600 
    242 H242       -3.0090  -17.9974  -58.0395 H         1 UNK         0.3800 
    243 H243       -3.7704  -18.5982  -56.5907 H         1 UNK         0.3800 
    244 H244       -1.7732  -14.9082  -54.7983 H         1 UNK         0.0800 
    245 H245       -3.4997  -14.9314  -54.5717 H         1 UNK         0.0800 
    246 H246       -4.4773  -14.3816  -52.3361 H         1 UNK         0.0800 
    247 H247       -4.5104  -16.1099  -52.0773 H         1 UNK         0.0800 
@<TRIPOS>BOND
     1    1    2 1    
     2    1  127 1    
     3    1  128 1    
     4    1  129 1    
     5    2    3 2    
     6    2    4 am   BACKBONE|DICT|INTERRES
     7    4    5 1    
     8    4  130 1    
     9    5    6 1    
    10    5   65 1    
    11    5  131 1    
    12    6    7 1    
    13    6  132 1    
    14    6  133 1    
    15    7    8 1    
    16    8    9 1    
    17    8  134 1    
    18    8  135 1    
    19    9   10 ar   
    20    9   14 ar   
    21   10   11 ar   
    22   10  136 1    
    23   11   12 ar   
    24   11  126 1    
    25   12   13 ar   
    26   12  137 1    
    27   13   14 ar   
    28   13   15 1    
    29   14  138 1    
    30   15   16 1    
    31   15  139 1    
    32   15  140 1    
    33   16   17 1    
    34   17   18 1    
    35   17  141 1    
    36   17  142 1    
    37   18   19 1    
    38   18   67 1    
    39   18  143 1    
    40   19   20 am   BACKBONE|DICT|INTERRES
    41   19  144 1    
    42   20   21 2    
    43   20   22 1    
    44   22   23 1    
    45   22   24 1    
    46   22  145 1    
    47   23  146 1    
    48   23  147 1    
    49   23  148 1    
    50   24   25 am   BACKBONE|DICT|INTERRES
    51   24  149 1    
    52   25   26 2    
    53   25   27 1    
    54   27   28 1    
    55   27   29 1    
    56   27  150 1    
    57   28  151 1    
    58   28  152 1    
    59   28  153 1    
    60   29   30 am   BACKBONE|DICT|INTERRES
    61   29  154 1    
    62   30   31 2    
    63   30   32 1    
    64   32   33 1    
    65   32   34 1    
    66   32  155 1    
    67   33  156 1    
    68   33  157 1    
    69   33  158 1    
    70   34   35 am   BACKBONE|DICT|INTERRES
    71   34  159 1    
    72   35   36 2    
    73   35   37 1    
    74   37   38 1    
    75   37   39 1    
    76   37  160 1    
    77   38  161 1    
    78   38  162 1    
    79   38  163 1    
    80   39   40 am   BACKBONE|DICT|INTERRES
    81   39  164 1    
    82   40   41 2    
    83   40   42 1    
    84   42   43 1    
    85   42   44 1    
    86   42  165 1    
    87   43  166 1    
    88   43  167 1    
    89   43  168 1    
    90   44   45 am   BACKBONE|DICT|INTERRES
    91   44  169 1    
    92   45   46 2    
    93   45   47 1    
    94   47   48 1    
    95   47   49 1    
    96   47  170 1    
    97   48  171 1    
    98   48  172 1    
    99   48  173 1    
   100   49   50 am   BACKBONE|DICT|INTERRES
   101   49  174 1    
   102   50   51 2    
   103   50   52 1    
   104   52   53 1    
   105   52   54 1    
   106   52  175 1    
   107   53  176 1    
   108   53  177 1    
   109   53  178 1    
   110   54   55 am   BACKBONE|DICT|INTERRES
   111   54  179 1    
   112   55   56 2    
   113   55   57 1    
   114   57   58 1    
   115   57   59 1    
   116   57  180 1    
   117   58  181 1    
   118   58  182 1    
   119   58  183 1    
   120   59   60 am   BACKBONE|DICT|INTERRES
   121   59  184 1    
   122   60   61 2    
   123   60   62 1    
   124   62   63 1    
   125   62   64 1    
   126   62  185 1    
   127   63  186 1    
   128   63  187 1    
   129   63  188 1    
   130   64   65 am   BACKBONE|DICT|INTERRES
   131   64  189 1    
   132   65   66 2    
   133   67   68 2    
   134   67   69 am   BACKBONE|DICT|INTERRES
   135   69   70 1    
   136   69  190 1    
   137   70   71 1    
   138   70   72 1    
   139   70  191 1    
   140   71  192 1    
   141   71  193 1    
   142   71  194 1    
   143   72   73 2    
   144   72   74 am   BACKBONE|DICT|INTERRES
   145   74   75 1    
   146   74  195 1    
   147   75   76 1    
   148   75   77 1    
   149   75  196 1    
   150   76  197 1    
   151   76  198 1    
   152   76  199 1    
   153   77   78 2    
   154   77   79 am   BACKBONE|DICT|INTERRES
   155   79   80 1    
   156   79  200 1    
   157   80   81 1    
   158   80   82 1    
   159   80  201 1    
   160   81  202 1    
   161   81  203 1    
   162   81  204 1    
   163   82   83 2    
   164   82   84 am   BACKBONE|DICT|INTERRES
   165   84   85 1    
   166   84  205 1    
   167   85   86 1    
   168   85   87 1    
   169   85  206 1    
   170   86  207 1    
   171   86  208 1    
   172   86  209 1    
   173   87   88 2    
   174   87   89 am   BACKBONE|DICT|INTERRES
   175   89   90 1    
   176   89  210 1    
   177   90   91 1    
   178   90   92 1    
   179   90  211 1    
   180   91  212 1    
   181   91  213 1    
   182   91  214 1    
   183   92   93 2    
   184   92   94 am   BACKBONE|DICT|INTERRES
   185   94   95 1    
   186   94  215 1    
   187   95   96 1    
   188   95   97 1    
   189   95  216 1    
   190   96  217 1    
   191   96  218 1    
   192   96  219 1    
   193   97   98 2    
   194   97   99 am   BACKBONE|DICT|INTERRES
   195   99  100 1    
   196   99  220 1    
   197  100  101 1    
   198  100  102 1    
   199  100  221 1    
   200  101  222 1    
   201  101  223 1    
   202  101  224 1    
   203  102  103 2    
   204  102  104 am   BACKBONE|DICT|INTERRES
   205  104  105 1    
   206  104  225 1    
   207  105  106 1    
   208  105  107 1    
   209  105  226 1    
   210  106  227 1    
   211  106  228 1    
   212  106  229 1    
   213  107  108 2    
   214  107  109 am   BACKBONE|DICT|INTERRES
   215  109  110 1    
   216  109  230 1    
   217  110  111 1    
   218  110  112 1    
   219  110  231 1    
   220  111  232 1    
   221  111  233 1    
   222  111  234 1    
   223  112  113 2    
   224  112  114 am   BACKBONE|DICT|INTERRES
   225  114  115 1    
   226  114  235 1    
   227  115  116 1    
   228  115  117 1    
   229  115  236 1    
   230  116  237 1    
   231  116  238 1    
   232  116  239 1    
   233  117  118 2    
   234  117  119 am   BACKBONE|DICT|INTERRES
   235  119  120 1    
   236  119  240 1    
   237  120  121 1    
   238  120  124 1    
   239  120  241 1    
   240  121  122 am   BACKBONE|DICT|INTERRES
   241  121  123 2    
   242  122  242 1    
   243  122  243 1    
   244  124  125 1    
   245  124  244 1    
   246  124  245 1    
   247  125  126 1    
   248  126  246 1    
   249  126  247 1    
@<TRIPOS>SUBSTRUCTURE
     1 UNK         1 GROUP             0       ****    0 ROOT    
