@<TRIPOS>MOLECULE
3R540
247   249    1
SMALL
USER_CHARGES


@<TRIPOS>ATOM
      1 CA         -1.5669  -12.8136  -48.2041 C.3       0 UNK        -0.1800 
      2 C          -0.1351  -12.2989  -48.2578 C.2       0 UNK         0.5000 
      3 O           0.1491  -11.3616  -49.0040 O.2       0 UNK        -0.5000 
      4 N           0.7657  -12.9101  -47.4784 N.am      1 UNK        -0.5000 
      5 CA          2.1782  -12.5289  -47.3624 C.3       1 UNK         0.1400 
      6 C6          3.0388  -13.6115  -46.6573 C.3       23 UNK        -0.0398 
      7 S7          2.6458  -15.3168  -47.1666 S.3       23 UNK        -0.2404 
      8 C8          3.8678  -15.6410  -48.4657 C.3       23 UNK        -0.0205 
      9 C9          3.5705  -16.9810  -49.1163 C.ar      23 UNK        -0.0193 
     10 C10         2.7323  -17.0474  -50.2326 C.ar      23 UNK        -0.1150 
     11 C11         2.4020  -18.2816  -50.7995 C.ar      23 UNK        -0.0193 
     12 C12         2.9362  -19.4525  -50.2556 C.ar      23 UNK        -0.1150 
     13 C13         3.7760  -19.3991  -49.1390 C.ar      23 UNK        -0.0193 
     14 C14         4.0927  -18.1596  -48.5755 C.ar      23 UNK        -0.1150 
     15 C15         4.3296  -20.6804  -48.5328 C.3       23 UNK        -0.0205 
     16 S16         3.2771  -21.3018  -47.1820 S.3       23 UNK        -0.2404 
     17 C17         1.7653  -21.7541  -48.0955 C.3       23 UNK        -0.0398 
     18 CA          0.8888  -22.7711  -47.3298 C.3       11 UNK         0.1400 
     19 N           0.2442  -22.1901  -46.1470 N.am      11 UNK        -0.5000 
     20 C          -0.4578  -22.8889  -45.2426 C.2       10 UNK         0.5000 
     21 O          -0.5844  -24.1133  -45.2745 O.2       10 UNK        -0.5000 
     22 CA         -1.1880  -22.0851  -44.1505 C.3       10 UNK         0.1400 
     23 CB         -0.2175  -21.6461  -43.0443 C.3       10 UNK        -0.1800 
     24 N          -1.8953  -20.9213  -44.6884 N.am      10 UNK        -0.5000 
     25 C          -2.9253  -20.9933  -45.5443 C.2       9 UNK         0.5000 
     26 O          -3.4176  -22.0524  -45.9285 O.2       9 UNK        -0.5000 
     27 CA         -3.4754  -19.6682  -46.1012 C.3       9 UNK         0.1400 
     28 CB         -4.4976  -19.0437  -45.1406 C.3       9 UNK        -0.1800 
     29 N          -2.4176  -18.7031  -46.3906 N.am      9 UNK        -0.5000 
     30 C          -1.4946  -18.8548  -47.3515 C.2       8 UNK         0.5000 
     31 O          -1.4573  -19.8124  -48.1240 O.2       8 UNK        -0.5000 
     32 CA         -0.4001  -17.7751  -47.4098 C.3       8 UNK         0.1400 
     33 CB         -0.9339  -16.5049  -48.0888 C.3       8 UNK        -0.1800 
     34 N           0.1017  -17.4392  -46.0759 N.am      8 UNK        -0.5000 
     35 C           0.7454  -18.2969  -45.2712 C.2       7 UNK         0.5000 
     36 O           1.0074  -19.4570  -45.5817 O.2       7 UNK        -0.5000 
     37 CA          1.0851  -17.8056  -43.8529 C.3       7 UNK         0.1400 
     38 CB          2.4745  -17.1543  -43.8048 C.3       7 UNK        -0.1800 
     39 N           0.0762  -16.8886  -43.3166 N.am      7 UNK        -0.5000 
     40 C          -1.1712  -17.2662  -42.9943 C.2       6 UNK         0.5000 
     41 O          -1.5811  -18.4190  -43.1327 O.2       6 UNK        -0.5000 
     42 CA         -2.1339  -16.1967  -42.4402 C.3       6 UNK         0.1400 
     43 CB         -2.1875  -16.2711  -40.9071 C.3       6 UNK        -0.1800 
     44 N          -1.7988  -14.8293  -42.8376 N.am      6 UNK        -0.5000 
     45 C          -1.8684  -14.3561  -44.0887 C.2       5 UNK         0.5000 
     46 O          -2.2491  -15.0239  -45.0504 O.2       5 UNK        -0.5000 
     47 CA         -1.3868  -12.9072  -44.3102 C.3       5 UNK         0.1400 
     48 CB         -2.5641  -11.9259  -44.2235 C.3       5 UNK        -0.1800 
     49 N          -0.3156  -12.4613  -43.4103 N.am      5 UNK        -0.5000 
     50 C           0.8667  -13.0737  -43.2551 C.2       4 UNK         0.5000 
     51 O           1.1422  -14.1507  -43.7830 O.2       4 UNK        -0.5000 
     52 CA          1.9057  -12.3514  -42.3846 C.3       4 UNK         0.1400 
     53 CB          3.2850  -13.0425  -42.3910 C.3       4 UNK        -0.1800 
     54 N           2.0370  -10.9625  -42.8213 N.am      4 UNK        -0.5000 
     55 C           2.4685   -9.9556  -42.0501 C.2       3 UNK         0.5000 
     56 O           2.7447  -10.0935  -40.8567 O.2       3 UNK        -0.5000 
     57 CA          2.6020   -8.5618  -42.7074 C.3       3 UNK         0.1400 
     58 CB          3.6861   -7.6893  -42.0395 C.3       3 UNK        -0.1800 
     59 N           2.7906   -8.6000  -44.1630 N.am      3 UNK        -0.5000 
     60 C           3.8106   -9.1447  -44.8426 C.2       2 UNK         0.5000 
     61 O           4.7859   -9.6905  -44.3232 O.2       2 UNK        -0.5000 
     62 CA          3.6850   -9.1076  -46.3793 C.3       2 UNK         0.1400 
     63 CB          4.9697   -8.5714  -47.0320 C.3       2 UNK        -0.1800 
     64 N           3.3710  -10.4207  -46.9493 N.am      2 UNK        -0.5000 
     65 C           2.3150  -11.1795  -46.6250 C.2       1 UNK         0.5000 
     66 O           1.4829  -10.8656  -45.7678 O.2       1 UNK        -0.5000 
     67 C          -0.1400  -23.4130  -48.2810 C.2       11 UNK         0.5000 
     68 O           0.0914  -24.5269  -48.7517 O.2       11 UNK        -0.5000 
     69 N          -1.2684  -22.7277  -48.5159 N.am      12 UNK        -0.5000 
     70 CA         -2.3812  -23.2340  -49.3174 C.3       12 UNK         0.1400 
     71 CB         -3.4338  -22.1370  -49.5007 C.3       12 UNK        -0.1800 
     72 C          -3.0130  -24.5006  -48.7166 C.2       12 UNK         0.5000 
     73 O          -3.2181  -25.4708  -49.4430 O.2       12 UNK        -0.5000 
     74 N          -3.2579  -24.4939  -47.3988 N.am      13 UNK        -0.5000 
     75 CA         -3.7770  -25.6346  -46.6440 C.3       13 UNK         0.1400 
     76 CB         -4.0749  -25.2097  -45.1985 C.3       13 UNK        -0.1800 
     77 C          -2.8347  -26.8513  -46.6754 C.2       13 UNK         0.5000 
     78 O          -3.3064  -27.9721  -46.8672 O.2       13 UNK        -0.5000 
     79 N          -1.5227  -26.6088  -46.5390 N.am      14 UNK        -0.5000 
     80 CA         -0.4732  -27.6251  -46.6505 C.3       14 UNK         0.1400 
     81 CB          0.8722  -27.0221  -46.2191 C.3       14 UNK        -0.1800 
     82 C          -0.3725  -28.2347  -48.0631 C.2       14 UNK         0.5000 
     83 O          -0.1432  -29.4378  -48.1912 O.2       14 UNK        -0.5000 
     84 N          -0.5769  -27.4032  -49.0933 N.am      15 UNK        -0.5000 
     85 CA         -0.6294  -27.8040  -50.5011 C.3       15 UNK         0.1400 
     86 CB         -0.3749  -26.5637  -51.3737 C.3       15 UNK        -0.1800 
     87 C          -1.9580  -28.4788  -50.9055 C.2       15 UNK         0.5000 
     88 O          -2.0309  -29.0387  -52.0002 O.2       15 UNK        -0.5000 
     89 N          -2.9788  -28.3962  -50.0381 N.am      16 UNK        -0.5000 
     90 CA         -4.3723  -28.8062  -50.2468 C.3       16 UNK         0.1400 
     91 CB         -4.4845  -30.3364  -50.4097 C.3       16 UNK        -0.1800 
     92 C          -5.0503  -28.0136  -51.3867 C.2       16 UNK         0.5000 
     93 O          -5.7899  -28.5827  -52.1923 O.2       16 UNK        -0.5000 
     94 N          -4.7662  -26.7085  -51.4313 N.am      17 UNK        -0.5000 
     95 CA         -5.2489  -25.7440  -52.4127 C.3       17 UNK         0.1400 
     96 CB         -4.0210  -25.1296  -53.1047 C.3       17 UNK        -0.1800 
     97 C          -6.0840  -24.6518  -51.7213 C.2       17 UNK         0.5000 
     98 O          -6.1187  -24.5734  -50.4905 O.2       17 UNK        -0.5000 
     99 N          -6.7427  -23.8144  -52.5313 N.am      18 UNK        -0.5000 
    100 CA        -7.4902  -22.6453  -52.0711 C.3       18 UNK         0.1400 
    101 CB        -8.4124  -22.1613  -53.2008 C.3       18 UNK        -0.1800 
    102 C         -6.5380  -21.5151  -51.6464 C.2       18 UNK         0.5000 
    103 O         -5.5425  -21.2679  -52.3333 O.2       18 UNK        -0.5000 
    104 N         -6.8806  -20.8171  -50.5556 N.am      19 UNK        -0.5000 
    105 CA        -6.1211  -19.6792  -50.0259 C.3       19 UNK         0.1400 
    106 CB        -6.6478  -19.3135  -48.6305 C.3       19 UNK        -0.1800 
    107 C         -6.1332  -18.4549  -50.9590 C.2       19 UNK         0.5000 
    108 O         -5.1496  -17.7175  -50.9991 O.2       19 UNK        -0.5000 
    109 N         -7.2177  -18.2924  -51.7307 N.am      20 UNK        -0.5000 
    110 CA        -7.3618  -17.2625  -52.7633 C.3       20 UNK         0.1400 
    111 CB        -8.8253  -17.2213  -53.2286 C.3       20 UNK        -0.1800 
    112 C         -6.4197  -17.4782  -53.9650 C.2       20 UNK         0.5000 
    113 O         -5.9942  -16.5036  -54.5856 O.2       20 UNK        -0.5000 
    114 N         -6.0993  -18.7463  -54.2562 N.am      21 UNK        -0.5000 
    115 CA        -5.1358  -19.1523  -55.2811 C.3       21 UNK         0.1400 
    116 CB        -5.5706  -20.5148  -55.8459 C.3       21 UNK        -0.1800 
    117 C         -3.6969  -19.2366  -54.7328 C.2       21 UNK         0.5000 
    118 O         -2.7585  -19.3531  -55.5218 O.2       21 UNK        -0.5000 
    119 N         -3.5510  -19.1951  -53.4014 N.am      22 UNK        -0.5000 
    120 CA        -2.3126  -19.4458  -52.6511 C.3       22 UNK         0.1400 
    121 C         -1.8252  -20.9245  -52.7496 C.2       22 UNK         0.5000 
    122 N         -2.7321  -21.8872  -52.8707 N.am      22 UNK        -0.7600 
    123 O         -0.6323  -21.2129  -52.7181 O.2       22 UNK        -0.5000 
    124 C124       -1.2138  -18.3833  -52.9404 C.3       23 UNK        -0.0398 
    125 S125       -0.2523  -17.9817  -51.4453 S.3       23 UNK        -0.2404 
    126 C126        1.4451  -18.3509  -51.9788 C.3       23 UNK        -0.0205 
    127 H127       -2.2416  -12.0138  -47.8989 H         1 UNK         0.0600 
    128 H128       -1.6780  -13.6358  -47.4985 H         1 UNK         0.0600 
    129 H129       -1.8762  -13.1674  -49.1874 H         1 UNK         0.0600 
    130 H130        0.4858  -13.6802  -46.8902 H         1 UNK         0.3000 
    131 H131        2.5628  -12.4047  -48.3770 H         1 UNK         0.0600 
    132 H132        4.1005  -13.4219  -46.8224 H         1 UNK         0.0800 
    133 H133        2.8978  -13.5724  -45.5776 H         1 UNK         0.0800 
    134 H134        4.8716  -15.6386  -48.0383 H         1 UNK         0.0800 
    135 H135        3.8366  -14.8430  -49.2090 H         1 UNK         0.0800 
    136 H136        2.3075  -16.1410  -50.6408 H         1 UNK         0.1150 
    137 H137        2.6803  -20.4087  -50.6898 H         1 UNK         0.1150 
    138 H138        4.7264  -18.1139  -47.7009 H         1 UNK         0.1150 
    139 H139        4.4393  -21.4499  -49.2985 H         1 UNK         0.0800 
    140 H140        5.3317  -20.4980  -48.1419 H         1 UNK         0.0800 
    141 H141        2.0730  -22.1692  -49.0572 H         1 UNK         0.0800 
    142 H142        1.1997  -20.8466  -48.3157 H         1 UNK         0.0800 
    143 H143        1.5364  -23.5781  -46.9801 H         1 UNK         0.0600 
    144 H144        0.3565  -21.1869  -46.0193 H         1 UNK         0.3000 
    145 H145       -1.9341  -22.7422  -43.6989 H         1 UNK         0.0600 
    146 H146       -0.7342  -21.0896  -42.2621 H         1 UNK         0.0600 
    147 H147        0.2507  -22.5117  -42.5743 H         1 UNK         0.0600 
    148 H148        0.5813  -21.0160  -43.4333 H         1 UNK         0.0600 
    149 H149       -1.5854  -20.0085  -44.3718 H         1 UNK         0.3000 
    150 H150       -3.9880  -19.8909  -47.0390 H         1 UNK         0.0600 
    151 H151       -5.3173  -19.7356  -44.9430 H         1 UNK         0.0600 
    152 H152       -4.9327  -18.1375  -45.5625 H         1 UNK         0.0600 
    153 H153       -4.0485  -18.7855  -44.1814 H         1 UNK         0.0600 
    154 H154       -2.3525  -17.8995  -45.7825 H         1 UNK         0.3000 
    155 H155        0.4308  -18.1640  -48.0033 H         1 UNK         0.0600 
    156 H156       -1.7106  -16.0273  -47.4925 H         1 UNK         0.0600 
    157 H157       -0.1377  -15.7804  -48.2561 H         1 UNK         0.0600 
    158 H158       -1.3724  -16.7328  -49.0600 H         1 UNK         0.0600 
    159 H159       -0.0956  -16.5117  -45.7298 H         1 UNK         0.3000 
    160 H160        1.1140  -18.6818  -43.2024 H         1 UNK         0.0600 
    161 H161        2.5237  -16.2593  -44.4223 H         1 UNK         0.0600 
    162 H162        3.2392  -17.8423  -44.1674 H         1 UNK         0.0600 
    163 H163        2.7435  -16.8721  -42.7870 H         1 UNK         0.0600 
    164 H164        0.3432  -15.9119  -43.2450 H         1 UNK         0.3000 
    165 H165       -3.1291  -16.4250  -42.8276 H         1 UNK         0.0600 
    166 H166       -2.9284  -15.5807  -40.5036 H         1 UNK         0.0600 
    167 H167       -2.4636  -17.2726  -40.5738 H         1 UNK         0.0600 
    168 H168       -1.2227  -16.0303  -40.4588 H         1 UNK         0.0600 
    169 H169       -1.4604  -14.2140  -42.1127 H         1 UNK         0.3000 
    170 H170       -0.9846  -12.8567  -45.3208 H         1 UNK         0.0600 
    171 H171       -3.3659  -12.2160  -44.9041 H         1 UNK         0.0600 
    172 H172       -2.9832  -11.8886  -43.2174 H         1 UNK         0.0600 
    173 H173       -2.2568  -10.9168  -44.4990 H         1 UNK         0.0600 
    174 H174       -0.4609  -11.5778  -42.9436 H         1 UNK         0.3000 
    175 H175        1.5159  -12.3729  -41.3649 H         1 UNK         0.0600 
    176 H176        3.7425  -13.0136  -43.3801 H         1 UNK         0.0600 
    177 H177        3.9720  -12.5626  -41.6941 H         1 UNK         0.0600 
    178 H178        3.2046  -14.0888  -42.0932 H         1 UNK         0.0600 
    179 H179        1.8134  -10.7830  -43.7974 H         1 UNK         0.3000 
    180 H180        1.6430   -8.0682  -42.5443 H         1 UNK         0.0600 
    181 H181        4.6705   -8.1551  -42.0922 H         1 UNK         0.0600 
    182 H182        3.4610   -7.5217  -40.9857 H         1 UNK         0.0600 
    183 H183        3.7521   -6.7101  -42.5137 H         1 UNK         0.0600 
    184 H184        2.0197   -8.2266  -44.6997 H         1 UNK         0.3000 
    185 H185        2.8705   -8.4309  -46.6463 H         1 UNK         0.0600 
    186 H186        5.2324   -7.5925  -46.6288 H         1 UNK         0.0600 
    187 H187        5.8179   -9.2353  -46.8602 H         1 UNK         0.0600 
    188 H188        4.8471   -8.4555  -48.1091 H         1 UNK         0.0600 
    189 H189        4.0198  -10.7614  -47.6438 H         1 UNK         0.3000 
    190 H190       -1.3697  -21.7911  -48.1361 H         1 UNK         0.3000 
    191 H191       -1.9873  -23.4908  -50.3028 H         1 UNK         0.0600 
    192 H192       -3.8926  -21.8480  -48.5561 H         1 UNK         0.0600 
    193 H193       -4.2295  -22.4826  -50.1590 H         1 UNK         0.0600 
    194 H194       -2.9994  -21.2453  -49.9508 H         1 UNK         0.0600 
    195 H195       -3.1040  -23.6356  -46.8747 H         1 UNK         0.3000 
    196 H196       -4.7182  -25.9341  -47.1098 H         1 UNK         0.0600 
    197 H197       -4.4762  -26.0429  -44.6204 H         1 UNK         0.0600 
    198 H198       -4.8128  -24.4078  -45.1687 H         1 UNK         0.0600 
    199 H199       -3.1781  -24.8568  -44.6889 H         1 UNK         0.0600 
    200 H200       -1.2194  -25.6603  -46.3365 H         1 UNK         0.3000 
    201 H201       -0.7188  -28.4337  -45.9590 H         1 UNK         0.0600 
    202 H202        0.8287  -26.6555  -45.1934 H         1 UNK         0.0600 
    203 H203        1.1643  -26.1892  -46.8589 H         1 UNK         0.0600 
    204 H204        1.6673  -27.7672  -46.2655 H         1 UNK         0.0600 
    205 H205       -0.6968  -26.4133  -48.9026 H         1 UNK         0.3000 
    206 H206        0.1718  -28.5217  -50.6886 H         1 UNK         0.0600 
    207 H207        0.5867  -26.1068  -51.1393 H         1 UNK         0.0600 
    208 H208       -0.3617  -26.8234  -52.4329 H         1 UNK         0.0600 
    209 H209       -1.1474  -25.8074  -51.2315 H         1 UNK         0.0600 
    210 H210       -2.8083  -27.8864  -49.1810 H         1 UNK         0.3000 
    211 H211       -4.9040  -28.5349  -49.3337 H         1 UNK         0.0600 
    212 H212       -4.0297  -30.6824  -51.3381 H         1 UNK         0.0600 
    213 H213       -5.5287  -30.6507  -50.4218 H         1 UNK         0.0600 
    214 H214       -3.9993  -30.8562  -49.5835 H         1 UNK         0.0600 
    215 H215       -4.2018  -26.3080  -50.6820 H         1 UNK         0.3000 
    216 H216       -5.8773  -26.2316  -53.1604 H         1 UNK         0.0600 
    217 H217       -4.3091  -24.3890  -53.8517 H         1 UNK         0.0600 
    218 H218       -3.4365  -25.8951  -53.6158 H         1 UNK         0.0600 
    219 H219       -3.3659  -24.6403  -52.3833 H         1 UNK         0.0600 
    220 H220       -6.6431  -23.9166  -53.5305 H         1 UNK         0.3000 
    221 H221       -8.1072  -22.9355  -51.2179 H         1 UNK         0.0600 
    222 H222       -7.8483  -21.8676  -54.0868 H         1 UNK         0.0600 
    223 H223       -9.1153  -22.9406  -53.4955 H         1 UNK         0.0600 
    224 H224       -9.0004  -21.2985  -52.8852 H         1 UNK         0.0600 
    225 H225       -7.7115  -21.0795  -50.0450 H         1 UNK         0.3000 
    226 H226       -5.0799  -19.9846  -49.9209 H         1 UNK         0.0600 
    227 H227       -6.5537  -20.1533  -47.9415 H         1 UNK         0.0600 
    228 H228       -6.0829  -18.4826  -48.2053 H         1 UNK         0.0600 
    229 H229       -7.6970  -19.0171  -48.6600 H         1 UNK         0.0600 
    230 H230       -7.9849  -18.9392  -51.6232 H         1 UNK         0.3000 
    231 H231       -7.1155  -16.2963  -52.3179 H         1 UNK         0.0600 
    232 H232       -8.9733  -16.4475  -53.9831 H         1 UNK         0.0600 
    233 H233       -9.4969  -16.9972  -52.3996 H         1 UNK         0.0600 
    234 H234       -9.1362  -18.1707  -53.6666 H         1 UNK         0.0600 
    235 H235       -6.4730  -19.4864  -53.6799 H         1 UNK         0.3000 
    236 H236       -5.1393  -18.4273  -56.0976 H         1 UNK         0.0600 
    237 H237       -6.5825  -20.4712  -56.2489 H         1 UNK         0.0600 
    238 H238       -4.9120  -20.8292  -56.6564 H         1 UNK         0.0600 
    239 H239       -5.5448  -21.2946  -55.0839 H         1 UNK         0.0600 
    240 H240       -4.3847  -19.1031  -52.8399 H         1 UNK         0.3000 
    241 H241       -2.6159  -19.3308  -51.6097 H         1 UNK         0.0600 
    242 H242       -3.7239  -21.6684  -52.8412 H         1 UNK         0.3800 
    243 H243       -2.4220  -22.8385  -52.9656 H         1 UNK         0.3800 
    244 H244       -0.5614  -18.6954  -53.7575 H         1 UNK         0.0800 
    245 H245       -1.6708  -17.4491  -53.2695 H         1 UNK         0.0800 
    246 H246        1.4742  -19.3406  -52.4377 H         1 UNK         0.0800 
    247 H247        1.7512  -17.6384  -52.7460 H         1 UNK         0.0800 
@<TRIPOS>BOND
     1    1    2 1    
     2    1  127 1    
     3    1  128 1    
     4    1  129 1    
     5    2    3 2    
     6    2    4 am   BACKBONE|DICT|INTERRES
     7    4    5 1    
     8    4  130 1    
     9    5    6 1    
    10    5   65 1    
    11    5  131 1    
    12    6    7 1    
    13    6  132 1    
    14    6  133 1    
    15    7    8 1    
    16    8    9 1    
    17    8  134 1    
    18    8  135 1    
    19    9   10 ar   
    20    9   14 ar   
    21   10   11 ar   
    22   10  136 1    
    23   11   12 ar   
    24   11  126 1    
    25   12   13 ar   
    26   12  137 1    
    27   13   14 ar   
    28   13   15 1    
    29   14  138 1    
    30   15   16 1    
    31   15  139 1    
    32   15  140 1    
    33   16   17 1    
    34   17   18 1    
    35   17  141 1    
    36   17  142 1    
    37   18   19 1    
    38   18   67 1    
    39   18  143 1    
    40   19   20 am   BACKBONE|DICT|INTERRES
    41   19  144 1    
    42   20   21 2    
    43   20   22 1    
    44   22   23 1    
    45   22   24 1    
    46   22  145 1    
    47   23  146 1    
    48   23  147 1    
    49   23  148 1    
    50   24   25 am   BACKBONE|DICT|INTERRES
    51   24  149 1    
    52   25   26 2    
    53   25   27 1    
    54   27   28 1    
    55   27   29 1    
    56   27  150 1    
    57   28  151 1    
    58   28  152 1    
    59   28  153 1    
    60   29   30 am   BACKBONE|DICT|INTERRES
    61   29  154 1    
    62   30   31 2    
    63   30   32 1    
    64   32   33 1    
    65   32   34 1    
    66   32  155 1    
    67   33  156 1    
    68   33  157 1    
    69   33  158 1    
    70   34   35 am   BACKBONE|DICT|INTERRES
    71   34  159 1    
    72   35   36 2    
    73   35   37 1    
    74   37   38 1    
    75   37   39 1    
    76   37  160 1    
    77   38  161 1    
    78   38  162 1    
    79   38  163 1    
    80   39   40 am   BACKBONE|DICT|INTERRES
    81   39  164 1    
    82   40   41 2    
    83   40   42 1    
    84   42   43 1    
    85   42   44 1    
    86   42  165 1    
    87   43  166 1    
    88   43  167 1    
    89   43  168 1    
    90   44   45 am   BACKBONE|DICT|INTERRES
    91   44  169 1    
    92   45   46 2    
    93   45   47 1    
    94   47   48 1    
    95   47   49 1    
    96   47  170 1    
    97   48  171 1    
    98   48  172 1    
    99   48  173 1    
   100   49   50 am   BACKBONE|DICT|INTERRES
   101   49  174 1    
   102   50   51 2    
   103   50   52 1    
   104   52   53 1    
   105   52   54 1    
   106   52  175 1    
   107   53  176 1    
   108   53  177 1    
   109   53  178 1    
   110   54   55 am   BACKBONE|DICT|INTERRES
   111   54  179 1    
   112   55   56 2    
   113   55   57 1    
   114   57   58 1    
   115   57   59 1    
   116   57  180 1    
   117   58  181 1    
   118   58  182 1    
   119   58  183 1    
   120   59   60 am   BACKBONE|DICT|INTERRES
   121   59  184 1    
   122   60   61 2    
   123   60   62 1    
   124   62   63 1    
   125   62   64 1    
   126   62  185 1    
   127   63  186 1    
   128   63  187 1    
   129   63  188 1    
   130   64   65 am   BACKBONE|DICT|INTERRES
   131   64  189 1    
   132   65   66 2    
   133   67   68 2    
   134   67   69 am   BACKBONE|DICT|INTERRES
   135   69   70 1    
   136   69  190 1    
   137   70   71 1    
   138   70   72 1    
   139   70  191 1    
   140   71  192 1    
   141   71  193 1    
   142   71  194 1    
   143   72   73 2    
   144   72   74 am   BACKBONE|DICT|INTERRES
   145   74   75 1    
   146   74  195 1    
   147   75   76 1    
   148   75   77 1    
   149   75  196 1    
   150   76  197 1    
   151   76  198 1    
   152   76  199 1    
   153   77   78 2    
   154   77   79 am   BACKBONE|DICT|INTERRES
   155   79   80 1    
   156   79  200 1    
   157   80   81 1    
   158   80   82 1    
   159   80  201 1    
   160   81  202 1    
   161   81  203 1    
   162   81  204 1    
   163   82   83 2    
   164   82   84 am   BACKBONE|DICT|INTERRES
   165   84   85 1    
   166   84  205 1    
   167   85   86 1    
   168   85   87 1    
   169   85  206 1    
   170   86  207 1    
   171   86  208 1    
   172   86  209 1    
   173   87   88 2    
   174   87   89 am   BACKBONE|DICT|INTERRES
   175   89   90 1    
   176   89  210 1    
   177   90   91 1    
   178   90   92 1    
   179   90  211 1    
   180   91  212 1    
   181   91  213 1    
   182   91  214 1    
   183   92   93 2    
   184   92   94 am   BACKBONE|DICT|INTERRES
   185   94   95 1    
   186   94  215 1    
   187   95   96 1    
   188   95   97 1    
   189   95  216 1    
   190   96  217 1    
   191   96  218 1    
   192   96  219 1    
   193   97   98 2    
   194   97   99 am   BACKBONE|DICT|INTERRES
   195   99  100 1    
   196   99  220 1    
   197  100  101 1    
   198  100  102 1    
   199  100  221 1    
   200  101  222 1    
   201  101  223 1    
   202  101  224 1    
   203  102  103 2    
   204  102  104 am   BACKBONE|DICT|INTERRES
   205  104  105 1    
   206  104  225 1    
   207  105  106 1    
   208  105  107 1    
   209  105  226 1    
   210  106  227 1    
   211  106  228 1    
   212  106  229 1    
   213  107  108 2    
   214  107  109 am   BACKBONE|DICT|INTERRES
   215  109  110 1    
   216  109  230 1    
   217  110  111 1    
   218  110  112 1    
   219  110  231 1    
   220  111  232 1    
   221  111  233 1    
   222  111  234 1    
   223  112  113 2    
   224  112  114 am   BACKBONE|DICT|INTERRES
   225  114  115 1    
   226  114  235 1    
   227  115  116 1    
   228  115  117 1    
   229  115  236 1    
   230  116  237 1    
   231  116  238 1    
   232  116  239 1    
   233  117  118 2    
   234  117  119 am   BACKBONE|DICT|INTERRES
   235  119  120 1    
   236  119  240 1    
   237  120  121 1    
   238  120  124 1    
   239  120  241 1    
   240  121  122 am   BACKBONE|DICT|INTERRES
   241  121  123 2    
   242  122  242 1    
   243  122  243 1    
   244  124  125 1    
   245  124  244 1    
   246  124  245 1    
   247  125  126 1    
   248  126  246 1    
   249  126  247 1    
@<TRIPOS>SUBSTRUCTURE
     1 UNK         1 GROUP             0       ****    0 ROOT    
