@<TRIPOS>MOLECULE
3R540
247   249    1
SMALL
USER_CHARGES


@<TRIPOS>ATOM
      1 CA         -2.6185  -11.0964  -44.0610 C.3       0 UNK        -0.1800 
      2 C          -2.1917  -10.7413  -45.4787 C.2       0 UNK         0.5000 
      3 O          -1.7637   -9.6139  -45.7260 O.2       0 UNK        -0.5000 
      4 N          -2.3072  -11.6977  -46.4070 N.am      1 UNK        -0.5000 
      5 CA         -1.8853  -11.5710  -47.8053 C.3       1 UNK         0.1400 
      6 C6         -2.3748  -12.7590  -48.6680 C.3       23 UNK        -0.0398 
      7 S7         -4.1762  -13.0407  -48.6228 S.3       23 UNK        -0.2404 
      8 C8         -4.4064  -14.0631  -50.1163 C.3       23 UNK        -0.0205 
      9 C9         -3.5388  -15.3155  -50.1018 C.ar      23 UNK        -0.0193 
     10 C10        -2.3147  -15.3270  -50.7780 C.ar      23 UNK        -0.1150 
     11 C11        -1.4988  -16.4619  -50.7593 C.ar      23 UNK        -0.0193 
     12 C12        -1.9236  -17.5943  -50.0598 C.ar      23 UNK        -0.1150 
     13 C13        -3.1439  -17.5990  -49.3779 C.ar      23 UNK        -0.0193 
     14 C14        -3.9497  -16.4561  -49.4050 C.ar      23 UNK        -0.1150 
     15 C15        -3.5751  -18.8338  -48.5995 C.3       23 UNK        -0.0205 
     16 S16        -2.4839  -19.1087  -47.1712 S.3       23 UNK        -0.2404 
     17 C17        -3.2412  -20.5520  -46.3493 C.3       23 UNK        -0.0398 
     18 CA         -2.4532  -21.8716  -46.5693 C.3       11 UNK         0.1400 
     19 N          -1.0226  -21.7336  -46.2641 N.am      11 UNK        -0.5000 
     20 C          -0.0325  -22.4648  -46.7963 C.2       10 UNK         0.5000 
     21 O          -0.2321  -23.4233  -47.5428 O.2       10 UNK        -0.5000 
     22 CA          1.4187  -22.0826  -46.4516 C.3       10 UNK         0.1400 
     23 CB          2.0942  -21.4169  -47.6612 C.3       10 UNK        -0.1800 
     24 N           1.5121  -21.1924  -45.2940 N.am      10 UNK        -0.5000 
     25 C           1.5401  -21.6162  -44.0217 C.2       9 UNK         0.5000 
     26 O           1.5283  -22.8061  -43.7037 O.2       9 UNK        -0.5000 
     27 CA          1.5807  -20.5476  -42.9083 C.3       9 UNK         0.1400 
     28 CB          3.0245  -20.3338  -42.4282 C.3       9 UNK        -0.1800 
     29 N           1.0150  -19.2538  -43.2920 N.am      9 UNK        -0.5000 
     30 C          -0.2505  -19.0439  -43.6798 C.2       8 UNK         0.5000 
     31 O          -1.1113  -19.9232  -43.7068 O.2       8 UNK        -0.5000 
     32 CA         -0.5957  -17.6270  -44.1740 C.3       8 UNK         0.1400 
     33 CB         -1.0775  -16.7539  -43.0070 C.3       8 UNK        -0.1800 
     34 N           0.5106  -16.9541  -44.8606 N.am      8 UNK        -0.5000 
     35 C           1.1574  -17.4114  -45.9440 C.2       7 UNK         0.5000 
     36 O           0.9276  -18.4965  -46.4749 O.2       7 UNK        -0.5000 
     37 CA          2.2911  -16.5299  -46.4892 C.3       7 UNK         0.1400 
     38 CB          1.7295  -15.3332  -47.2712 C.3       7 UNK        -0.1800 
     39 N           3.1446  -16.0603  -45.3983 N.am      7 UNK        -0.5000 
     40 C           4.1387  -16.7840  -44.8637 C.2       6 UNK         0.5000 
     41 O           4.5013  -17.8747  -45.3047 O.2       6 UNK        -0.5000 
     42 CA          4.8394  -16.2119  -43.6158 C.3       6 UNK         0.1400 
     43 CB          6.1025  -15.4323  -44.0065 C.3       6 UNK        -0.1800 
     44 N           3.9757  -15.3495  -42.8094 N.am      6 UNK        -0.5000 
     45 C           2.9423  -15.7886  -42.0780 C.2       5 UNK         0.5000 
     46 O           2.6108  -16.9717  -42.0027 O.2       5 UNK        -0.5000 
     47 CA          2.1102  -14.7173  -41.3462 C.3       5 UNK         0.1400 
     48 CB          2.7196  -14.4106  -39.9703 C.3       5 UNK        -0.1800 
     49 N           1.9555  -13.4661  -42.0953 N.am      5 UNK        -0.5000 
     50 C           1.4475  -13.3621  -43.3309 C.2       4 UNK         0.5000 
     51 O           1.0865  -14.3304  -43.9992 O.2       4 UNK        -0.5000 
     52 CA          1.3283  -11.9595  -43.9472 C.3       4 UNK         0.1400 
     53 CB          1.5483  -10.7942  -42.9570 C.3       4 UNK        -0.1800 
     54 N           2.1861  -11.8308  -45.1241 N.am      4 UNK        -0.5000 
     55 C           3.5252  -11.8645  -45.1773 C.2       3 UNK         0.5000 
     56 O           4.2383  -12.0484  -44.1894 O.2       3 UNK        -0.5000 
     57 CA          4.1924  -11.6730  -46.5590 C.3       3 UNK         0.1400 
     58 CB          5.1544  -12.8296  -46.8758 C.3       3 UNK        -0.1800 
     59 N           3.2437  -11.5449  -47.6678 N.am      3 UNK        -0.5000 
     60 C           2.5653  -10.4390  -48.0043 C.2       2 UNK         0.5000 
     61 O           2.6721   -9.3634  -47.4142 O.2       2 UNK        -0.5000 
     62 CA          1.5863  -10.5588  -49.1953 C.3       2 UNK         0.1400 
     63 CB          1.9203  -11.7286  -50.1497 C.3       2 UNK        -0.1800 
     64 N           0.1778  -10.6485  -48.7866 N.am      2 UNK        -0.5000 
     65 C          -0.3485  -11.5085  -47.9026 C.2       1 UNK         0.5000 
     66 O           0.3183  -12.2894  -47.2235 O.2       1 UNK        -0.5000 
     67 C          -3.0903  -23.0687  -45.8242 C.2       11 UNK         0.5000 
     68 O          -4.1180  -22.9144  -45.1625 O.2       11 UNK        -0.5000 
     69 N          -2.4635  -24.2452  -45.9352 N.am      12 UNK        -0.5000 
     70 CA         -2.9604  -25.5184  -45.4219 C.3       12 UNK         0.1400 
     71 CB         -1.7944  -26.5173  -45.3733 C.3       12 UNK        -0.1800 
     72 C          -4.0847  -26.0610  -46.3178 C.2       12 UNK         0.5000 
     73 O          -4.0630  -25.8342  -47.5294 O.2       12 UNK        -0.5000 
     74 N          -5.0252  -26.8094  -45.7267 N.am      13 UNK        -0.5000 
     75 CA         -6.1573  -27.4234  -46.4311 C.3       13 UNK         0.1400 
     76 CB         -7.0774  -28.1172  -45.4160 C.3       13 UNK        -0.1800 
     77 C          -5.7209  -28.4066  -47.5342 C.2       13 UNK         0.5000 
     78 O          -6.2971  -28.4004  -48.6221 O.2       13 UNK        -0.5000 
     79 N          -4.6611  -29.1774  -47.2532 N.am      14 UNK        -0.5000 
     80 CA         -4.0260  -30.1129  -48.1844 C.3       14 UNK         0.1400 
     81 CB         -3.0477  -31.0014  -47.4006 C.3       14 UNK        -0.1800 
     82 C          -3.3023  -29.4257  -49.3611 C.2       14 UNK         0.5000 
     83 O          -3.0959  -30.0638  -50.3937 O.2       14 UNK        -0.5000 
     84 N          -2.9399  -28.1458  -49.1958 N.am      15 UNK        -0.5000 
     85 CA         -2.3094  -27.3160  -50.2232 C.3       15 UNK         0.1400 
     86 CB         -1.3415  -26.3305  -49.5434 C.3       15 UNK        -0.1800 
     87 C          -3.3383  -26.5582  -51.0860 C.2       15 UNK         0.5000 
     88 O          -2.9257  -25.8755  -52.0215 O.2       15 UNK        -0.5000 
     89 N          -4.6361  -26.6839  -50.7620 N.am      16 UNK        -0.5000 
     90 CA         -5.7733  -25.9272  -51.2928 C.3       16 UNK         0.1400 
     91 CB         -5.9062  -26.0578  -52.8251 C.3       16 UNK        -0.1800 
     92 C          -5.7133  -24.4677  -50.8078 C.2       16 UNK         0.5000 
     93 O          -5.3639  -23.5642  -51.5707 O.2       16 UNK        -0.5000 
     94 N          -6.0537  -24.2857  -49.5233 N.am      17 UNK        -0.5000 
     95 CA         -5.9859  -23.0549  -48.7226 C.3       17 UNK         0.1400 
     96 CB         -6.6412  -23.3265  -47.3591 C.3       17 UNK        -0.1800 
     97 C          -6.6132  -21.7876  -49.3366 C.2       17 UNK         0.5000 
     98 O          -6.2757  -20.6866  -48.9046 O.2       17 UNK        -0.5000 
     99 N          -7.5025  -21.9524  -50.3238 N.am      18 UNK        -0.5000 
    100 CA        -8.1112  -20.8751  -51.1039 C.3       18 UNK         0.1400 
    101 CB        -9.2042  -21.4754  -52.0017 C.3       18 UNK        -0.1800 
    102 C         -7.1052  -20.0648  -51.9499 C.2       18 UNK         0.5000 
    103 O         -7.4124  -18.9251  -52.3026 O.2       18 UNK        -0.5000 
    104 N         -5.9384  -20.6479  -52.2603 N.am      19 UNK        -0.5000 
    105 CA        -4.8639  -19.9849  -52.9992 C.3       19 UNK         0.1400 
    106 CB        -5.0456  -20.2089  -54.5095 C.3       19 UNK        -0.1800 
    107 C         -3.4771  -20.4458  -52.5320 C.2       19 UNK         0.5000 
    108 O         -2.5950  -19.6059  -52.3642 O.2       19 UNK        -0.5000 
    109 N         -3.3032  -21.7589  -52.3222 N.am      20 UNK        -0.5000 
    110 CA        -2.0787  -22.4314  -51.8792 C.3       20 UNK         0.1400 
    111 CB        -1.9369  -22.2982  -50.3511 C.3       20 UNK        -0.1800 
    112 C         -0.8279  -22.0002  -52.6748 C.2       20 UNK         0.5000 
    113 O         -0.7707  -22.2390  -53.8826 O.2       20 UNK        -0.5000 
    114 N          0.1262  -21.3383  -52.0051 N.am      21 UNK        -0.5000 
    115 CA         1.3577  -20.7930  -52.5838 C.3       21 UNK         0.1400 
    116 CB         2.2287  -20.2324  -51.4483 C.3       21 UNK        -0.1800 
    117 C          1.1339  -19.7223  -53.6737 C.2       21 UNK         0.5000 
    118 O          2.0147  -19.5275  -54.5123 O.2       21 UNK        -0.5000 
    119 N         -0.0325  -19.0672  -53.6544 N.am      22 UNK        -0.5000 
    120 CA        -0.4941  -18.1200  -54.6782 C.3       22 UNK         0.1400 
    121 C         -1.3280  -18.7992  -55.8068 C.2       22 UNK         0.5000 
    122 N         -1.5240  -20.1136  -55.8122 N.am      22 UNK        -0.7600 
    123 O         -1.7921  -18.1208  -56.7192 O.2       22 UNK        -0.5000 
    124 C124       -1.2531  -16.9292  -54.0343 C.3       23 UNK        -0.0398 
    125 S125       -0.1422  -15.7892  -53.1388 S.3       23 UNK        -0.2404 
    126 C126       -0.1358  -16.4630  -51.4425 C.3       23 UNK        -0.0205 
    127 H127       -2.8443  -12.1584  -43.9603 H         1 UNK         0.0600 
    128 H128       -1.8249  -10.8507  -43.3553 H         1 UNK         0.0600 
    129 H129       -3.5078  -10.5300  -43.7847 H         1 UNK         0.0600 
    130 H130       -2.6585  -12.6070  -46.1446 H         1 UNK         0.3000 
    131 H131       -2.3078  -10.6474  -48.2065 H         1 UNK         0.0600 
    132 H132       -2.0837  -12.5983  -49.7076 H         1 UNK         0.0800 
    133 H133       -1.8902  -13.6858  -48.3519 H         1 UNK         0.0800 
    134 H134       -5.4571  -14.3466  -50.1928 H         1 UNK         0.0800 
    135 H135       -4.1900  -13.4616  -51.0006 H         1 UNK         0.0800 
    136 H136       -1.9877  -14.4451  -51.3101 H         1 UNK         0.1150 
    137 H137       -1.2993  -18.4761  -50.0309 H         1 UNK         0.1150 
    138 H138       -4.8911  -16.4468  -48.8739 H         1 UNK         0.1150 
    139 H139       -4.6018  -18.7223  -48.2486 H         1 UNK         0.0800 
    140 H140       -3.5587  -19.7052  -49.2551 H         1 UNK         0.0800 
    141 H141       -4.2704  -20.6601  -46.6967 H         1 UNK         0.0800 
    142 H142       -3.3051  -20.3231  -45.2843 H         1 UNK         0.0800 
    143 H143       -2.5399  -22.1063  -47.6295 H         1 UNK         0.0600 
    144 H144       -0.7855  -20.9923  -45.6168 H         1 UNK         0.3000 
    145 H145        1.9595  -23.0069  -46.2377 H         1 UNK         0.0600 
    146 H146        3.1147  -21.1121  -47.4290 H         1 UNK         0.0600 
    147 H147        2.1447  -22.1084  -48.5030 H         1 UNK         0.0600 
    148 H148        1.5476  -20.5359  -47.9982 H         1 UNK         0.0600 
    149 H149        1.4795  -20.1970  -45.4911 H         1 UNK         0.3000 
    150 H150        0.9933  -20.9289  -42.0708 H         1 UNK         0.0600 
    151 H151        3.4854  -21.2776  -42.1337 H         1 UNK         0.0600 
    152 H152        3.0580  -19.6740  -41.5611 H         1 UNK         0.0600 
    153 H153        3.6453  -19.8928  -43.2093 H         1 UNK         0.0600 
    154 H154        1.6387  -18.4565  -43.2429 H         1 UNK         0.3000 
    155 H155       -1.4146  -17.7137  -44.8880 H         1 UNK         0.0600 
    156 H156       -1.3582  -15.7566  -43.3466 H         1 UNK         0.0600 
    157 H157       -0.3057  -16.6465  -42.2456 H         1 UNK         0.0600 
    158 H158       -1.9526  -17.1936  -42.5271 H         1 UNK         0.0600 
    159 H159        0.7608  -16.0329  -44.5065 H         1 UNK         0.3000 
    160 H160        2.8845  -17.1307  -47.1821 H         1 UNK         0.0600 
    161 H161        1.1208  -14.6900  -46.6368 H         1 UNK         0.0600 
    162 H162        1.0982  -15.6671  -48.0957 H         1 UNK         0.0600 
    163 H163        2.5274  -14.7264  -47.6973 H         1 UNK         0.0600 
    164 H164        2.8517  -15.2126  -44.9303 H         1 UNK         0.3000 
    165 H165        5.1443  -17.0598  -42.9985 H         1 UNK         0.0600 
    166 H166        5.8567  -14.5303  -44.5648 H         1 UNK         0.0600 
    167 H167        6.6695  -15.1345  -43.1244 H         1 UNK         0.0600 
    168 H168        6.7629  -16.0377  -44.6287 H         1 UNK         0.0600 
    169 H169        4.1602  -14.3558  -42.8414 H         1 UNK         0.3000 
    170 H170        1.1118  -15.1272  -41.1880 H         1 UNK         0.0600 
    171 H171        2.8288  -15.3213  -39.3797 H         1 UNK         0.0600 
    172 H172        3.7073  -13.9565  -40.0596 H         1 UNK         0.0600 
    173 H173        2.0867  -13.7300  -39.4007 H         1 UNK         0.0600 
    174 H174        2.2532  -12.6216  -41.6289 H         1 UNK         0.3000 
    175 H175        0.3055  -11.8861  -44.3154 H         1 UNK         0.0600 
    176 H176        1.3752   -9.8358  -43.4468 H         1 UNK         0.0600 
    177 H177        0.8515  -10.8543  -42.1200 H         1 UNK         0.0600 
    178 H178        2.5590  -10.7760  -42.5487 H         1 UNK         0.0600 
    179 H179        1.6804  -11.8011  -46.0059 H         1 UNK         0.3000 
    180 H180        4.7795  -10.7541  -46.5037 H         1 UNK         0.0600 
    181 H181        4.6537  -13.7974  -46.8333 H         1 UNK         0.0600 
    182 H182        5.9807  -12.8510  -46.1651 H         1 UNK         0.0600 
    183 H183        5.5931  -12.7207  -47.8679 H         1 UNK         0.0600 
    184 H184        3.0517  -12.3882  -48.1881 H         1 UNK         0.3000 
    185 H185        1.6877   -9.6335  -49.7645 H         1 UNK         0.0600 
    186 H186        1.3003  -11.6863  -51.0453 H         1 UNK         0.0600 
    187 H187        2.9593  -11.6855  -50.4794 H         1 UNK         0.0600 
    188 H188        1.7557  -12.7025  -49.6869 H         1 UNK         0.0600 
    189 H189       -0.4465  -10.0167  -49.2684 H         1 UNK         0.3000 
    190 H190       -1.6415  -24.2798  -46.5304 H         1 UNK         0.3000 
    191 H191       -3.3454  -25.3695  -44.4110 H         1 UNK         0.0600 
    192 H192       -0.9906  -26.1523  -44.7336 H         1 UNK         0.0600 
    193 H193       -2.1165  -27.4792  -44.9725 H         1 UNK         0.0600 
    194 H194       -1.3760  -26.6974  -46.3646 H         1 UNK         0.0600 
    195 H195       -4.9782  -26.9628  -44.7295 H         1 UNK         0.3000 
    196 H196       -6.7245  -26.6232  -46.9106 H         1 UNK         0.0600 
    197 H197       -7.9367  -28.5694  -45.9132 H         1 UNK         0.0600 
    198 H198       -7.4641  -27.4069  -44.6849 H         1 UNK         0.0600 
    199 H199       -6.5578  -28.9082  -44.8739 H         1 UNK         0.0600 
    200 H200       -4.2461  -29.1026  -46.3361 H         1 UNK         0.3000 
    201 H201       -4.8051  -30.7505  -48.6076 H         1 UNK         0.0600 
    202 H202       -3.5603  -31.5542  -46.6131 H         1 UNK         0.0600 
    203 H203       -2.2534  -30.4141  -46.9380 H         1 UNK         0.0600 
    204 H204       -2.5749  -31.7350  -48.0550 H         1 UNK         0.0600 
    205 H205       -3.1946  -27.6679  -48.3410 H         1 UNK         0.3000 
    206 H206       -1.7245  -27.9479  -50.8947 H         1 UNK         0.0600 
    207 H207       -1.8653  -25.6113  -48.9136 H         1 UNK         0.0600 
    208 H208       -0.6142  -26.8533  -48.9224 H         1 UNK         0.0600 
    209 H209       -0.7812  -25.7590  -50.2843 H         1 UNK         0.0600 
    210 H210       -4.8562  -27.2818  -49.9759 H         1 UNK         0.3000 
    211 H211       -6.6671  -26.3766  -50.8571 H         1 UNK         0.0600 
    212 H212       -5.0920  -25.5681  -53.3593 H         1 UNK         0.0600 
    213 H213       -6.8338  -25.5995  -53.1691 H         1 UNK         0.0600 
    214 H214       -5.9267  -27.1038  -53.1307 H         1 UNK         0.0600 
    215 H215       -6.2832  -25.1138  -48.9944 H         1 UNK         0.3000 
    216 H216       -4.9286  -22.8409  -48.5596 H         1 UNK         0.0600 
    217 H217       -6.1499  -24.1415  -46.8323 H         1 UNK         0.0600 
    218 H218       -7.6956  -23.5846  -47.4649 H         1 UNK         0.0600 
    219 H219       -6.5808  -22.4505  -46.7115 H         1 UNK         0.0600 
    220 H220       -7.7106  -22.8948  -50.6179 H         1 UNK         0.3000 
    221 H221       -8.5826  -20.1814  -50.4047 H         1 UNK         0.0600 
    222 H222       -8.7913  -22.1959  -52.7090 H         1 UNK         0.0600 
    223 H223       -9.9673  -21.9823  -51.4107 H         1 UNK         0.0600 
    224 H224       -9.7061  -20.6984  -52.5799 H         1 UNK         0.0600 
    225 H225       -5.7560  -21.5861  -51.9194 H         1 UNK         0.3000 
    226 H226       -4.9071  -18.9103  -52.8065 H         1 UNK         0.0600 
    227 H227       -6.0021  -19.8164  -54.8549 H         1 UNK         0.0600 
    228 H228       -4.2652  -19.6995  -55.0749 H         1 UNK         0.0600 
    229 H229       -5.0046  -21.2678  -54.7671 H         1 UNK         0.0600 
    230 H230       -4.0891  -22.3860  -52.4585 H         1 UNK         0.3000 
    231 H231       -2.2151  -23.4864  -52.1044 H         1 UNK         0.0600 
    232 H232       -1.8529  -21.2594  -50.0307 H         1 UNK         0.0600 
    233 H233       -1.0609  -22.8378  -49.9909 H         1 UNK         0.0600 
    234 H234       -2.8034  -22.7338  -49.8546 H         1 UNK         0.0600 
    235 H235       -0.0204  -21.1645  -51.0221 H         1 UNK         0.3000 
    236 H236        1.8959  -21.6197  -53.0517 H         1 UNK         0.0600 
    237 H237        3.1557  -19.8088  -51.8370 H         1 UNK         0.0600 
    238 H238        1.7144  -19.4455  -50.8955 H         1 UNK         0.0600 
    239 H239        2.5044  -21.0146  -50.7414 H         1 UNK         0.0600 
    240 H240       -0.7338  -19.3229  -52.9654 H         1 UNK         0.3000 
    241 H241        0.3761  -17.7068  -55.1911 H         1 UNK         0.0600 
    242 H242       -2.0500  -20.5259  -56.5656 H         1 UNK         0.3800 
    243 H243       -1.1465  -20.7114  -55.0846 H         1 UNK         0.3800 
    244 H244       -1.7469  -16.3281  -54.7993 H         1 UNK         0.0800 
    245 H245       -2.0490  -17.2766  -53.3755 H         1 UNK         0.0800 
    246 H246        0.2826  -17.4689  -51.4646 H         1 UNK         0.0800 
    247 H247        0.5477  -15.8654  -50.8382 H         1 UNK         0.0800 
@<TRIPOS>BOND
     1    1    2 1    
     2    1  127 1    
     3    1  128 1    
     4    1  129 1    
     5    2    3 2    
     6    2    4 am   BACKBONE|DICT|INTERRES
     7    4    5 1    
     8    4  130 1    
     9    5    6 1    
    10    5   65 1    
    11    5  131 1    
    12    6    7 1    
    13    6  132 1    
    14    6  133 1    
    15    7    8 1    
    16    8    9 1    
    17    8  134 1    
    18    8  135 1    
    19    9   10 ar   
    20    9   14 ar   
    21   10   11 ar   
    22   10  136 1    
    23   11   12 ar   
    24   11  126 1    
    25   12   13 ar   
    26   12  137 1    
    27   13   14 ar   
    28   13   15 1    
    29   14  138 1    
    30   15   16 1    
    31   15  139 1    
    32   15  140 1    
    33   16   17 1    
    34   17   18 1    
    35   17  141 1    
    36   17  142 1    
    37   18   19 1    
    38   18   67 1    
    39   18  143 1    
    40   19   20 am   BACKBONE|DICT|INTERRES
    41   19  144 1    
    42   20   21 2    
    43   20   22 1    
    44   22   23 1    
    45   22   24 1    
    46   22  145 1    
    47   23  146 1    
    48   23  147 1    
    49   23  148 1    
    50   24   25 am   BACKBONE|DICT|INTERRES
    51   24  149 1    
    52   25   26 2    
    53   25   27 1    
    54   27   28 1    
    55   27   29 1    
    56   27  150 1    
    57   28  151 1    
    58   28  152 1    
    59   28  153 1    
    60   29   30 am   BACKBONE|DICT|INTERRES
    61   29  154 1    
    62   30   31 2    
    63   30   32 1    
    64   32   33 1    
    65   32   34 1    
    66   32  155 1    
    67   33  156 1    
    68   33  157 1    
    69   33  158 1    
    70   34   35 am   BACKBONE|DICT|INTERRES
    71   34  159 1    
    72   35   36 2    
    73   35   37 1    
    74   37   38 1    
    75   37   39 1    
    76   37  160 1    
    77   38  161 1    
    78   38  162 1    
    79   38  163 1    
    80   39   40 am   BACKBONE|DICT|INTERRES
    81   39  164 1    
    82   40   41 2    
    83   40   42 1    
    84   42   43 1    
    85   42   44 1    
    86   42  165 1    
    87   43  166 1    
    88   43  167 1    
    89   43  168 1    
    90   44   45 am   BACKBONE|DICT|INTERRES
    91   44  169 1    
    92   45   46 2    
    93   45   47 1    
    94   47   48 1    
    95   47   49 1    
    96   47  170 1    
    97   48  171 1    
    98   48  172 1    
    99   48  173 1    
   100   49   50 am   BACKBONE|DICT|INTERRES
   101   49  174 1    
   102   50   51 2    
   103   50   52 1    
   104   52   53 1    
   105   52   54 1    
   106   52  175 1    
   107   53  176 1    
   108   53  177 1    
   109   53  178 1    
   110   54   55 am   BACKBONE|DICT|INTERRES
   111   54  179 1    
   112   55   56 2    
   113   55   57 1    
   114   57   58 1    
   115   57   59 1    
   116   57  180 1    
   117   58  181 1    
   118   58  182 1    
   119   58  183 1    
   120   59   60 am   BACKBONE|DICT|INTERRES
   121   59  184 1    
   122   60   61 2    
   123   60   62 1    
   124   62   63 1    
   125   62   64 1    
   126   62  185 1    
   127   63  186 1    
   128   63  187 1    
   129   63  188 1    
   130   64   65 am   BACKBONE|DICT|INTERRES
   131   64  189 1    
   132   65   66 2    
   133   67   68 2    
   134   67   69 am   BACKBONE|DICT|INTERRES
   135   69   70 1    
   136   69  190 1    
   137   70   71 1    
   138   70   72 1    
   139   70  191 1    
   140   71  192 1    
   141   71  193 1    
   142   71  194 1    
   143   72   73 2    
   144   72   74 am   BACKBONE|DICT|INTERRES
   145   74   75 1    
   146   74  195 1    
   147   75   76 1    
   148   75   77 1    
   149   75  196 1    
   150   76  197 1    
   151   76  198 1    
   152   76  199 1    
   153   77   78 2    
   154   77   79 am   BACKBONE|DICT|INTERRES
   155   79   80 1    
   156   79  200 1    
   157   80   81 1    
   158   80   82 1    
   159   80  201 1    
   160   81  202 1    
   161   81  203 1    
   162   81  204 1    
   163   82   83 2    
   164   82   84 am   BACKBONE|DICT|INTERRES
   165   84   85 1    
   166   84  205 1    
   167   85   86 1    
   168   85   87 1    
   169   85  206 1    
   170   86  207 1    
   171   86  208 1    
   172   86  209 1    
   173   87   88 2    
   174   87   89 am   BACKBONE|DICT|INTERRES
   175   89   90 1    
   176   89  210 1    
   177   90   91 1    
   178   90   92 1    
   179   90  211 1    
   180   91  212 1    
   181   91  213 1    
   182   91  214 1    
   183   92   93 2    
   184   92   94 am   BACKBONE|DICT|INTERRES
   185   94   95 1    
   186   94  215 1    
   187   95   96 1    
   188   95   97 1    
   189   95  216 1    
   190   96  217 1    
   191   96  218 1    
   192   96  219 1    
   193   97   98 2    
   194   97   99 am   BACKBONE|DICT|INTERRES
   195   99  100 1    
   196   99  220 1    
   197  100  101 1    
   198  100  102 1    
   199  100  221 1    
   200  101  222 1    
   201  101  223 1    
   202  101  224 1    
   203  102  103 2    
   204  102  104 am   BACKBONE|DICT|INTERRES
   205  104  105 1    
   206  104  225 1    
   207  105  106 1    
   208  105  107 1    
   209  105  226 1    
   210  106  227 1    
   211  106  228 1    
   212  106  229 1    
   213  107  108 2    
   214  107  109 am   BACKBONE|DICT|INTERRES
   215  109  110 1    
   216  109  230 1    
   217  110  111 1    
   218  110  112 1    
   219  110  231 1    
   220  111  232 1    
   221  111  233 1    
   222  111  234 1    
   223  112  113 2    
   224  112  114 am   BACKBONE|DICT|INTERRES
   225  114  115 1    
   226  114  235 1    
   227  115  116 1    
   228  115  117 1    
   229  115  236 1    
   230  116  237 1    
   231  116  238 1    
   232  116  239 1    
   233  117  118 2    
   234  117  119 am   BACKBONE|DICT|INTERRES
   235  119  120 1    
   236  119  240 1    
   237  120  121 1    
   238  120  124 1    
   239  120  241 1    
   240  121  122 am   BACKBONE|DICT|INTERRES
   241  121  123 2    
   242  122  242 1    
   243  122  243 1    
   244  124  125 1    
   245  124  244 1    
   246  124  245 1    
   247  125  126 1    
   248  126  246 1    
   249  126  247 1    
@<TRIPOS>SUBSTRUCTURE
     1 UNK         1 GROUP             0       ****    0 ROOT    
