@<TRIPOS>MOLECULE
3R540
247   249    1
SMALL
USER_CHARGES


@<TRIPOS>ATOM
      1 CA          3.9505   -9.4151  -52.9047 C.3       0 UNK        -0.1800 
      2 C           4.5410  -10.1100  -51.6858 C.2       0 UNK         0.5000 
      3 O           5.4532   -9.5732  -51.0567 O.2       0 UNK        -0.5000 
      4 N           4.0313  -11.3030  -51.3558 N.am      1 UNK        -0.5000 
      5 CA          4.4193  -12.0852  -50.1810 C.3       1 UNK         0.1400 
      6 C6          3.9893  -13.5645  -50.3315 C.3       23 UNK        -0.0398 
      7 S7          4.7504  -14.6606  -49.0842 S.3       23 UNK        -0.2404 
      8 C8          3.2950  -15.2428  -48.1551 C.3       23 UNK        -0.0205 
      9 C9          2.4695  -16.2354  -48.9589 C.ar      23 UNK        -0.0193 
     10 C10         1.2929  -15.8291  -49.5925 C.ar      23 UNK        -0.1150 
     11 C11         0.5395  -16.7281  -50.3614 C.ar      23 UNK        -0.0193 
     12 C12         0.9881  -18.0495  -50.4810 C.ar      23 UNK        -0.1150 
     13 C13         2.1605  -18.4709  -49.8442 C.ar      23 UNK        -0.0193 
     14 C14         2.8920  -17.5597  -49.0799 C.ar      23 UNK        -0.1150 
     15 C15         2.6747  -19.8934  -50.0115 C.3       23 UNK        -0.0205 
     16 S16         2.3517  -20.9176  -48.5421 S.3       23 UNK        -0.2404 
     17 C17         0.6054  -21.3565  -48.8054 C.3       23 UNK        -0.0398 
     18 CA          0.1467  -22.5043  -47.8769 C.3       11 UNK         0.1400 
     19 N           0.0354  -22.0883  -46.4766 N.am      11 UNK        -0.5000 
     20 C          -0.2126  -22.9191  -45.4540 C.2       10 UNK         0.5000 
     21 O          -0.2877  -24.1432  -45.5693 O.2       10 UNK        -0.5000 
     22 CA         -0.4935  -22.2679  -44.0881 C.3       10 UNK         0.1400 
     23 CB          0.8138  -21.8885  -43.3772 C.3       10 UNK        -0.1800 
     24 N          -1.3663  -21.0959  -44.2024 N.am      10 UNK        -0.5000 
     25 C          -2.6413  -21.1477  -44.6159 C.2       9 UNK         0.5000 
     26 O          -3.2237  -22.1986  -44.8785 O.2       9 UNK        -0.5000 
     27 CA         -3.3846  -19.8133  -44.8050 C.3       9 UNK         0.1400 
     28 CB         -3.9511  -19.3119  -43.4690 C.3       9 UNK        -0.1800 
     29 N          -2.5419  -18.7782  -45.3992 N.am      9 UNK        -0.5000 
     30 C          -2.0735  -18.7911  -46.6548 C.2       8 UNK         0.5000 
     31 O          -2.3649  -19.6464  -47.4918 O.2       8 UNK        -0.5000 
     32 CA         -1.0795  -17.6760  -47.0263 C.3       8 UNK         0.1400 
     33 CB         -1.8248  -16.3990  -47.4349 C.3       8 UNK        -0.1800 
     34 N          -0.1459  -17.3721  -45.9411 N.am      8 UNK        -0.5000 
     35 C           0.7518  -18.2403  -45.4537 C.2       7 UNK         0.5000 
     36 O           0.9056  -19.3806  -45.8867 O.2       7 UNK        -0.5000 
     37 CA          1.5617  -17.7783  -44.2319 C.3       7 UNK         0.1400 
     38 CB          2.7425  -16.8936  -44.6574 C.3       7 UNK        -0.1800 
     39 N           0.7192  -17.0627  -43.2723 N.am      7 UNK        -0.5000 
     40 C          -0.1973  -17.6604  -42.4951 C.2       6 UNK         0.5000 
     41 O          -0.3862  -18.8760  -42.4821 O.2       6 UNK        -0.5000 
     42 CA         -1.0808  -16.7538  -41.6150 C.3       6 UNK         0.1400 
     43 CB         -0.4079  -16.5015  -40.2578 C.3       6 UNK        -0.1800 
     44 N          -1.3932  -15.4694  -42.2415 N.am      6 UNK        -0.5000 
     45 C          -2.0722  -15.3190  -43.3875 C.2       5 UNK         0.5000 
     46 O          -2.5861  -16.2549  -43.9980 O.2       5 UNK        -0.5000 
     47 CA         -2.1436  -13.8968  -43.9811 C.3       5 UNK         0.1400 
     48 CB         -3.4852  -13.2372  -43.6304 C.3       5 UNK        -0.1800 
     49 N          -1.0477  -13.0141  -43.5609 N.am      5 UNK        -0.5000 
     50 C           0.2537  -13.2457  -43.7781 C.2       4 UNK         0.5000 
     51 O           0.6823  -14.2506  -44.3540 O.2       4 UNK        -0.5000 
     52 CA          1.2375  -12.2161  -43.2051 C.3       4 UNK         0.1400 
     53 CB          1.2595  -12.2692  -41.6655 C.3       4 UNK        -0.1800 
     54 N           2.5658  -12.5129  -43.7266 N.am      4 UNK        -0.5000 
     55 C           3.5841  -11.6554  -43.8255 C.2       3 UNK         0.5000 
     56 O           3.5262  -10.4824  -43.4502 O.2       3 UNK        -0.5000 
     57 CA          4.8865  -12.2020  -44.4500 C.3       3 UNK         0.1400 
     58 CB          4.6598  -13.2948  -45.5180 C.3       3 UNK        -0.1800 
     59 N           5.7870  -11.1514  -44.9441 N.am      3 UNK        -0.5000 
     60 C           5.6377  -10.2485  -45.9268 C.2       2 UNK         0.5000 
     61 O           6.5389   -9.4485  -46.1787 O.2       2 UNK        -0.5000 
     62 CA          4.3771  -10.2205  -46.8124 C.3       2 UNK         0.1400 
     63 CB          3.8867   -8.7823  -47.0705 C.3       2 UNK        -0.1800 
     64 N           4.7135  -10.8665  -48.0748 N.am      2 UNK        -0.5000 
     65 C           3.8372  -11.4317  -48.9104 C.2       1 UNK         0.5000 
     66 O           2.6187  -11.4456  -48.7226 O.2       1 UNK        -0.5000 
     67 C          -1.1654  -23.1300  -48.3900 C.2       11 UNK         0.5000 
     68 O          -1.1127  -24.1583  -49.0628 O.2       11 UNK        -0.5000 
     69 N          -2.3150  -22.5349  -48.0386 N.am      12 UNK        -0.5000 
     70 CA         -3.6394  -23.0477  -48.3924 C.3       12 UNK         0.1400 
     71 CB         -4.7202  -22.0191  -48.0409 C.3       12 UNK        -0.1800 
     72 C          -3.9445  -24.4021  -47.7378 C.2       12 UNK         0.5000 
     73 O          -4.4736  -25.2855  -48.4091 O.2       12 UNK        -0.5000 
     74 N          -3.5718  -24.5602  -46.4611 N.am      13 UNK        -0.5000 
     75 CA         -3.6775  -25.8144  -45.7166 C.3       13 UNK         0.1400 
     76 CB         -3.3206  -25.5752  -44.2420 C.3       13 UNK        -0.1800 
     77 C          -2.8093  -26.9305  -46.3251 C.2       13 UNK         0.5000 
     78 O          -3.2929  -28.0514  -46.4858 O.2       13 UNK        -0.5000 
     79 N          -1.5676  -26.5926  -46.7032 N.am      14 UNK        -0.5000 
     80 CA         -0.6359  -27.4877  -47.3940 C.3       14 UNK         0.1400 
     81 CB          0.7496  -26.8280  -47.4645 C.3       14 UNK        -0.1800 
     82 C          -1.1219  -27.8955  -48.7994 C.2       14 UNK         0.5000 
     83 O          -0.9612  -29.0533  -49.1865 O.2       14 UNK        -0.5000 
     84 N          -1.7345  -26.9485  -49.5222 N.am      15 UNK        -0.5000 
     85 CA         -2.3360  -27.1496  -50.8420 C.3       15 UNK         0.1400 
     86 CB         -2.4580  -25.7863  -51.5438 C.3       15 UNK        -0.1800 
     87 C          -3.7116  -27.8458  -50.8027 C.2       15 UNK         0.5000 
     88 O          -4.2524  -28.1440  -51.8668 O.2       15 UNK        -0.5000 
     89 N          -4.2805  -28.0500  -49.6048 N.am      16 UNK        -0.5000 
     90 CA         -5.6294  -28.5688  -49.3437 C.3       16 UNK         0.1400 
     91 CB         -5.7282  -30.0577  -49.7350 C.3       16 UNK        -0.1800 
     92 C          -6.7319  -27.6954  -49.9856 C.2       16 UNK         0.5000 
     93 O          -7.7008  -28.2170  -50.5398 O.2       16 UNK        -0.5000 
     94 N          -6.5313  -26.3716  -49.9137 N.am      17 UNK        -0.5000 
     95 CA         -7.3551  -25.2852  -50.4531 C.3       17 UNK         0.1400 
     96 CB         -8.7600  -25.2881  -49.8163 C.3       17 UNK        -0.1800 
     97 C          -7.4064  -25.2129  -51.9954 C.2       17 UNK         0.5000 
     98 O          -8.2092  -24.4480  -52.5323 O.2       17 UNK        -0.5000 
     99 N          -6.5452  -25.9689  -52.6930 N.am      18 UNK        -0.5000 
    100 CA        -6.4459  -25.9664  -54.1564 C.3       18 UNK         0.1400 
    101 CB        -5.8104  -27.2861  -54.6201 C.3       18 UNK        -0.1800 
    102 C         -5.6517  -24.7666  -54.7124 C.2       18 UNK         0.5000 
    103 O         -5.7084  -24.5138  -55.9168 O.2       18 UNK        -0.5000 
    104 N         -4.9214  -24.0586  -53.8442 N.am      19 UNK        -0.5000 
    105 CA        -4.0968  -22.8982  -54.1593 C.3       19 UNK         0.1400 
    106 CB        -2.7283  -23.3668  -54.6920 C.3       19 UNK        -0.1800 
    107 C         -3.9474  -22.0307  -52.8991 C.2       19 UNK         0.5000 
    108 O         -4.4093  -22.4260  -51.8249 O.2       19 UNK        -0.5000 
    109 N         -3.2864  -20.8765  -53.0627 N.am      20 UNK        -0.5000 
    110 CA        -2.9955  -19.8673  -52.0402 C.3       20 UNK         0.1400 
    111 CB        -2.0321  -20.4254  -50.9732 C.3       20 UNK        -0.1800 
    112 C         -4.2728  -19.2126  -51.4716 C.2       20 UNK         0.5000 
    113 O         -5.1876  -18.9288  -52.2475 O.2       20 UNK        -0.5000 
    114 N         -4.2883  -18.9265  -50.1584 N.am      21 UNK        -0.5000 
    115 CA        -5.3265  -18.1800  -49.4296 C.3       21 UNK         0.1400 
    116 CB        -6.6603  -18.9579  -49.4034 C.3       21 UNK        -0.1800 
    117 C         -5.4908  -16.7311  -49.9440 C.2       21 UNK         0.5000 
    118 O         -6.6018  -16.1979  -49.9657 O.2       21 UNK        -0.5000 
    119 N         -4.3726  -16.1360  -50.3766 N.am      22 UNK        -0.5000 
    120 CA        -4.2772  -14.7757  -50.9181 C.3       22 UNK         0.1400 
    121 C         -4.5653  -13.6549  -49.8746 C.2       22 UNK         0.5000 
    122 N         -4.9271  -12.4619  -50.3282 N.am      22 UNK        -0.7600 
    123 O         -4.4458  -13.8432  -48.6656 O.2       22 UNK        -0.5000 
    124 C124       -2.9302  -14.5704  -51.6629 C.3       23 UNK        -0.0398 
    125 S125       -1.4491  -14.7073  -50.5999 S.3       23 UNK        -0.2404 
    126 C126       -0.7346  -16.3133  -51.1064 C.3       23 UNK        -0.0205 
    127 H127        4.7261   -9.2429  -53.6510 H         1 UNK         0.0600 
    128 H128        3.5302   -8.4507  -52.6194 H         1 UNK         0.0600 
    129 H129        3.1600  -10.0073  -53.3665 H         1 UNK         0.0600 
    130 H130        3.2634  -11.6756  -51.8959 H         1 UNK         0.3000 
    131 H131        5.5099  -12.0663  -50.1179 H         1 UNK         0.0600 
    132 H132        2.9032  -13.6542  -50.3148 H         1 UNK         0.0800 
    133 H133        4.3003  -13.9382  -51.3079 H         1 UNK         0.0800 
    134 H134        2.6855  -14.3922  -47.8458 H         1 UNK         0.0800 
    135 H135        3.6414  -15.7220  -47.2397 H         1 UNK         0.0800 
    136 H136        0.9835  -14.8001  -49.4901 H         1 UNK         0.1150 
    137 H137        0.4326  -18.7499  -51.0877 H         1 UNK         0.1150 
    138 H138        3.8039  -17.8776  -48.5940 H         1 UNK         0.1150 
    139 H139        2.2447  -20.3618  -50.8980 H         1 UNK         0.0800 
    140 H140        3.7518  -19.8634  -50.1823 H         1 UNK         0.0800 
    141 H141        0.4978  -21.6486  -49.8513 H         1 UNK         0.0800 
    142 H142       -0.0092  -20.4673  -48.6608 H         1 UNK         0.0800 
    143 H143        0.9012  -23.2929  -47.9186 H         1 UNK         0.0600 
    144 H144        0.1571  -21.0966  -46.2861 H         1 UNK         0.3000 
    145 H145       -1.0084  -23.0064  -43.4701 H         1 UNK         0.0600 
    146 H146        0.6193  -21.4908  -42.3811 H         1 UNK         0.0600 
    147 H147        1.4590  -22.7598  -43.2590 H         1 UNK         0.0600 
    148 H148        1.3757  -21.1387  -43.9333 H         1 UNK         0.0600 
    149 H149       -0.9656  -20.2015  -43.9427 H         1 UNK         0.3000 
    150 H150       -4.2224  -19.9905  -45.4821 H         1 UNK         0.0600 
    151 H151       -4.6160  -20.0534  -43.0243 H         1 UNK         0.0600 
    152 H152       -4.5275  -18.3964  -43.6041 H         1 UNK         0.0600 
    153 H153       -3.1601  -19.1055  -42.7481 H         1 UNK         0.0600 
    154 H154       -2.3171  -17.9823  -44.8090 H         1 UNK         0.3000 
    155 H155       -0.4941  -18.0214  -47.8803 H         1 UNK         0.0600 
    156 H156       -2.4678  -16.0257  -46.6384 H         1 UNK         0.0600 
    157 H157       -2.4581  -16.5826  -48.3018 H         1 UNK         0.0600 
    158 H158       -1.1286  -15.6041  -47.7016 H         1 UNK         0.0600 
    159 H159       -0.2176  -16.4599  -45.5134 H         1 UNK         0.3000 
    160 H160        1.9671  -18.6653  -43.7405 H         1 UNK         0.0600 
    161 H161        2.4088  -16.0048  -45.1916 H         1 UNK         0.0600 
    162 H162        3.4147  -17.4396  -45.3206 H         1 UNK         0.0600 
    163 H163        3.3260  -16.5699  -43.7955 H         1 UNK         0.0600 
    164 H164        0.7707  -16.0513  -43.2909 H         1 UNK         0.3000 
    165 H165       -2.0223  -17.2778  -41.4390 H         1 UNK         0.0600 
    166 H166       -1.0579  -15.9300  -39.5951 H         1 UNK         0.0600 
    167 H167       -0.1794  -17.4422  -39.7549 H         1 UNK         0.0600 
    168 H168        0.5279  -15.9518  -40.3677 H         1 UNK         0.0600 
    169 H169       -1.0129  -14.6452  -41.8017 H         1 UNK         0.3000 
    170 H170       -2.0863  -13.9982  -45.0668 H         1 UNK         0.0600 
    171 H171       -4.3220  -13.8574  -43.9551 H         1 UNK         0.0600 
    172 H172       -3.5888  -13.0821  -42.5557 H         1 UNK         0.0600 
    173 H173       -3.5907  -12.2702  -44.1226 H         1 UNK         0.0600 
    174 H174       -1.3177  -12.1729  -43.0713 H         1 UNK         0.3000 
    175 H175        0.9273  -11.2241  -43.5403 H         1 UNK         0.0600 
    176 H176        1.5525  -13.2553  -41.3025 H         1 UNK         0.0600 
    177 H177        1.9598  -11.5421  -41.2542 H         1 UNK         0.0600 
    178 H178        0.2796  -12.0406  -41.2452 H         1 UNK         0.0600 
    179 H179        2.6478  -13.4466  -44.1099 H         1 UNK         0.3000 
    180 H180        5.4273  -12.6705  -43.6265 H         1 UNK         0.0600 
    181 H181        3.9300  -12.9988  -46.2694 H         1 UNK         0.0600 
    182 H182        4.2977  -14.2169  -45.0629 H         1 UNK         0.0600 
    183 H183        5.5869  -13.5436  -46.0349 H         1 UNK         0.0600 
    184 H184        6.6417  -11.0824  -44.4112 H         1 UNK         0.3000 
    185 H185        3.5582  -10.7573  -46.3403 H         1 UNK         0.0600 
    186 H186        3.6875   -8.2663  -46.1305 H         1 UNK         0.0600 
    187 H187        4.6223   -8.1952  -47.6217 H         1 UNK         0.0600 
    188 H188        2.9605   -8.7774  -47.6453 H         1 UNK         0.0600 
    189 H189        5.6991  -10.8772  -48.3026 H         1 UNK         0.3000 
    190 H190       -2.2851  -21.6607  -47.5252 H         1 UNK         0.3000 
    191 H191       -3.6547  -23.1975  -49.4722 H         1 UNK         0.0600 
    192 H192       -4.8135  -21.8734  -46.9656 H         1 UNK         0.0600 
    193 H193       -5.6936  -22.3382  -48.4149 H         1 UNK         0.0600 
    194 H194       -4.4975  -21.0546  -48.4904 H         1 UNK         0.0600 
    195 H195       -3.2038  -23.7568  -45.9581 H         1 UNK         0.3000 
    196 H196       -4.7186  -26.1403  -45.7641 H         1 UNK         0.0600 
    197 H197       -3.4255  -26.4925  -43.6615 H         1 UNK         0.0600 
    198 H198       -3.9774  -24.8290  -43.7945 H         1 UNK         0.0600 
    199 H199       -2.2941  -25.2280  -44.1248 H         1 UNK         0.0600 
    200 H200       -1.2343  -25.6549  -46.5002 H         1 UNK         0.3000 
    201 H201       -0.5469  -28.3984  -46.7982 H         1 UNK         0.0600 
    202 H202        1.1278  -26.5984  -46.4681 H         1 UNK         0.0600 
    203 H203        0.7256  -25.8988  -48.0340 H         1 UNK         0.0600 
    204 H204        1.4730  -27.4887  -47.9437 H         1 UNK         0.0600 
    205 H205       -1.7565  -25.9993  -49.1599 H         1 UNK         0.3000 
    206 H206       -1.6706  -27.7792  -51.4360 H         1 UNK         0.0600 
    207 H207       -1.4873  -25.2982  -51.6316 H         1 UNK         0.0600 
    208 H208       -2.8557  -25.8981  -52.5532 H         1 UNK         0.0600 
    209 H209       -3.1227  -25.1127  -51.0016 H         1 UNK         0.0600 
    210 H210       -3.7724  -27.7347  -48.7887 H         1 UNK         0.3000 
    211 H211       -5.7769  -28.5002  -48.2650 H         1 UNK         0.0600 
    212 H212       -5.6443  -30.2016  -50.8125 H         1 UNK         0.0600 
    213 H213       -6.6836  -30.4806  -49.4225 H         1 UNK         0.0600 
    214 H214       -4.9430  -30.6427  -49.2562 H         1 UNK         0.0600 
    215 H215       -5.6980  -26.0570  -49.4151 H         1 UNK         0.3000 
    216 H216       -6.8594  -24.3659  -50.1371 H         1 UNK         0.0600 
    217 H217       -9.3139  -24.3877  -50.0842 H         1 UNK         0.0600 
    218 H218       -8.6995  -25.3168  -48.7284 H         1 UNK         0.0600 
    219 H219       -9.3523  -26.1429  -50.1435 H         1 UNK         0.0600 
    220 H220       -5.9237  -26.5959  -52.1976 H         1 UNK         0.3000 
    221 H221       -7.4536  -25.9160  -54.5742 H         1 UNK         0.0600 
    222 H222       -4.7626  -27.3525  -54.3261 H         1 UNK         0.0600 
    223 H223       -6.3331  -28.1477  -54.2041 H         1 UNK         0.0600 
    224 H224       -5.8484  -27.3753  -55.7064 H         1 UNK         0.0600 
    225 H225       -4.9805  -24.2696  -52.8567 H         1 UNK         0.3000 
    226 H226       -4.5995  -22.2963  -54.9191 H         1 UNK         0.0600 
    227 H227       -2.8404  -24.0096  -55.5652 H         1 UNK         0.0600 
    228 H228       -2.1092  -22.5223  -54.9957 H         1 UNK         0.0600 
    229 H229       -2.1737  -23.9242  -53.9367 H         1 UNK         0.0600 
    230 H230       -2.9822  -20.6359  -53.9953 H         1 UNK         0.3000 
    231 H231       -2.4668  -19.0663  -52.5589 H         1 UNK         0.0600 
    232 H232       -1.1467  -20.8562  -51.4398 H         1 UNK         0.0600 
    233 H233       -2.5049  -21.2044  -50.3796 H         1 UNK         0.0600 
    234 H234       -1.6905  -19.6470  -50.2910 H         1 UNK         0.0600 
    235 H235       -3.5037  -19.2301  -49.5956 H         1 UNK         0.3000 
    236 H236       -4.9750  -18.0981  -48.3998 H         1 UNK         0.0600 
    237 H237       -7.3802  -18.4743  -48.7423 H         1 UNK         0.0600 
    238 H238       -7.1159  -19.0163  -50.3921 H         1 UNK         0.0600 
    239 H239       -6.5253  -19.9748  -49.0396 H         1 UNK         0.0600 
    240 H240       -3.5020  -16.6335  -50.2905 H         1 UNK         0.3000 
    241 H241       -5.0674  -14.6973  -51.6675 H         1 UNK         0.0600 
    242 H242       -5.0338  -12.2761  -51.3135 H         1 UNK         0.3800 
    243 H243       -5.1087  -11.7240  -49.6655 H         1 UNK         0.3800 
    244 H244       -2.8519  -15.2864  -52.4821 H         1 UNK         0.0800 
    245 H245       -2.9108  -13.5887  -52.1385 H         1 UNK         0.0800 
    246 H246       -0.5105  -16.2751  -52.1733 H         1 UNK         0.0800 
    247 H247       -1.4908  -17.0866  -50.9712 H         1 UNK         0.0800 
@<TRIPOS>BOND
     1    1    2 1    
     2    1  127 1    
     3    1  128 1    
     4    1  129 1    
     5    2    3 2    
     6    2    4 am   BACKBONE|DICT|INTERRES
     7    4    5 1    
     8    4  130 1    
     9    5    6 1    
    10    5   65 1    
    11    5  131 1    
    12    6    7 1    
    13    6  132 1    
    14    6  133 1    
    15    7    8 1    
    16    8    9 1    
    17    8  134 1    
    18    8  135 1    
    19    9   10 ar   
    20    9   14 ar   
    21   10   11 ar   
    22   10  136 1    
    23   11   12 ar   
    24   11  126 1    
    25   12   13 ar   
    26   12  137 1    
    27   13   14 ar   
    28   13   15 1    
    29   14  138 1    
    30   15   16 1    
    31   15  139 1    
    32   15  140 1    
    33   16   17 1    
    34   17   18 1    
    35   17  141 1    
    36   17  142 1    
    37   18   19 1    
    38   18   67 1    
    39   18  143 1    
    40   19   20 am   BACKBONE|DICT|INTERRES
    41   19  144 1    
    42   20   21 2    
    43   20   22 1    
    44   22   23 1    
    45   22   24 1    
    46   22  145 1    
    47   23  146 1    
    48   23  147 1    
    49   23  148 1    
    50   24   25 am   BACKBONE|DICT|INTERRES
    51   24  149 1    
    52   25   26 2    
    53   25   27 1    
    54   27   28 1    
    55   27   29 1    
    56   27  150 1    
    57   28  151 1    
    58   28  152 1    
    59   28  153 1    
    60   29   30 am   BACKBONE|DICT|INTERRES
    61   29  154 1    
    62   30   31 2    
    63   30   32 1    
    64   32   33 1    
    65   32   34 1    
    66   32  155 1    
    67   33  156 1    
    68   33  157 1    
    69   33  158 1    
    70   34   35 am   BACKBONE|DICT|INTERRES
    71   34  159 1    
    72   35   36 2    
    73   35   37 1    
    74   37   38 1    
    75   37   39 1    
    76   37  160 1    
    77   38  161 1    
    78   38  162 1    
    79   38  163 1    
    80   39   40 am   BACKBONE|DICT|INTERRES
    81   39  164 1    
    82   40   41 2    
    83   40   42 1    
    84   42   43 1    
    85   42   44 1    
    86   42  165 1    
    87   43  166 1    
    88   43  167 1    
    89   43  168 1    
    90   44   45 am   BACKBONE|DICT|INTERRES
    91   44  169 1    
    92   45   46 2    
    93   45   47 1    
    94   47   48 1    
    95   47   49 1    
    96   47  170 1    
    97   48  171 1    
    98   48  172 1    
    99   48  173 1    
   100   49   50 am   BACKBONE|DICT|INTERRES
   101   49  174 1    
   102   50   51 2    
   103   50   52 1    
   104   52   53 1    
   105   52   54 1    
   106   52  175 1    
   107   53  176 1    
   108   53  177 1    
   109   53  178 1    
   110   54   55 am   BACKBONE|DICT|INTERRES
   111   54  179 1    
   112   55   56 2    
   113   55   57 1    
   114   57   58 1    
   115   57   59 1    
   116   57  180 1    
   117   58  181 1    
   118   58  182 1    
   119   58  183 1    
   120   59   60 am   BACKBONE|DICT|INTERRES
   121   59  184 1    
   122   60   61 2    
   123   60   62 1    
   124   62   63 1    
   125   62   64 1    
   126   62  185 1    
   127   63  186 1    
   128   63  187 1    
   129   63  188 1    
   130   64   65 am   BACKBONE|DICT|INTERRES
   131   64  189 1    
   132   65   66 2    
   133   67   68 2    
   134   67   69 am   BACKBONE|DICT|INTERRES
   135   69   70 1    
   136   69  190 1    
   137   70   71 1    
   138   70   72 1    
   139   70  191 1    
   140   71  192 1    
   141   71  193 1    
   142   71  194 1    
   143   72   73 2    
   144   72   74 am   BACKBONE|DICT|INTERRES
   145   74   75 1    
   146   74  195 1    
   147   75   76 1    
   148   75   77 1    
   149   75  196 1    
   150   76  197 1    
   151   76  198 1    
   152   76  199 1    
   153   77   78 2    
   154   77   79 am   BACKBONE|DICT|INTERRES
   155   79   80 1    
   156   79  200 1    
   157   80   81 1    
   158   80   82 1    
   159   80  201 1    
   160   81  202 1    
   161   81  203 1    
   162   81  204 1    
   163   82   83 2    
   164   82   84 am   BACKBONE|DICT|INTERRES
   165   84   85 1    
   166   84  205 1    
   167   85   86 1    
   168   85   87 1    
   169   85  206 1    
   170   86  207 1    
   171   86  208 1    
   172   86  209 1    
   173   87   88 2    
   174   87   89 am   BACKBONE|DICT|INTERRES
   175   89   90 1    
   176   89  210 1    
   177   90   91 1    
   178   90   92 1    
   179   90  211 1    
   180   91  212 1    
   181   91  213 1    
   182   91  214 1    
   183   92   93 2    
   184   92   94 am   BACKBONE|DICT|INTERRES
   185   94   95 1    
   186   94  215 1    
   187   95   96 1    
   188   95   97 1    
   189   95  216 1    
   190   96  217 1    
   191   96  218 1    
   192   96  219 1    
   193   97   98 2    
   194   97   99 am   BACKBONE|DICT|INTERRES
   195   99  100 1    
   196   99  220 1    
   197  100  101 1    
   198  100  102 1    
   199  100  221 1    
   200  101  222 1    
   201  101  223 1    
   202  101  224 1    
   203  102  103 2    
   204  102  104 am   BACKBONE|DICT|INTERRES
   205  104  105 1    
   206  104  225 1    
   207  105  106 1    
   208  105  107 1    
   209  105  226 1    
   210  106  227 1    
   211  106  228 1    
   212  106  229 1    
   213  107  108 2    
   214  107  109 am   BACKBONE|DICT|INTERRES
   215  109  110 1    
   216  109  230 1    
   217  110  111 1    
   218  110  112 1    
   219  110  231 1    
   220  111  232 1    
   221  111  233 1    
   222  111  234 1    
   223  112  113 2    
   224  112  114 am   BACKBONE|DICT|INTERRES
   225  114  115 1    
   226  114  235 1    
   227  115  116 1    
   228  115  117 1    
   229  115  236 1    
   230  116  237 1    
   231  116  238 1    
   232  116  239 1    
   233  117  118 2    
   234  117  119 am   BACKBONE|DICT|INTERRES
   235  119  120 1    
   236  119  240 1    
   237  120  121 1    
   238  120  124 1    
   239  120  241 1    
   240  121  122 am   BACKBONE|DICT|INTERRES
   241  121  123 2    
   242  122  242 1    
   243  122  243 1    
   244  124  125 1    
   245  124  244 1    
   246  124  245 1    
   247  125  126 1    
   248  126  246 1    
   249  126  247 1    
@<TRIPOS>SUBSTRUCTURE
     1 UNK         1 GROUP             0       ****    0 ROOT    
