@<TRIPOS>MOLECULE
3R540
247   249    1
SMALL
USER_CHARGES


@<TRIPOS>ATOM
      1 CA          5.3779  -10.4643  -45.5547 C.3       0 UNK        -0.1800 
      2 C           5.5349  -11.9518  -45.8324 C.2       0 UNK         0.5000 
      3 O           6.6299  -12.4920  -45.6719 O.2       0 UNK        -0.5000 
      4 N           4.4452  -12.6129  -46.2445 N.am      1 UNK        -0.5000 
      5 CA          4.3510  -14.0545  -46.5077 C.3       1 UNK         0.1400 
      6 C6          2.9517  -14.4664  -47.0273 C.3       23 UNK        -0.0398 
      7 S7          2.4446  -13.5032  -48.4925 S.3       23 UNK        -0.2404 
      8 C8          2.8739  -14.6304  -49.8583 C.3       23 UNK        -0.0205 
      9 C9          1.9031  -15.7966  -49.9848 C.ar      23 UNK        -0.0193 
     10 C10         0.5411  -15.5560  -50.1909 C.ar      23 UNK        -0.1150 
     11 C11        -0.3565  -16.6177  -50.3206 C.ar      23 UNK        -0.0193 
     12 C12         0.1189  -17.9303  -50.2590 C.ar      23 UNK        -0.1150 
     13 C13         1.4802  -18.1871  -50.0709 C.ar      23 UNK        -0.0193 
     14 C14         2.3674  -17.1151  -49.9304 C.ar      23 UNK        -0.1150 
     15 C15         1.9875  -19.6241  -50.0410 C.3       23 UNK        -0.0205 
     16 S16         2.6650  -20.1172  -48.4205 S.3       23 UNK        -0.2404 
     17 C17         1.2626  -19.8102  -47.2961 C.3       23 UNK        -0.0398 
     18 CA          0.4334  -21.0685  -46.9476 C.3       11 UNK         0.1400 
     19 N          -0.3912  -20.8362  -45.7634 N.am      11 UNK        -0.5000 
     20 C          -1.1622  -21.7390  -45.1447 C.2       10 UNK         0.5000 
     21 O          -1.2205  -22.9267  -45.4599 O.2       10 UNK        -0.5000 
     22 CA         -2.0553  -21.2037  -44.0115 C.3       10 UNK         0.1400 
     23 CB         -1.2776  -21.1274  -42.6888 C.3       10 UNK        -0.1800 
     24 N          -2.6170  -19.8883  -44.3269 N.am      10 UNK        -0.5000 
     25 C          -3.5236  -19.6601  -45.2878 C.2       9 UNK         0.5000 
     26 O          -4.0081  -20.5428  -45.9952 O.2       9 UNK        -0.5000 
     27 CA         -3.9196  -18.1915  -45.5259 C.3       9 UNK         0.1400 
     28 CB         -4.9034  -17.7080  -44.4502 C.3       9 UNK        -0.1800 
     29 N          -2.7612  -17.2983  -45.5614 N.am      9 UNK        -0.5000 
     30 C          -1.8103  -17.3332  -46.5063 C.2       8 UNK         0.5000 
     31 O          -1.8281  -18.1084  -47.4619 O.2       8 UNK        -0.5000 
     32 CA         -0.6150  -16.3756  -46.3231 C.3       8 UNK         0.1400 
     33 CB         -0.9659  -14.9914  -46.8869 C.3       8 UNK        -0.1800 
     34 N          -0.1837  -16.2298  -44.9279 N.am      8 UNK        -0.5000 
     35 C           0.1331  -17.2395  -44.1004 C.2       7 UNK         0.5000 
     36 O           0.1665  -18.4148  -44.4587 O.2       7 UNK        -0.5000 
     37 CA          0.4274  -16.9195  -42.6208 C.3       7 UNK         0.1400 
     38 CB          1.8991  -17.2010  -42.2890 C.3       7 UNK        -0.1800 
     39 N           0.1111  -15.5493  -42.2243 N.am      7 UNK        -0.5000 
     40 C          -1.1102  -14.9995  -42.1736 C.2       6 UNK         0.5000 
     41 O          -2.1497  -15.6213  -42.3963 O.2       6 UNK        -0.5000 
     42 CA         -1.1656  -13.4862  -41.8757 C.3       6 UNK         0.1400 
     43 CB         -1.5131  -13.2414  -40.4001 C.3       6 UNK        -0.1800 
     44 N           0.0866  -12.7882  -42.1903 N.am      6 UNK        -0.5000 
     45 C           0.6363  -12.6798  -43.4070 C.2       5 UNK         0.5000 
     46 O           0.1089  -13.1203  -44.4276 O.2       5 UNK        -0.5000 
     47 CA          2.0393  -12.0532  -43.4941 C.3       5 UNK         0.1400 
     48 CB          1.9845  -10.5146  -43.4688 C.3       5 UNK        -0.1800 
     49 N           2.9906  -12.5918  -42.5115 N.am      5 UNK        -0.5000 
     50 C           3.0153  -12.4174  -41.1813 C.2       4 UNK         0.5000 
     51 O           2.1899  -11.7433  -40.5639 O.2       4 UNK        -0.5000 
     52 CA          4.1173  -13.1498  -40.3941 C.3       4 UNK         0.1400 
     53 CB          3.5785  -14.4775  -39.8416 C.3       4 UNK        -0.1800 
     54 N           5.3235  -13.4236  -41.1743 N.am      4 UNK        -0.5000 
     55 C           6.2119  -12.5110  -41.5844 C.2       3 UNK         0.5000 
     56 O           6.0952  -11.3051  -41.3644 O.2       3 UNK        -0.5000 
     57 CA          7.4351  -13.0154  -42.3783 C.3       3 UNK         0.1400 
     58 CB          8.6207  -13.3199  -41.4431 C.3       3 UNK        -0.1800 
     59 N           7.1567  -14.1383  -43.2848 N.am      3 UNK        -0.5000 
     60 C           6.8289  -15.4087  -42.9997 C.2       2 UNK         0.5000 
     61 O           6.7482  -15.8502  -41.8526 O.2       2 UNK        -0.5000 
     62 CA          6.4809  -16.3149  -44.2042 C.3       2 UNK         0.1400 
     63 CB          5.6374  -17.5435  -43.8064 C.3       2 UNK        -0.1800 
     64 N           5.8402  -15.5866  -45.3078 N.am      2 UNK        -0.5000 
     65 C           4.7167  -14.8562  -45.2432 C.2       1 UNK         0.5000 
     66 O           4.0183  -14.7409  -44.2331 O.2       1 UNK        -0.5000 
     67 C          -0.4229  -21.5561  -48.1340 C.2       11 UNK         0.5000 
     68 O          -0.1219  -22.6044  -48.7024 O.2       11 UNK        -0.5000 
     69 N          -1.5063  -20.8296  -48.4475 N.am      12 UNK        -0.5000 
     70 CA         -2.4761  -21.1990  -49.4805 C.3       12 UNK         0.1400 
     71 CB         -3.4852  -20.0618  -49.6757 C.3       12 UNK        -0.1800 
     72 C          -3.2075  -22.5200  -49.1870 C.2       12 UNK         0.5000 
     73 O          -3.3741  -23.3334  -50.0980 O.2       12 UNK        -0.5000 
     74 N          -3.6017  -22.7261  -47.9225 N.am      13 UNK        -0.5000 
     75 CA         -4.2443  -23.9521  -47.4460 C.3       13 UNK         0.1400 
     76 CB         -4.7046  -23.7714  -45.9925 C.3       13 UNK        -0.1800 
     77 C          -3.3516  -25.2000  -47.5831 C.2       13 UNK         0.5000 
     78 O          -3.8683  -26.2806  -47.8624 O.2       13 UNK        -0.5000 
     79 N          -2.0361  -25.0293  -47.4044 N.am      14 UNK        -0.5000 
     80 CA         -1.0379  -26.0741  -47.6094 C.3       14 UNK         0.1400 
     81 CB          0.2335  -25.7238  -46.8200 C.3       14 UNK        -0.1800 
     82 C          -0.7155  -26.2864  -49.0999 C.2       14 UNK         0.5000 
     83 O          -0.6719  -27.4312  -49.5523 O.2       14 UNK        -0.5000 
     84 N          -0.4625  -25.1886  -49.8255 N.am      15 UNK        -0.5000 
     85 CA          0.0365  -25.2062  -51.2003 C.3       15 UNK         0.1400 
     86 CB          0.6456  -23.8361  -51.5406 C.3       15 UNK        -0.1800 
     87 C          -1.0221  -25.5926  -52.2461 C.2       15 UNK         0.5000 
     88 O          -0.7194  -26.3849  -53.1399 O.2       15 UNK        -0.5000 
     89 N          -2.2205  -25.0068  -52.1409 N.am      16 UNK        -0.5000 
     90 CA         -3.2902  -25.1341  -53.1326 C.3       16 UNK         0.1400 
     91 CB         -3.6555  -23.7355  -53.6464 C.3       16 UNK        -0.1800 
     92 C          -4.5341  -25.8227  -52.5586 C.2       16 UNK         0.5000 
     93 O          -5.1929  -26.5709  -53.2826 O.2       16 UNK        -0.5000 
     94 N          -4.8417  -25.5603  -51.2800 N.am      17 UNK        -0.5000 
     95 CA         -6.0049  -26.0691  -50.5500 C.3       17 UNK         0.1400 
     96 CB         -5.8603  -27.5885  -50.2949 C.3       17 UNK        -0.1800 
     97 C          -7.3217  -25.6668  -51.2483 C.2       17 UNK         0.5000 
     98 O          -7.6028  -24.4726  -51.3675 O.2       17 UNK        -0.5000 
     99 N          -8.0865  -26.6606  -51.7170 N.am      18 UNK        -0.5000 
    100 CA        -9.3624  -26.5018  -52.4132 C.3       18 UNK         0.1400 
    101 CB       -10.0514  -27.8730  -52.4930 C.3       18 UNK        -0.1800 
    102 C         -9.2524  -25.8731  -53.8170 C.2       18 UNK         0.5000 
    103 O        -10.2722  -25.4261  -54.3448 O.2       18 UNK        -0.5000 
    104 N         -8.0465  -25.8277  -54.4051 N.am      19 UNK        -0.5000 
    105 CA        -7.7719  -25.2603  -55.7305 C.3       19 UNK         0.1400 
    106 CB        -6.4699  -25.8692  -56.2813 C.3       19 UNK        -0.1800 
    107 C         -7.7522  -23.7144  -55.7239 C.2       19 UNK         0.5000 
    108 O         -6.7607  -23.1043  -56.1247 O.2       19 UNK        -0.5000 
    109 N         -8.8565  -23.1161  -55.2555 N.am      20 UNK        -0.5000 
    110 CA        -9.1494  -21.6802  -55.1618 C.3       20 UNK         0.1400 
    111 CB        -9.2065  -21.0433  -56.5662 C.3       20 UNK        -0.1800 
    112 C         -8.2337  -20.8933  -54.1980 C.2       20 UNK         0.5000 
    113 O         -8.1832  -19.6637  -54.2843 O.2       20 UNK        -0.5000 
    114 N         -7.5460  -21.5987  -53.2857 N.am      21 UNK        -0.5000 
    115 CA        -6.5957  -21.0737  -52.3005 C.3       21 UNK         0.1400 
    116 CB        -7.3571  -20.3620  -51.1594 C.3       21 UNK        -0.1800 
    117 C         -5.4978  -20.2148  -52.9697 C.2       21 UNK         0.5000 
    118 O         -4.7813  -20.7264  -53.8297 O.2       21 UNK        -0.5000 
    119 N         -5.3891  -18.9357  -52.5881 N.am      22 UNK        -0.5000 
    120 CA        -4.4647  -17.9658  -53.1994 C.3       22 UNK         0.1400 
    121 C         -4.9373  -17.3968  -54.5744 C.2       22 UNK         0.5000 
    122 N         -6.1229  -17.7281  -55.0734 N.am      22 UNK        -0.7600 
    123 O         -4.2102  -16.6404  -55.2119 O.2       22 UNK        -0.5000 
    124 C124       -4.0742  -16.8372  -52.2011 C.3       23 UNK        -0.0398 
    125 S125       -2.2905  -16.4467  -52.2805 S.3       23 UNK        -0.2404 
    126 C126       -1.8397  -16.3532  -50.5208 C.3       23 UNK        -0.0205 
    127 H127        5.5589  -10.2617  -44.4989 H         1 UNK         0.0600 
    128 H128        4.3779  -10.1084  -45.8037 H         1 UNK         0.0600 
    129 H129        6.0978   -9.8943  -46.1418 H         1 UNK         0.0600 
    130 H130        3.5901  -12.0991  -46.3972 H         1 UNK         0.3000 
    131 H131        5.0777  -14.2851  -47.2894 H         1 UNK         0.0600 
    132 H132        2.9246  -15.5312  -47.2656 H         1 UNK         0.0800 
    133 H133        2.1982  -14.3124  -46.2527 H         1 UNK         0.0800 
    134 H134        2.8608  -14.0668  -50.7920 H         1 UNK         0.0800 
    135 H135        3.8985  -14.9817  -49.7274 H         1 UNK         0.0800 
    136 H136        0.1798  -14.5385  -50.2436 H         1 UNK         0.1150 
    137 H137       -0.5754  -18.7517  -50.3636 H         1 UNK         0.1150 
    138 H138        3.4204  -17.3124  -49.7854 H         1 UNK         0.1150 
    139 H139        1.1965  -20.3205  -50.3233 H         1 UNK         0.0800 
    140 H140        2.7686  -19.7369  -50.7938 H         1 UNK         0.0800 
    141 H141        0.6268  -19.0160  -47.6819 H         1 UNK         0.0800 
    142 H142        1.7029  -19.4065  -46.3838 H         1 UNK         0.0800 
    143 H143        1.1265  -21.8724  -46.6908 H         1 UNK         0.0600 
    144 H144       -0.3631  -19.8946  -45.3783 H         1 UNK         0.3000 
    145 H145       -2.8833  -21.9025  -43.8780 H         1 UNK         0.0600 
    146 H146       -1.9208  -20.8009  -41.8716 H         1 UNK         0.0600 
    147 H147       -0.8780  -22.1052  -42.4167 H         1 UNK         0.0600 
    148 H148       -0.4365  -20.4364  -42.7507 H         1 UNK         0.0600 
    149 H149       -2.2318  -19.0995  -43.8295 H         1 UNK         0.3000 
    150 H150       -4.4196  -18.1358  -46.4953 H         1 UNK         0.0600 
    151 H151       -5.7791  -18.3566  -44.4018 H         1 UNK         0.0600 
    152 H152       -5.2579  -16.7000  -44.6663 H         1 UNK         0.0600 
    153 H153       -4.4465  -17.6962  -43.4597 H         1 UNK         0.0600 
    154 H154       -2.6607  -16.6462  -44.7957 H         1 UNK         0.3000 
    155 H155        0.2252  -16.7756  -46.8935 H         1 UNK         0.0600 
    156 H156       -0.0963  -14.3366  -46.9046 H         1 UNK         0.0600 
    157 H157       -1.7401  -14.5005  -46.2960 H         1 UNK         0.0600 
    158 H158       -1.3327  -15.0630  -47.9097 H         1 UNK         0.0600 
    159 H159       -0.1687  -15.2839  -44.5659 H         1 UNK         0.3000 
    160 H160       -0.1910  -17.5932  -42.0243 H         1 UNK         0.0600 
    161 H161        2.5590  -16.4866  -42.7806 H         1 UNK         0.0600 
    162 H162        2.1960  -18.2004  -42.6102 H         1 UNK         0.0600 
    163 H163        2.0771  -17.1438  -41.2153 H         1 UNK         0.0600 
    164 H164        0.8986  -14.9471  -42.0385 H         1 UNK         0.3000 
    165 H165       -1.9558  -13.0577  -42.4954 H         1 UNK         0.0600 
    166 H166       -1.6292  -12.1772  -40.1939 H         1 UNK         0.0600 
    167 H167       -2.4522  -13.7279  -40.1329 H         1 UNK         0.0600 
    168 H168       -0.7400  -13.6295  -39.7357 H         1 UNK         0.0600 
    169 H169        0.6078  -12.3958  -41.4106 H         1 UNK         0.3000 
    170 H170        2.4364  -12.3426  -44.4656 H         1 UNK         0.0600 
    171 H171        1.3897  -10.1357  -44.3006 H         1 UNK         0.0600 
    172 H172        1.5360  -10.1338  -42.5511 H         1 UNK         0.0600 
    173 H173        2.9815  -10.0834  -43.5577 H         1 UNK         0.0600 
    174 H174        3.6609  -13.2462  -42.9040 H         1 UNK         0.3000 
    175 H175        4.3944  -12.5142  -39.5505 H         1 UNK         0.0600 
    176 H176        3.3386  -15.1734  -40.6451 H         1 UNK         0.0600 
    177 H177        4.3089  -14.9584  -39.1907 H         1 UNK         0.0600 
    178 H178        2.6720  -14.3233  -39.2547 H         1 UNK         0.0600 
    179 H179        5.5344  -14.3963  -41.3736 H         1 UNK         0.3000 
    180 H180        7.7380  -12.1921  -43.0271 H         1 UNK         0.0600 
    181 H181        9.5000  -13.6282  -42.0085 H         1 UNK         0.0600 
    182 H182        8.3868  -14.1084  -40.7276 H         1 UNK         0.0600 
    183 H183        8.8974  -12.4348  -40.8690 H         1 UNK         0.0600 
    184 H184        7.1165  -13.8626  -44.2615 H         1 UNK         0.3000 
    185 H185        7.4335  -16.6807  -44.5898 H         1 UNK         0.0600 
    186 H186        5.4047  -18.1614  -44.6736 H         1 UNK         0.0600 
    187 H187        6.1730  -18.1726  -43.0947 H         1 UNK         0.0600 
    188 H188        4.6973  -17.2526  -43.3402 H         1 UNK         0.0600 
    189 H189        6.3620  -15.5800  -46.1734 H         1 UNK         0.3000 
    190 H190       -1.6839  -19.9612  -47.9487 H         1 UNK         0.3000 
    191 H191       -1.9323  -21.3328  -50.4180 H         1 UNK         0.0600 
    192 H192       -3.0127  -19.2015  -50.1433 H         1 UNK         0.0600 
    193 H193       -3.9247  -19.7397  -48.7311 H         1 UNK         0.0600 
    194 H194       -4.2991  -20.3736  -50.3270 H         1 UNK         0.0600 
    195 H195       -3.4807  -21.9825  -47.2411 H         1 UNK         0.3000 
    196 H196       -5.1332  -24.1091  -48.0576 H         1 UNK         0.0600 
    197 H197       -3.8637  -23.5912  -45.3239 H         1 UNK         0.0600 
    198 H198       -5.3960  -22.9341  -45.8978 H         1 UNK         0.0600 
    199 H199       -5.2226  -24.6618  -45.6342 H         1 UNK         0.0600 
    200 H200       -1.6964  -24.1206  -47.1088 H         1 UNK         0.3000 
    201 H201       -1.4267  -27.0146  -47.2130 H         1 UNK         0.0600 
    202 H202        0.6622  -24.7741  -47.1421 H         1 UNK         0.0600 
    203 H203        0.9979  -26.4911  -46.9484 H         1 UNK         0.0600 
    204 H204        0.0238  -25.6474  -45.7529 H         1 UNK         0.0600 
    205 H205       -0.4848  -24.2794  -49.3680 H         1 UNK         0.3000 
    206 H206        0.8384  -25.9456  -51.2565 H         1 UNK         0.0600 
    207 H207        1.4620  -23.5879  -50.8620 H         1 UNK         0.0600 
    208 H208        1.0510  -23.8276  -52.5532 H         1 UNK         0.0600 
    209 H209       -0.0955  -23.0384  -51.4765 H         1 UNK         0.0600 
    210 H210       -2.4054  -24.3929  -51.3529 H         1 UNK         0.3000 
    211 H211       -2.9613  -25.7277  -53.9880 H         1 UNK         0.0600 
    212 H212       -4.4736  -23.7758  -54.3668 H         1 UNK         0.0600 
    213 H213       -2.8081  -23.2631  -54.1430 H         1 UNK         0.0600 
    214 H214       -3.9689  -23.0835  -52.8311 H         1 UNK         0.0600 
    215 H215       -4.2803  -24.8729  -50.7865 H         1 UNK         0.3000 
    216 H216       -6.0128  -25.5720  -49.5813 H         1 UNK         0.0600 
    217 H217       -6.6704  -27.9604  -49.6664 H         1 UNK         0.0600 
    218 H218       -5.8569  -28.1700  -51.2172 H         1 UNK         0.0600 
    219 H219       -4.9285  -27.8080  -49.7745 H         1 UNK         0.0600 
    220 H220       -7.7546  -27.6074  -51.6028 H         1 UNK         0.3000 
    221 H221       -9.9903  -25.8394  -51.8138 H         1 UNK         0.0600 
    222 H222      -10.2130  -28.2926  -51.4998 H         1 UNK         0.0600 
    223 H223       -9.4603  -28.5868  -53.0682 H         1 UNK         0.0600 
    224 H224      -11.0282  -27.7943  -52.9723 H         1 UNK         0.0600 
    225 H225       -7.2448  -26.1881  -53.8997 H         1 UNK         0.3000 
    226 H226       -8.5766  -25.5619  -56.4043 H         1 UNK         0.0600 
    227 H227       -5.6015  -25.5646  -55.6976 H         1 UNK         0.0600 
    228 H228       -6.5098  -26.9585  -56.2795 H         1 UNK         0.0600 
    229 H229       -6.2972  -25.5528  -57.3106 H         1 UNK         0.0600 
    230 H230       -9.5952  -23.7348  -54.9304 H         1 UNK         0.3000 
    231 H231      -10.1504  -21.6118  -54.7339 H         1 UNK         0.0600 
    232 H232       -8.2218  -21.0038  -57.0327 H         1 UNK         0.0600 
    233 H233       -9.5854  -20.0217  -56.5195 H         1 UNK         0.0600 
    234 H234       -9.8695  -21.6020  -57.2267 H         1 UNK         0.0600 
    235 H235       -7.6450  -22.6041  -53.2984 H         1 UNK         0.3000 
    236 H236       -6.0871  -21.9377  -51.8695 H         1 UNK         0.0600 
    237 H237       -6.6799  -20.0265  -50.3736 H         1 UNK         0.0600 
    238 H238       -7.9165  -19.4955  -51.5138 H         1 UNK         0.0600 
    239 H239       -8.0698  -21.0417  -50.6917 H         1 UNK         0.0600 
    240 H240       -6.0462  -18.5712  -51.9145 H         1 UNK         0.3000 
    241 H241       -3.5566  -18.5260  -53.4312 H         1 UNK         0.0600 
    242 H242       -6.4012  -17.3479  -55.9637 H         1 UNK         0.3800 
    243 H243       -6.7428  -18.3773  -54.5981 H         1 UNK         0.3800 
    244 H244       -4.3150  -17.1375  -51.1810 H         1 UNK         0.0800 
    245 H245       -4.6483  -15.9250  -52.3736 H         1 UNK         0.0800 
    246 H246       -2.1100  -15.3665  -50.1432 H         1 UNK         0.0800 
    247 H247       -2.4105  -17.0681  -49.9306 H         1 UNK         0.0800 
@<TRIPOS>BOND
     1    1    2 1    
     2    1  127 1    
     3    1  128 1    
     4    1  129 1    
     5    2    3 2    
     6    2    4 am   BACKBONE|DICT|INTERRES
     7    4    5 1    
     8    4  130 1    
     9    5    6 1    
    10    5   65 1    
    11    5  131 1    
    12    6    7 1    
    13    6  132 1    
    14    6  133 1    
    15    7    8 1    
    16    8    9 1    
    17    8  134 1    
    18    8  135 1    
    19    9   10 ar   
    20    9   14 ar   
    21   10   11 ar   
    22   10  136 1    
    23   11   12 ar   
    24   11  126 1    
    25   12   13 ar   
    26   12  137 1    
    27   13   14 ar   
    28   13   15 1    
    29   14  138 1    
    30   15   16 1    
    31   15  139 1    
    32   15  140 1    
    33   16   17 1    
    34   17   18 1    
    35   17  141 1    
    36   17  142 1    
    37   18   19 1    
    38   18   67 1    
    39   18  143 1    
    40   19   20 am   BACKBONE|DICT|INTERRES
    41   19  144 1    
    42   20   21 2    
    43   20   22 1    
    44   22   23 1    
    45   22   24 1    
    46   22  145 1    
    47   23  146 1    
    48   23  147 1    
    49   23  148 1    
    50   24   25 am   BACKBONE|DICT|INTERRES
    51   24  149 1    
    52   25   26 2    
    53   25   27 1    
    54   27   28 1    
    55   27   29 1    
    56   27  150 1    
    57   28  151 1    
    58   28  152 1    
    59   28  153 1    
    60   29   30 am   BACKBONE|DICT|INTERRES
    61   29  154 1    
    62   30   31 2    
    63   30   32 1    
    64   32   33 1    
    65   32   34 1    
    66   32  155 1    
    67   33  156 1    
    68   33  157 1    
    69   33  158 1    
    70   34   35 am   BACKBONE|DICT|INTERRES
    71   34  159 1    
    72   35   36 2    
    73   35   37 1    
    74   37   38 1    
    75   37   39 1    
    76   37  160 1    
    77   38  161 1    
    78   38  162 1    
    79   38  163 1    
    80   39   40 am   BACKBONE|DICT|INTERRES
    81   39  164 1    
    82   40   41 2    
    83   40   42 1    
    84   42   43 1    
    85   42   44 1    
    86   42  165 1    
    87   43  166 1    
    88   43  167 1    
    89   43  168 1    
    90   44   45 am   BACKBONE|DICT|INTERRES
    91   44  169 1    
    92   45   46 2    
    93   45   47 1    
    94   47   48 1    
    95   47   49 1    
    96   47  170 1    
    97   48  171 1    
    98   48  172 1    
    99   48  173 1    
   100   49   50 am   BACKBONE|DICT|INTERRES
   101   49  174 1    
   102   50   51 2    
   103   50   52 1    
   104   52   53 1    
   105   52   54 1    
   106   52  175 1    
   107   53  176 1    
   108   53  177 1    
   109   53  178 1    
   110   54   55 am   BACKBONE|DICT|INTERRES
   111   54  179 1    
   112   55   56 2    
   113   55   57 1    
   114   57   58 1    
   115   57   59 1    
   116   57  180 1    
   117   58  181 1    
   118   58  182 1    
   119   58  183 1    
   120   59   60 am   BACKBONE|DICT|INTERRES
   121   59  184 1    
   122   60   61 2    
   123   60   62 1    
   124   62   63 1    
   125   62   64 1    
   126   62  185 1    
   127   63  186 1    
   128   63  187 1    
   129   63  188 1    
   130   64   65 am   BACKBONE|DICT|INTERRES
   131   64  189 1    
   132   65   66 2    
   133   67   68 2    
   134   67   69 am   BACKBONE|DICT|INTERRES
   135   69   70 1    
   136   69  190 1    
   137   70   71 1    
   138   70   72 1    
   139   70  191 1    
   140   71  192 1    
   141   71  193 1    
   142   71  194 1    
   143   72   73 2    
   144   72   74 am   BACKBONE|DICT|INTERRES
   145   74   75 1    
   146   74  195 1    
   147   75   76 1    
   148   75   77 1    
   149   75  196 1    
   150   76  197 1    
   151   76  198 1    
   152   76  199 1    
   153   77   78 2    
   154   77   79 am   BACKBONE|DICT|INTERRES
   155   79   80 1    
   156   79  200 1    
   157   80   81 1    
   158   80   82 1    
   159   80  201 1    
   160   81  202 1    
   161   81  203 1    
   162   81  204 1    
   163   82   83 2    
   164   82   84 am   BACKBONE|DICT|INTERRES
   165   84   85 1    
   166   84  205 1    
   167   85   86 1    
   168   85   87 1    
   169   85  206 1    
   170   86  207 1    
   171   86  208 1    
   172   86  209 1    
   173   87   88 2    
   174   87   89 am   BACKBONE|DICT|INTERRES
   175   89   90 1    
   176   89  210 1    
   177   90   91 1    
   178   90   92 1    
   179   90  211 1    
   180   91  212 1    
   181   91  213 1    
   182   91  214 1    
   183   92   93 2    
   184   92   94 am   BACKBONE|DICT|INTERRES
   185   94   95 1    
   186   94  215 1    
   187   95   96 1    
   188   95   97 1    
   189   95  216 1    
   190   96  217 1    
   191   96  218 1    
   192   96  219 1    
   193   97   98 2    
   194   97   99 am   BACKBONE|DICT|INTERRES
   195   99  100 1    
   196   99  220 1    
   197  100  101 1    
   198  100  102 1    
   199  100  221 1    
   200  101  222 1    
   201  101  223 1    
   202  101  224 1    
   203  102  103 2    
   204  102  104 am   BACKBONE|DICT|INTERRES
   205  104  105 1    
   206  104  225 1    
   207  105  106 1    
   208  105  107 1    
   209  105  226 1    
   210  106  227 1    
   211  106  228 1    
   212  106  229 1    
   213  107  108 2    
   214  107  109 am   BACKBONE|DICT|INTERRES
   215  109  110 1    
   216  109  230 1    
   217  110  111 1    
   218  110  112 1    
   219  110  231 1    
   220  111  232 1    
   221  111  233 1    
   222  111  234 1    
   223  112  113 2    
   224  112  114 am   BACKBONE|DICT|INTERRES
   225  114  115 1    
   226  114  235 1    
   227  115  116 1    
   228  115  117 1    
   229  115  236 1    
   230  116  237 1    
   231  116  238 1    
   232  116  239 1    
   233  117  118 2    
   234  117  119 am   BACKBONE|DICT|INTERRES
   235  119  120 1    
   236  119  240 1    
   237  120  121 1    
   238  120  124 1    
   239  120  241 1    
   240  121  122 am   BACKBONE|DICT|INTERRES
   241  121  123 2    
   242  122  242 1    
   243  122  243 1    
   244  124  125 1    
   245  124  244 1    
   246  124  245 1    
   247  125  126 1    
   248  126  246 1    
   249  126  247 1    
@<TRIPOS>SUBSTRUCTURE
     1 UNK         1 GROUP             0       ****    0 ROOT    
