@<TRIPOS>MOLECULE
3R540
247   249    1
SMALL
USER_CHARGES


@<TRIPOS>ATOM
      1 CA          4.0189  -11.3338  -49.3412 C.3       0 UNK        -0.1800 
      2 C           5.1707  -12.2030  -48.8413 C.2       0 UNK         0.5000 
      3 O           6.1620  -11.6539  -48.3646 O.2       0 UNK        -0.5000 
      4 N           5.1257  -13.5412  -48.9294 N.am      1 UNK        -0.5000 
      5 CA          4.0470  -14.4219  -49.3901 C.3       1 UNK         0.1400 
      6 C6          3.6169  -14.2008  -50.8648 C.3       23 UNK        -0.0398 
      7 S7          2.6973  -15.6255  -51.5409 S.3       23 UNK        -0.2404 
      8 C8          4.0325  -16.8258  -51.8388 C.3       23 UNK        -0.0205 
      9 C9          3.7175  -18.1680  -51.1956 C.ar      23 UNK        -0.0193 
     10 C10         2.8537  -19.0573  -51.8424 C.ar      23 UNK        -0.1150 
     11 C11         2.5758  -20.3159  -51.2932 C.ar      23 UNK        -0.0193 
     12 C12         3.1868  -20.6684  -50.0877 C.ar      23 UNK        -0.1150 
     13 C13         4.0435  -19.7902  -49.4197 C.ar      23 UNK        -0.0193 
     14 C14         4.3028  -18.5349  -49.9780 C.ar      23 UNK        -0.1150 
     15 C15         4.7315  -20.2366  -48.1331 C.3       23 UNK        -0.0205 
     16 S16         4.0620  -19.4695  -46.6170 S.3       23 UNK        -0.2404 
     17 C17         2.2681  -19.7838  -46.7146 C.3       23 UNK        -0.0398 
     18 CA          1.8619  -21.2748  -46.7188 C.3       11 UNK         0.1400 
     19 N           2.2798  -21.9973  -45.5173 N.am      11 UNK        -0.5000 
     20 C           2.3206  -23.3345  -45.4310 C.2       10 UNK         0.5000 
     21 O           2.0184  -24.0901  -46.3550 O.2       10 UNK        -0.5000 
     22 CA          2.7244  -23.9228  -44.0684 C.3       10 UNK         0.1400 
     23 CB          4.2466  -23.8517  -43.8744 C.3       10 UNK        -0.1800 
     24 N           2.0574  -23.2505  -42.9531 N.am      10 UNK        -0.5000 
     25 C           0.7343  -23.2728  -42.7394 C.2       9 UNK         0.5000 
     26 O          -0.0646  -23.8833  -43.4473 O.2       9 UNK        -0.5000 
     27 CA          0.2097  -22.4321  -41.5633 C.3       9 UNK         0.1400 
     28 CB          0.2815  -23.2314  -40.2537 C.3       9 UNK        -0.1800 
     29 N           0.9114  -21.1571  -41.3954 N.am      9 UNK        -0.5000 
     30 C           0.9543  -20.1822  -42.3119 C.2       8 UNK         0.5000 
     31 O           0.4746  -20.2717  -43.4453 O.2       8 UNK        -0.5000 
     32 CA          1.6642  -18.8900  -41.9058 C.3       8 UNK         0.1400 
     33 CB          3.0231  -18.7734  -42.6133 C.3       8 UNK        -0.1800 
     34 N           0.8041  -17.7838  -42.3063 N.am      8 UNK        -0.5000 
     35 C           0.3891  -16.7981  -41.5041 C.2       7 UNK         0.5000 
     36 O           0.7728  -16.6547  -40.3424 O.2       7 UNK        -0.5000 
     37 CA         -0.6296  -15.8001  -42.0842 C.3       7 UNK         0.1400 
     38 CB          0.0390  -14.4496  -42.3871 C.3       7 UNK        -0.1800 
     39 N          -1.2996  -16.2741  -43.2962 N.am      7 UNK        -0.5000 
     40 C          -2.3446  -17.1123  -43.3272 C.2       6 UNK         0.5000 
     41 O          -2.7918  -17.6832  -42.3315 O.2       6 UNK        -0.5000 
     42 CA         -3.0120  -17.2946  -44.7110 C.3       6 UNK         0.1400 
     43 CB         -4.3869  -17.9918  -44.6472 C.3       6 UNK        -0.1800 
     44 N          -3.0972  -16.0268  -45.4502 N.am      6 UNK        -0.5000 
     45 C          -3.6951  -14.8913  -45.0505 C.2       5 UNK         0.5000 
     46 O          -4.4194  -14.8115  -44.0580 O.2       5 UNK        -0.5000 
     47 CA         -3.4148  -13.6153  -45.8685 C.3       5 UNK         0.1400 
     48 CB         -2.7085  -12.5598  -45.0011 C.3       5 UNK        -0.1800 
     49 N          -2.5761  -13.8746  -47.0404 N.am      5 UNK        -0.5000 
     50 C          -2.9317  -13.6333  -48.3087 C.2       4 UNK         0.5000 
     51 O          -4.0105  -13.1420  -48.6397 O.2       4 UNK        -0.5000 
     52 CA         -1.9150  -14.0170  -49.4016 C.3       4 UNK         0.1400 
     53 CB         -1.0806  -12.7944  -49.8103 C.3       4 UNK        -0.1800 
     54 N          -1.0128  -15.1084  -49.0236 N.am      4 UNK        -0.5000 
     55 C          -1.3959  -16.3621  -48.7365 C.2       3 UNK         0.5000 
     56 O          -2.5680  -16.7339  -48.7335 O.2       3 UNK        -0.5000 
     57 CA         -0.2988  -17.3729  -48.3618 C.3       3 UNK         0.1400 
     58 CB          0.1375  -18.1252  -49.6303 C.3       3 UNK        -0.1800 
     59 N           0.8657  -16.7642  -47.7103 N.am      3 UNK        -0.5000 
     60 C           0.8373  -16.0341  -46.5829 C.2       2 UNK         0.5000 
     61 O          -0.1761  -15.8754  -45.9018 O.2       2 UNK        -0.5000 
     62 CA          2.1332  -15.3068  -46.1681 C.3       2 UNK         0.1400 
     63 CB          2.8143  -16.0339  -45.0019 C.3       2 UNK        -0.1800 
     64 N           3.1058  -15.1247  -47.2500 N.am      2 UNK        -0.5000 
     65 C           2.8779  -14.4546  -48.3878 C.2       1 UNK         0.5000 
     66 O           1.8077  -13.9036  -48.6500 O.2       1 UNK        -0.5000 
     67 C           0.3508  -21.4261  -46.9741 C.2       11 UNK         0.5000 
     68 O          -0.0483  -21.6088  -48.1231 O.2       11 UNK        -0.5000 
     69 N          -0.4568  -21.3878  -45.9046 N.am      12 UNK        -0.5000 
     70 CA         -1.9020  -21.6107  -45.9475 C.3       12 UNK         0.1400 
     71 CB         -2.5067  -21.3258  -44.5655 C.3       12 UNK        -0.1800 
     72 C          -2.2684  -23.0287  -46.4227 C.2       12 UNK         0.5000 
     73 O          -3.1701  -23.1741  -47.2469 O.2       12 UNK        -0.5000 
     74 N          -1.5411  -24.0424  -45.9317 N.am      13 UNK        -0.5000 
     75 CA         -1.6832  -25.4395  -46.3448 C.3       13 UNK         0.1400 
     76 CB         -0.8743  -26.3421  -45.4012 C.3       13 UNK        -0.1800 
     77 C          -1.2672  -25.6754  -47.8078 C.2       13 UNK         0.5000 
     78 O          -1.9240  -26.4500  -48.5035 O.2       13 UNK        -0.5000 
     79 N          -0.2000  -24.9954  -48.2504 N.am      14 UNK        -0.5000 
     80 CA          0.2843  -25.0263  -49.6306 C.3       14 UNK         0.1400 
     81 CB          1.6825  -24.3995  -49.6933 C.3       14 UNK        -0.1800 
     82 C          -0.6756  -24.3304  -50.6141 C.2       14 UNK         0.5000 
     83 O          -0.8637  -24.8289  -51.7241 O.2       14 UNK        -0.5000 
     84 N          -1.2754  -23.2091  -50.1867 N.am      15 UNK        -0.5000 
     85 CA         -2.3302  -22.4978  -50.9111 C.3       15 UNK         0.1400 
     86 CB         -2.6068  -21.1527  -50.2169 C.3       15 UNK        -0.1800 
     87 C          -3.6141  -23.3423  -51.0139 C.2       15 UNK         0.5000 
     88 O          -4.1380  -23.5141  -52.1146 O.2       15 UNK        -0.5000 
     89 N          -4.0363  -23.8838  -49.8613 N.am      16 UNK        -0.5000 
     90 CA         -5.1889  -24.7468  -49.5990 C.3       16 UNK         0.1400 
     91 CB         -5.1602  -26.0147  -50.4740 C.3       16 UNK        -0.1800 
     92 C          -6.5436  -24.0210  -49.7047 C.2       16 UNK         0.5000 
     93 O          -6.7293  -23.1390  -50.5427 O.2       16 UNK        -0.5000 
     94 N          -7.4834  -24.4368  -48.8453 N.am      17 UNK        -0.5000 
     95 CA         -8.8929  -24.0306  -48.7444 C.3       17 UNK         0.1400 
     96 CB         -9.6597  -24.3538  -50.0417 C.3       17 UNK        -0.1800 
     97 C          -9.1533  -22.5747  -48.3027 C.2       17 UNK         0.5000 
     98 O         -10.0896  -22.3515  -47.5335 O.2       17 UNK        -0.5000 
     99 N          -8.3544  -21.6137  -48.7765 N.am      18 UNK        -0.5000 
    100 CA        -8.5116  -20.1858  -48.5155 C.3       18 UNK         0.1400 
    101 CB        -9.5856  -19.6086  -49.4582 C.3       18 UNK        -0.1800 
    102 C         -7.1763  -19.4510  -48.6995 C.2       18 UNK         0.5000 
    103 O         -6.2405  -19.9921  -49.2935 O.2       18 UNK        -0.5000 
    104 N         -7.1274  -18.2073  -48.2071 N.am      19 UNK        -0.5000 
    105 CA        -6.0323  -17.2669  -48.4374 C.3       19 UNK         0.1400 
    106 CB        -6.2155  -16.0522  -47.5158 C.3       19 UNK        -0.1800 
    107 C         -5.9788  -16.8197  -49.9110 C.2       19 UNK         0.5000 
    108 O         -7.0220  -16.7108  -50.5595 O.2       19 UNK        -0.5000 
    109 N         -4.7582  -16.5724  -50.3999 N.am      20 UNK        -0.5000 
    110 CA        -4.3885  -16.1465  -51.7558 C.3       20 UNK         0.1400 
    111 CB        -5.0261  -14.7878  -52.1094 C.3       20 UNK        -0.1800 
    112 C         -4.6219  -17.2040  -52.8552 C.2       20 UNK         0.5000 
    113 O         -4.3619  -16.9215  -54.0261 O.2       20 UNK        -0.5000 
    114 N         -5.0384  -18.4212  -52.4761 N.am      21 UNK        -0.5000 
    115 CA        -5.2950  -19.5472  -53.3797 C.3       21 UNK         0.1400 
    116 CB        -6.0334  -20.6472  -52.6064 C.3       21 UNK        -0.1800 
    117 C         -4.0311  -20.0989  -54.0739 C.2       21 UNK         0.5000 
    118 O         -4.1538  -20.8040  -55.0762 O.2       21 UNK        -0.5000 
    119 N         -2.8461  -19.7348  -53.5623 N.am      22 UNK        -0.5000 
    120 CA        -1.5489  -19.9412  -54.2248 C.3       22 UNK         0.1400 
    121 C         -1.3288  -19.0471  -55.4863 C.2       22 UNK         0.5000 
    122 N         -2.1114  -17.9958  -55.7105 N.am      22 UNK        -0.7600 
    123 O         -0.4393  -19.3175  -56.2877 O.2       22 UNK        -0.5000 
    124 C124       -0.3725  -19.8030  -53.2184 C.3       23 UNK        -0.0398 
    125 S125        1.0129  -20.9256  -53.6098 S.3       23 UNK        -0.2404 
    126 C126        1.6500  -21.3440  -51.9496 C.3       23 UNK        -0.0205 
    127 H127        3.0513  -11.6837  -48.9897 H         1 UNK         0.0600 
    128 H128        4.0125  -11.2985  -50.4300 H         1 UNK         0.0600 
    129 H129        4.1376  -10.3113  -48.9823 H         1 UNK         0.0600 
    130 H130        5.9342  -14.0392  -48.5840 H         1 UNK         0.3000 
    131 H131        4.4941  -15.4155  -49.3471 H         1 UNK         0.0600 
    132 H132        2.9857  -13.3185  -50.9703 H         1 UNK         0.0800 
    133 H133        4.4909  -14.0248  -51.4933 H         1 UNK         0.0800 
    134 H134        4.1565  -16.9542  -52.9152 H         1 UNK         0.0800 
    135 H135        4.9875  -16.4475  -51.4721 H         1 UNK         0.0800 
    136 H136        2.4122  -18.7550  -52.7798 H         1 UNK         0.1150 
    137 H137        3.0095  -21.6495  -49.6782 H         1 UNK         0.1150 
    138 H138        4.9799  -17.8586  -49.4761 H         1 UNK         0.1150 
    139 H139        4.6841  -21.3216  -48.0293 H         1 UNK         0.0800 
    140 H140        5.7932  -19.9951  -48.1995 H         1 UNK         0.0800 
    141 H141        1.9163  -19.2958  -47.6189 H         1 UNK         0.0800 
    142 H142        1.7871  -19.2618  -45.8856 H         1 UNK         0.0800 
    143 H143        2.3603  -21.7529  -47.5603 H         1 UNK         0.0600 
    144 H144        2.5065  -21.4427  -44.7058 H         1 UNK         0.3000 
    145 H145        2.4264  -24.9735  -44.0576 H         1 UNK         0.0600 
    146 H146        4.5484  -24.3375  -42.9463 H         1 UNK         0.0600 
    147 H147        4.7671  -24.3575  -44.6888 H         1 UNK         0.0600 
    148 H148        4.6041  -22.8216  -43.8461 H         1 UNK         0.0600 
    149 H149        2.6386  -22.7186  -42.3225 H         1 UNK         0.3000 
    150 H150       -0.8392  -22.2059  -41.7641 H         1 UNK         0.0600 
    151 H151       -0.2501  -24.1796  -40.3456 H         1 UNK         0.0600 
    152 H152       -0.1770  -22.6828  -39.4308 H         1 UNK         0.0600 
    153 H153        1.3113  -23.4580  -39.9747 H         1 UNK         0.0600 
    154 H154        1.3401  -21.0001  -40.4945 H         1 UNK         0.3000 
    155 H155        1.8238  -18.8919  -40.8255 H         1 UNK         0.0600 
    156 H156        2.9213  -18.8251  -43.6972 H         1 UNK         0.0600 
    157 H157        3.6925  -19.5786  -42.3086 H         1 UNK         0.0600 
    158 H158        3.5140  -17.8313  -42.3689 H         1 UNK         0.0600 
    159 H159        0.3798  -17.8759  -43.2187 H         1 UNK         0.3000 
    160 H160       -1.3856  -15.6332  -41.3140 H         1 UNK         0.0600 
    161 H161        0.7475  -14.5217  -43.2119 H         1 UNK         0.0600 
    162 H162        0.5818  -14.0746  -41.5185 H         1 UNK         0.0600 
    163 H163       -0.7042  -13.6971  -42.6491 H         1 UNK         0.0600 
    164 H164       -0.9644  -15.9017  -44.1806 H         1 UNK         0.3000 
    165 H165       -2.3434  -17.9396  -45.2832 H         1 UNK         0.0600 
    166 H166       -5.1228  -17.3937  -44.1099 H         1 UNK         0.0600 
    167 H167       -4.7746  -18.1850  -45.6469 H         1 UNK         0.0600 
    168 H168       -4.3193  -18.9533  -44.1384 H         1 UNK         0.0600 
    169 H169       -2.5282  -15.9815  -46.2828 H         1 UNK         0.3000 
    170 H170       -4.3875  -13.2190  -46.1666 H         1 UNK         0.0600 
    171 H171       -1.7222  -12.8988  -44.6834 H         1 UNK         0.0600 
    172 H172       -2.5796  -11.6260  -45.5484 H         1 UNK         0.0600 
    173 H173       -3.2851  -12.3314  -44.1038 H         1 UNK         0.0600 
    174 H174       -1.6600  -14.2648  -46.8629 H         1 UNK         0.3000 
    175 H175       -2.4824  -14.3428  -50.2735 H         1 UNK         0.0600 
    176 H176       -0.3903  -13.0387  -50.6182 H         1 UNK         0.0600 
    177 H177       -1.7201  -11.9838  -50.1620 H         1 UNK         0.0600 
    178 H178       -0.4943  -12.4113  -48.9742 H         1 UNK         0.0600 
    179 H179       -0.0267  -14.8731  -48.9774 H         1 UNK         0.3000 
    180 H180       -0.7396  -18.0905  -47.6666 H         1 UNK         0.0600 
    181 H181        0.7585  -17.5032  -50.2739 H         1 UNK         0.0600 
    182 H182       -0.7252  -18.4329  -50.2215 H         1 UNK         0.0600 
    183 H183        0.6926  -19.0318  -49.4012 H         1 UNK         0.0600 
    184 H184        1.7399  -16.8225  -48.2105 H         1 UNK         0.3000 
    185 H185        1.8377  -14.3143  -45.8220 H         1 UNK         0.0600 
    186 H186        3.2041  -17.0035  -45.3070 H         1 UNK         0.0600 
    187 H187        3.6443  -15.4504  -44.6034 H         1 UNK         0.0600 
    188 H188        2.1187  -16.2044  -44.1817 H         1 UNK         0.0600 
    189 H189        4.0153  -15.5374  -47.1008 H         1 UNK         0.3000 
    190 H190       -0.0566  -21.1848  -44.9918 H         1 UNK         0.3000 
    191 H191       -2.3262  -20.8988  -46.6587 H         1 UNK         0.0600 
    192 H192       -2.2540  -20.3234  -44.2211 H         1 UNK         0.0600 
    193 H193       -3.5943  -21.4000  -44.5936 H         1 UNK         0.0600 
    194 H194       -2.1492  -22.0325  -43.8169 H         1 UNK         0.0600 
    195 H195       -0.8551  -23.8533  -45.2060 H         1 UNK         0.3000 
    196 H196       -2.7370  -25.7109  -46.2528 H         1 UNK         0.0600 
    197 H197       -0.9631  -27.3903  -45.6893 H         1 UNK         0.0600 
    198 H198       -1.2299  -26.2563  -44.3744 H         1 UNK         0.0600 
    199 H199        0.1859  -26.0859  -45.4105 H         1 UNK         0.0600 
    200 H200        0.3225  -24.4244  -47.5960 H         1 UNK         0.3000 
    201 H201        0.3701  -26.0714  -49.9354 H         1 UNK         0.0600 
    202 H202        2.3894  -24.9476  -49.0702 H         1 UNK         0.0600 
    203 H203        1.6623  -23.3683  -49.3469 H         1 UNK         0.0600 
    204 H204        2.0718  -24.4043  -50.7118 H         1 UNK         0.0600 
    205 H205       -1.0016  -22.8217  -49.2883 H         1 UNK         0.3000 
    206 H206       -1.9700  -22.2966  -51.9222 H         1 UNK         0.0600 
    207 H207       -3.3216  -20.5565  -50.7827 H         1 UNK         0.0600 
    208 H208       -3.0188  -21.2875  -49.2167 H         1 UNK         0.0600 
    209 H209       -1.6950  -20.5668  -50.1163 H         1 UNK         0.0600 
    210 H210       -3.5339  -23.6173  -49.0176 H         1 UNK         0.3000 
    211 H211       -5.0658  -25.0626  -48.5617 H         1 UNK         0.0600 
    212 H212       -5.3374  -25.7891  -51.5258 H         1 UNK         0.0600 
    213 H213       -5.9308  -26.7201  -50.1613 H         1 UNK         0.0600 
    214 H214       -4.2001  -26.5255  -50.3959 H         1 UNK         0.0600 
    215 H215       -7.2139  -25.1457  -48.1774 H         1 UNK         0.3000 
    216 H216       -9.3136  -24.6626  -47.9607 H         1 UNK         0.0600 
    217 H217       -9.3144  -23.7495  -50.8811 H         1 UNK         0.0600 
    218 H218       -9.5489  -25.4031  -50.3150 H         1 UNK         0.0600 
    219 H219      -10.7263  -24.1603  -49.9210 H         1 UNK         0.0600 
    220 H220       -7.5905  -21.8677  -49.4007 H         1 UNK         0.3000 
    221 H221       -8.8243  -20.0443  -47.4788 H         1 UNK         0.0600 
    222 H222      -10.5521  -20.0877  -49.3021 H         1 UNK         0.0600 
    223 H223       -9.7272  -18.5399  -49.2933 H         1 UNK         0.0600 
    224 H224       -9.3099  -19.7444  -50.5048 H         1 UNK         0.0600 
    225 H225       -7.9515  -17.8270  -47.7657 H         1 UNK         0.3000 
    226 H226       -5.0940  -17.7638  -48.1808 H         1 UNK         0.0600 
    227 H227       -6.2416  -16.3468  -46.4668 H         1 UNK         0.0600 
    228 H228       -5.3909  -15.3502  -47.6352 H         1 UNK         0.0600 
    229 H229       -7.1378  -15.5136  -47.7368 H         1 UNK         0.0600 
    230 H230       -3.9679  -16.6936  -49.7649 H         1 UNK         0.3000 
    231 H231       -3.3083  -16.0006  -51.7286 H         1 UNK         0.0600 
    232 H232       -4.6133  -14.3922  -53.0381 H         1 UNK         0.0600 
    233 H233       -4.8384  -14.0480  -51.3312 H         1 UNK         0.0600 
    234 H234       -6.1051  -14.8675  -52.2431 H         1 UNK         0.0600 
    235 H235       -5.2363  -18.5768  -51.4976 H         1 UNK         0.3000 
    236 H236       -5.9589  -19.1918  -54.1704 H         1 UNK         0.0600 
    237 H237       -6.2453  -21.5068  -53.2434 H         1 UNK         0.0600 
    238 H238       -5.4470  -21.0064  -51.7616 H         1 UNK         0.0600 
    239 H239       -6.9865  -20.2880  -52.2176 H         1 UNK         0.0600 
    240 H240       -2.8496  -19.1353  -52.7521 H         1 UNK         0.3000 
    241 H241       -1.5612  -20.9713  -54.5870 H         1 UNK         0.0600 
    242 H242       -1.9547  -17.4385  -56.5352 H         1 UNK         0.3800 
    243 H243       -2.8662  -17.7454  -55.0811 H         1 UNK         0.3800 
    244 H244       -0.7131  -20.0461  -52.2132 H         1 UNK         0.0800 
    245 H245       -0.0081  -18.7757  -53.1615 H         1 UNK         0.0800 
    246 H246        2.2000  -22.2809  -52.0449 H         1 UNK         0.0800 
    247 H247        0.8149  -21.5499  -51.2792 H         1 UNK         0.0800 
@<TRIPOS>BOND
     1    1    2 1    
     2    1  127 1    
     3    1  128 1    
     4    1  129 1    
     5    2    3 2    
     6    2    4 am   BACKBONE|DICT|INTERRES
     7    4    5 1    
     8    4  130 1    
     9    5    6 1    
    10    5   65 1    
    11    5  131 1    
    12    6    7 1    
    13    6  132 1    
    14    6  133 1    
    15    7    8 1    
    16    8    9 1    
    17    8  134 1    
    18    8  135 1    
    19    9   10 ar   
    20    9   14 ar   
    21   10   11 ar   
    22   10  136 1    
    23   11   12 ar   
    24   11  126 1    
    25   12   13 ar   
    26   12  137 1    
    27   13   14 ar   
    28   13   15 1    
    29   14  138 1    
    30   15   16 1    
    31   15  139 1    
    32   15  140 1    
    33   16   17 1    
    34   17   18 1    
    35   17  141 1    
    36   17  142 1    
    37   18   19 1    
    38   18   67 1    
    39   18  143 1    
    40   19   20 am   BACKBONE|DICT|INTERRES
    41   19  144 1    
    42   20   21 2    
    43   20   22 1    
    44   22   23 1    
    45   22   24 1    
    46   22  145 1    
    47   23  146 1    
    48   23  147 1    
    49   23  148 1    
    50   24   25 am   BACKBONE|DICT|INTERRES
    51   24  149 1    
    52   25   26 2    
    53   25   27 1    
    54   27   28 1    
    55   27   29 1    
    56   27  150 1    
    57   28  151 1    
    58   28  152 1    
    59   28  153 1    
    60   29   30 am   BACKBONE|DICT|INTERRES
    61   29  154 1    
    62   30   31 2    
    63   30   32 1    
    64   32   33 1    
    65   32   34 1    
    66   32  155 1    
    67   33  156 1    
    68   33  157 1    
    69   33  158 1    
    70   34   35 am   BACKBONE|DICT|INTERRES
    71   34  159 1    
    72   35   36 2    
    73   35   37 1    
    74   37   38 1    
    75   37   39 1    
    76   37  160 1    
    77   38  161 1    
    78   38  162 1    
    79   38  163 1    
    80   39   40 am   BACKBONE|DICT|INTERRES
    81   39  164 1    
    82   40   41 2    
    83   40   42 1    
    84   42   43 1    
    85   42   44 1    
    86   42  165 1    
    87   43  166 1    
    88   43  167 1    
    89   43  168 1    
    90   44   45 am   BACKBONE|DICT|INTERRES
    91   44  169 1    
    92   45   46 2    
    93   45   47 1    
    94   47   48 1    
    95   47   49 1    
    96   47  170 1    
    97   48  171 1    
    98   48  172 1    
    99   48  173 1    
   100   49   50 am   BACKBONE|DICT|INTERRES
   101   49  174 1    
   102   50   51 2    
   103   50   52 1    
   104   52   53 1    
   105   52   54 1    
   106   52  175 1    
   107   53  176 1    
   108   53  177 1    
   109   53  178 1    
   110   54   55 am   BACKBONE|DICT|INTERRES
   111   54  179 1    
   112   55   56 2    
   113   55   57 1    
   114   57   58 1    
   115   57   59 1    
   116   57  180 1    
   117   58  181 1    
   118   58  182 1    
   119   58  183 1    
   120   59   60 am   BACKBONE|DICT|INTERRES
   121   59  184 1    
   122   60   61 2    
   123   60   62 1    
   124   62   63 1    
   125   62   64 1    
   126   62  185 1    
   127   63  186 1    
   128   63  187 1    
   129   63  188 1    
   130   64   65 am   BACKBONE|DICT|INTERRES
   131   64  189 1    
   132   65   66 2    
   133   67   68 2    
   134   67   69 am   BACKBONE|DICT|INTERRES
   135   69   70 1    
   136   69  190 1    
   137   70   71 1    
   138   70   72 1    
   139   70  191 1    
   140   71  192 1    
   141   71  193 1    
   142   71  194 1    
   143   72   73 2    
   144   72   74 am   BACKBONE|DICT|INTERRES
   145   74   75 1    
   146   74  195 1    
   147   75   76 1    
   148   75   77 1    
   149   75  196 1    
   150   76  197 1    
   151   76  198 1    
   152   76  199 1    
   153   77   78 2    
   154   77   79 am   BACKBONE|DICT|INTERRES
   155   79   80 1    
   156   79  200 1    
   157   80   81 1    
   158   80   82 1    
   159   80  201 1    
   160   81  202 1    
   161   81  203 1    
   162   81  204 1    
   163   82   83 2    
   164   82   84 am   BACKBONE|DICT|INTERRES
   165   84   85 1    
   166   84  205 1    
   167   85   86 1    
   168   85   87 1    
   169   85  206 1    
   170   86  207 1    
   171   86  208 1    
   172   86  209 1    
   173   87   88 2    
   174   87   89 am   BACKBONE|DICT|INTERRES
   175   89   90 1    
   176   89  210 1    
   177   90   91 1    
   178   90   92 1    
   179   90  211 1    
   180   91  212 1    
   181   91  213 1    
   182   91  214 1    
   183   92   93 2    
   184   92   94 am   BACKBONE|DICT|INTERRES
   185   94   95 1    
   186   94  215 1    
   187   95   96 1    
   188   95   97 1    
   189   95  216 1    
   190   96  217 1    
   191   96  218 1    
   192   96  219 1    
   193   97   98 2    
   194   97   99 am   BACKBONE|DICT|INTERRES
   195   99  100 1    
   196   99  220 1    
   197  100  101 1    
   198  100  102 1    
   199  100  221 1    
   200  101  222 1    
   201  101  223 1    
   202  101  224 1    
   203  102  103 2    
   204  102  104 am   BACKBONE|DICT|INTERRES
   205  104  105 1    
   206  104  225 1    
   207  105  106 1    
   208  105  107 1    
   209  105  226 1    
   210  106  227 1    
   211  106  228 1    
   212  106  229 1    
   213  107  108 2    
   214  107  109 am   BACKBONE|DICT|INTERRES
   215  109  110 1    
   216  109  230 1    
   217  110  111 1    
   218  110  112 1    
   219  110  231 1    
   220  111  232 1    
   221  111  233 1    
   222  111  234 1    
   223  112  113 2    
   224  112  114 am   BACKBONE|DICT|INTERRES
   225  114  115 1    
   226  114  235 1    
   227  115  116 1    
   228  115  117 1    
   229  115  236 1    
   230  116  237 1    
   231  116  238 1    
   232  116  239 1    
   233  117  118 2    
   234  117  119 am   BACKBONE|DICT|INTERRES
   235  119  120 1    
   236  119  240 1    
   237  120  121 1    
   238  120  124 1    
   239  120  241 1    
   240  121  122 am   BACKBONE|DICT|INTERRES
   241  121  123 2    
   242  122  242 1    
   243  122  243 1    
   244  124  125 1    
   245  124  244 1    
   246  124  245 1    
   247  125  126 1    
   248  126  246 1    
   249  126  247 1    
@<TRIPOS>SUBSTRUCTURE
     1 UNK         1 GROUP             0       ****    0 ROOT    
