@<TRIPOS>MOLECULE
3R540
247   249    1
SMALL
USER_CHARGES


@<TRIPOS>ATOM
      1 CA          7.1986  -10.8422  -50.0982 C.3       0 UNK        -0.1800 
      2 C           6.7937  -11.4215  -48.7499 C.2       0 UNK         0.5000 
      3 O           7.4669  -11.1739  -47.7490 O.2       0 UNK        -0.5000 
      4 N           5.7026  -12.1954  -48.7223 N.am      1 UNK        -0.5000 
      5 CA          5.1279  -12.7919  -47.5130 C.3       1 UNK         0.1400 
      6 C6          4.1368  -13.9343  -47.8459 C.3       23 UNK        -0.0398 
      7 S7          4.9928  -15.3946  -48.5261 S.3       23 UNK        -0.2404 
      8 C8          4.6614  -15.2544  -50.3128 C.3       23 UNK        -0.0205 
      9 C9          3.3990  -15.9948  -50.7317 C.ar      23 UNK        -0.0193 
     10 C10         2.2763  -15.2989  -51.1930 C.ar      23 UNK        -0.1150 
     11 C11         1.1392  -15.9918  -51.6251 C.ar      23 UNK        -0.0193 
     12 C12         1.1300  -17.3894  -51.5887 C.ar      23 UNK        -0.1150 
     13 C13         2.2403  -18.0940  -51.1164 C.ar      23 UNK        -0.0193 
     14 C14         3.3723  -17.3917  -50.6963 C.ar      23 UNK        -0.1150 
     15 C15         2.2273  -19.6133  -51.0641 C.3       23 UNK        -0.0205 
     16 S16         1.7899  -20.2156  -49.4044 S.3       23 UNK        -0.2404 
     17 C17         0.0061  -19.8461  -49.3390 C.3       23 UNK        -0.0398 
     18 CA         -0.7807  -20.9386  -48.5757 C.3       11 UNK         0.1400 
     19 N          -0.3650  -21.0359  -47.1656 N.am      11 UNK        -0.5000 
     20 C          -0.4940  -22.1010  -46.3600 C.2       10 UNK         0.5000 
     21 O          -1.0965  -23.1240  -46.6961 O.2       10 UNK        -0.5000 
     22 CA          0.0909  -22.0014  -44.9331 C.3       10 UNK         0.1400 
     23 CB          0.5412  -23.3708  -44.3841 C.3       10 UNK        -0.1800 
     24 N           1.1498  -20.9962  -44.7883 N.am      10 UNK        -0.5000 
     25 C           2.3585  -20.9820  -45.3722 C.2       9 UNK         0.5000 
     26 O           2.7838  -21.8911  -46.0854 O.2       9 UNK        -0.5000 
     27 CA          3.2461  -19.7463  -45.1187 C.3       9 UNK         0.1400 
     28 CB          3.7038  -19.0981  -46.4369 C.3       9 UNK        -0.1800 
     29 N           2.5689  -18.7263  -44.3111 N.am      9 UNK        -0.5000 
     30 C           3.0785  -18.1608  -43.2097 C.2       8 UNK         0.5000 
     31 O           4.1698  -18.4669  -42.7275 O.2       8 UNK        -0.5000 
     32 CA          2.2458  -17.0617  -42.5225 C.3       8 UNK         0.1400 
     33 CB          2.6760  -15.6694  -43.0090 C.3       8 UNK        -0.1800 
     34 N           0.7961  -17.2022  -42.6808 N.am      8 UNK        -0.5000 
     35 C           0.0607  -18.1337  -42.0558 C.2       7 UNK         0.5000 
     36 O           0.5419  -19.0637  -41.4088 O.2       7 UNK        -0.5000 
     37 CA         -1.4663  -18.0000  -42.1608 C.3       7 UNK         0.1400 
     38 CB         -1.9702  -16.8362  -41.2916 C.3       7 UNK        -0.1800 
     39 N          -1.8732  -17.7751  -43.5429 N.am      7 UNK        -0.5000 
     40 C          -2.3601  -18.7204  -44.3570 C.2       6 UNK         0.5000 
     41 O          -2.5800  -19.8824  -44.0162 O.2       6 UNK        -0.5000 
     42 CA         -2.6353  -18.3033  -45.8133 C.3       6 UNK         0.1400 
     43 CB         -4.0642  -17.7525  -45.9264 C.3       6 UNK        -0.1800 
     44 N          -1.6946  -17.3101  -46.3377 N.am      6 UNK        -0.5000 
     45 C          -0.3574  -17.4123  -46.3277 C.2       5 UNK         0.5000 
     46 O           0.2431  -18.4416  -46.0273 O.2       5 UNK        -0.5000 
     47 CA          0.4542  -16.1360  -46.6095 C.3       5 UNK         0.1400 
     48 CB          1.0599  -16.1506  -48.0137 C.3       5 UNK        -0.1800 
     49 N          -0.3144  -14.9066  -46.4014 N.am      5 UNK        -0.5000 
     50 C          -0.7573  -14.5023  -45.2046 C.2       4 UNK         0.5000 
     51 O          -0.5587  -15.1264  -44.1566 O.2       4 UNK        -0.5000 
     52 CA         -1.5891  -13.2172  -45.1643 C.3       4 UNK         0.1400 
     53 CB         -3.0489  -13.5298  -44.7982 C.3       4 UNK        -0.1800 
     54 N          -1.0037  -12.3730  -44.1325 N.am      4 UNK        -0.5000 
     55 C          -0.3888  -11.2070  -44.3508 C.2       3 UNK         0.5000 
     56 O          -0.4204  -10.6060  -45.4267 O.2       3 UNK        -0.5000 
     57 CA          0.4276  -10.6089  -43.1836 C.3       3 UNK         0.1400 
     58 CB          0.3453  -11.4155  -41.8661 C.3       3 UNK        -0.1800 
     59 N           1.8293  -10.3996  -43.5659 N.am      3 UNK        -0.5000 
     60 C           2.6842  -11.3291  -44.0181 C.2       2 UNK         0.5000 
     61 O           2.4108  -12.5262  -44.1351 O.2       2 UNK        -0.5000 
     62 CA          4.1013  -10.8362  -44.3625 C.3       2 UNK         0.1400 
     63 CB          4.9790  -10.8044  -43.1012 C.3       2 UNK        -0.1800 
     64 N           4.7367  -11.7033  -45.3539 N.am      2 UNK        -0.5000 
     65 C           4.4434  -11.7059  -46.6595 C.2       1 UNK         0.5000 
     66 O           3.6665  -10.9092  -47.1923 O.2       1 UNK        -0.5000 
     67 C          -2.3112  -20.7785  -48.7350 C.2       11 UNK         0.5000 
     68 O          -2.7859  -19.8964  -49.4540 O.2       11 UNK        -0.5000 
     69 N          -3.0438  -21.6506  -48.0430 N.am      12 UNK        -0.5000 
     70 CA         -4.4849  -21.8446  -48.0714 C.3       12 UNK         0.1400 
     71 CB         -5.2336  -20.6787  -47.4054 C.3       12 UNK        -0.1800 
     72 C          -4.7771  -23.1717  -47.3656 C.2       12 UNK         0.5000 
     73 O          -5.3993  -24.0485  -47.9595 O.2       12 UNK        -0.5000 
     74 N          -4.2695  -23.3118  -46.1318 N.am      13 UNK        -0.5000 
     75 CA         -4.4269  -24.4935  -45.2833 C.3       13 UNK         0.1400 
     76 CB         -3.9110  -24.1728  -43.8713 C.3       13 UNK        -0.1800 
     77 C          -3.7324  -25.7439  -45.8518 C.2       13 UNK         0.5000 
     78 O          -4.3811  -26.7766  -46.0218 O.2       13 UNK        -0.5000 
     79 N          -2.4356  -25.6212  -46.1680 N.am      14 UNK        -0.5000 
     80 CA         -1.6317  -26.6912  -46.7680 C.3       14 UNK         0.1400 
     81 CB         -0.1433  -26.4160  -46.5048 C.3       14 UNK        -0.1800 
     82 C          -1.8968  -26.8345  -48.2778 C.2       14 UNK         0.5000 
     83 O          -1.6941  -27.9110  -48.8391 O.2       14 UNK        -0.5000 
     84 N          -2.3666  -25.7449  -48.8967 N.am      15 UNK        -0.5000 
     85 CA         -2.7471  -25.6540  -50.3045 C.3       15 UNK         0.1400 
     86 CB         -2.6436  -24.1810  -50.7184 C.3       15 UNK        -0.1800 
     87 C          -4.1591  -26.2051  -50.5999 C.2       15 UNK         0.5000 
     88 O          -4.5674  -26.2108  -51.7645 O.2       15 UNK        -0.5000 
     89 N          -4.8898  -26.6122  -49.5482 N.am      16 UNK        -0.5000 
     90 CA         -6.2507  -27.1667  -49.5437 C.3       16 UNK         0.1400 
     91 CB         -6.2521  -28.5648  -50.1953 C.3       16 UNK        -0.1800 
     92 C          -7.3098  -26.2281  -50.1639 C.2       16 UNK         0.5000 
     93 O          -8.3165  -26.7016  -50.6934 O.2       16 UNK        -0.5000 
     94 N          -7.0345  -24.9155  -50.1240 N.am      17 UNK        -0.5000 
     95 CA         -7.7401  -23.8165  -50.7937 C.3       17 UNK         0.1400 
     96 CB         -9.1297  -23.6051  -50.1597 C.3       17 UNK        -0.1800 
     97 C          -7.8092  -23.9562  -52.3350 C.2       17 UNK         0.5000 
     98 O          -8.6398  -23.2982  -52.9644 O.2       17 UNK        -0.5000 
     99 N          -6.9606  -24.8172  -52.9147 N.am      18 UNK        -0.5000 
    100 CA        -6.9954  -25.2181  -54.3182 C.3       18 UNK         0.1400 
    101 CB        -7.1354  -26.7474  -54.3975 C.3       18 UNK        -0.1800 
    102 C         -5.7368  -24.7483  -55.0560 C.2       18 UNK         0.5000 
    103 O         -5.8537  -24.1297  -56.1146 O.2       18 UNK        -0.5000 
    104 N         -4.5561  -25.0350  -54.4883 N.am      19 UNK        -0.5000 
    105 CA        -3.2650  -24.6379  -55.0602 C.3       19 UNK         0.1400 
    106 CB        -2.1617  -25.5517  -54.5037 C.3       19 UNK        -0.1800 
    107 C         -2.9352  -23.1518  -54.8142 C.2       19 UNK         0.5000 
    108 O         -2.1443  -22.5714  -55.5583 O.2       19 UNK        -0.5000 
    109 N         -3.5576  -22.5689  -53.7858 N.am      20 UNK        -0.5000 
    110 CA        -3.4551  -21.1857  -53.3455 C.3       20 UNK         0.1400 
    111 CB        -2.0722  -20.9074  -52.7226 C.3       20 UNK        -0.1800 
    112 C         -4.5692  -20.9521  -52.3164 C.2       20 UNK         0.5000 
    113 O         -5.0749  -21.9142  -51.7321 O.2       20 UNK        -0.5000 
    114 N         -4.9139  -19.6814  -52.1042 N.am      21 UNK        -0.5000 
    115 CA        -5.8607  -19.2158  -51.0940 C.3       21 UNK         0.1400 
    116 CB        -7.3091  -19.3820  -51.5938 C.3       21 UNK        -0.1800 
    117 C         -5.4892  -17.7672  -50.7376 C.2       21 UNK         0.5000 
    118 O         -6.3171  -16.8595  -50.8372 O.2       21 UNK        -0.5000 
    119 N         -4.2109  -17.5716  -50.3964 N.am      22 UNK        -0.5000 
    120 CA        -3.5541  -16.2724  -50.1894 C.3       22 UNK         0.1400 
    121 C         -3.9049  -15.6122  -48.8218 C.2       22 UNK         0.5000 
    122 N         -5.1820  -15.3978  -48.5401 N.am      22 UNK        -0.7600 
    123 O         -3.0370  -15.3148  -48.0033 O.2       22 UNK        -0.5000 
    124 C124       -2.0350  -16.4013  -50.4601 C.3       23 UNK        -0.0398 
    125 S125       -1.2362  -14.7957  -50.8219 S.3       23 UNK        -0.2404 
    126 C126       -0.0703  -15.2316  -52.1512 C.3       23 UNK        -0.0205 
    127 H127        6.5231  -11.1563  -50.8943 H         1 UNK         0.0600 
    128 H128        8.2056  -11.1676  -50.3592 H         1 UNK         0.0600 
    129 H129        7.1911   -9.7530  -50.0559 H         1 UNK         0.0600 
    130 H130        5.1731  -12.3295  -49.5702 H         1 UNK         0.3000 
    131 H131        5.9468  -13.2164  -46.9273 H         1 UNK         0.0600 
    132 H132        3.6176  -14.2629  -46.9431 H         1 UNK         0.0800 
    133 H133        3.3625  -13.5938  -48.5355 H         1 UNK         0.0800 
    134 H134        5.5077  -15.6809  -50.8530 H         1 UNK         0.0800 
    135 H135        4.6169  -14.2057  -50.6079 H         1 UNK         0.0800 
    136 H136        2.2887  -14.2187  -51.2263 H         1 UNK         0.1150 
    137 H137        0.2585  -17.9301  -51.9283 H         1 UNK         0.1150 
    138 H138        4.2358  -17.9337  -50.3365 H         1 UNK         0.1150 
    139 H139        1.5397  -20.0234  -51.8054 H         1 UNK         0.0800 
    140 H140        3.2156  -19.9945  -51.3253 H         1 UNK         0.0800 
    141 H141       -0.3616  -19.7627  -50.3624 H         1 UNK         0.0800 
    142 H142       -0.1368  -18.8676  -48.8815 H         1 UNK         0.0800 
    143 H143       -0.5404  -21.8923  -49.0508 H         1 UNK         0.0600 
    144 H144        0.0852  -20.2087  -46.7844 H         1 UNK         0.3000 
    145 H145       -0.7276  -21.6622  -44.2998 H         1 UNK         0.0600 
    146 H146        0.9615  -23.2759  -43.3830 H         1 UNK         0.0600 
    147 H147       -0.3000  -24.0609  -44.3151 H         1 UNK         0.0600 
    148 H148        1.2925  -23.8373  -45.0217 H         1 UNK         0.0600 
    149 H149        0.9082  -20.1968  -44.2215 H         1 UNK         0.3000 
    150 H150        4.1315  -20.1187  -44.6001 H         1 UNK         0.0600 
    151 H151        4.2287  -19.8136  -47.0708 H         1 UNK         0.0600 
    152 H152        4.3843  -18.2664  -46.2538 H         1 UNK         0.0600 
    153 H153        2.8575  -18.7159  -47.0063 H         1 UNK         0.0600 
    154 H154        1.6700  -18.4167  -44.6649 H         1 UNK         0.3000 
    155 H155        2.4665  -17.1165  -41.4542 H         1 UNK         0.0600 
    156 H156        3.7416  -15.5077  -42.8421 H         1 UNK         0.0600 
    157 H157        2.1425  -14.8821  -42.4757 H         1 UNK         0.0600 
    158 H158        2.4897  -15.5320  -44.0731 H         1 UNK         0.0600 
    159 H159        0.3231  -16.4562  -43.1850 H         1 UNK         0.3000 
    160 H160       -1.9120  -18.9204  -41.7772 H         1 UNK         0.0600 
    161 H161       -1.5732  -15.8764  -41.6247 H         1 UNK         0.0600 
    162 H162       -1.6754  -16.9706  -40.2501 H         1 UNK         0.0600 
    163 H163       -3.0581  -16.7724  -41.3158 H         1 UNK         0.0600 
    164 H164       -1.6878  -16.8529  -43.9194 H         1 UNK         0.3000 
    165 H165       -2.5577  -19.1998  -46.4257 H         1 UNK         0.0600 
    166 H166       -4.3788  -17.6969  -46.9663 H         1 UNK         0.0600 
    167 H167       -4.7827  -18.3894  -45.4092 H         1 UNK         0.0600 
    168 H168       -4.1470  -16.7545  -45.4945 H         1 UNK         0.0600 
    169 H169       -2.1030  -16.4447  -46.6797 H         1 UNK         0.3000 
    170 H170        1.2845  -16.1316  -45.9032 H         1 UNK         0.0600 
    171 H171        1.6748  -17.0364  -48.1734 H         1 UNK         0.0600 
    172 H172        0.2962  -16.1430  -48.7823 H         1 UNK         0.0600 
    173 H173        1.6934  -15.2824  -48.1786 H         1 UNK         0.0600 
    174 H174       -0.5671  -14.3828  -47.2279 H         1 UNK         0.3000 
    175 H175       -1.5635  -12.7338  -46.1432 H         1 UNK         0.0600 
    176 H176       -3.5102  -14.1719  -45.5491 H         1 UNK         0.0600 
    177 H177       -3.1274  -14.0394  -43.8368 H         1 UNK         0.0600 
    178 H178       -3.6425  -12.6174  -44.7420 H         1 UNK         0.0600 
    179 H179       -0.8581  -12.8305  -43.2430 H         1 UNK         0.3000 
    180 H180        0.0055   -9.6213  -42.9924 H         1 UNK         0.0600 
    181 H181        0.7470  -12.4241  -41.9715 H         1 UNK         0.0600 
    182 H182       -0.6851  -11.4998  -41.5182 H         1 UNK         0.0600 
    183 H183        0.9078  -10.9212  -41.0740 H         1 UNK         0.0600 
    184 H184        2.1455   -9.4409  -43.5251 H         1 UNK         0.3000 
    185 H185        4.0350   -9.8248  -44.7695 H         1 UNK         0.0600 
    186 H186        4.5560  -10.1412  -42.3457 H         1 UNK         0.0600 
    187 H187        5.0739  -11.7940  -42.6518 H         1 UNK         0.0600 
    188 H188        5.9814  -10.4400  -43.3267 H         1 UNK         0.0600 
    189 H189        5.3609  -12.4079  -44.9894 H         1 UNK         0.3000 
    190 H190       -2.5211  -22.3336  -47.4987 H         1 UNK         0.3000 
    191 H191       -4.8085  -21.9278  -49.1095 H         1 UNK         0.0600 
    192 H192       -4.9424  -20.5578  -46.3622 H         1 UNK         0.0600 
    193 H193       -6.3110  -20.8458  -47.4291 H         1 UNK         0.0600 
    194 H194       -5.0424  -19.7384  -47.9194 H         1 UNK         0.0600 
    195 H195       -3.7801  -22.5320  -45.7182 H         1 UNK         0.3000 
    196 H196       -5.4943  -24.7130  -45.2115 H         1 UNK         0.0600 
    197 H197       -4.0094  -25.0370  -43.2130 H         1 UNK         0.0600 
    198 H198       -4.4780  -23.3574  -43.4217 H         1 UNK         0.0600 
    199 H199       -2.8597  -23.8827  -43.8788 H         1 UNK         0.0600 
    200 H200       -1.9791  -24.7194  -46.0686 H         1 UNK         0.3000 
    201 H201       -1.8909  -27.6394  -46.2922 H         1 UNK         0.0600 
    202 H202        0.0626  -26.3513  -45.4364 H         1 UNK         0.0600 
    203 H203        0.1850  -25.4850  -46.9680 H         1 UNK         0.0600 
    204 H204        0.4780  -27.2175  -46.9063 H         1 UNK         0.0600 
    205 H205       -2.4879  -24.9123  -48.3405 H         1 UNK         0.3000 
    206 H206       -2.0383  -26.2316  -50.9011 H         1 UNK         0.0600 
    207 H207       -1.6517  -23.7774  -50.5153 H         1 UNK         0.0600 
    208 H208       -2.8247  -24.0675  -51.7827 H         1 UNK         0.0600 
    209 H209       -3.3756  -23.5638  -50.1999 H         1 UNK         0.0600 
    210 H210       -4.4756  -26.5026  -48.6329 H         1 UNK         0.3000 
    211 H211       -6.5274  -27.2851  -48.4952 H         1 UNK         0.0600 
    212 H212       -6.0439  -28.5110  -51.2645 H         1 UNK         0.0600 
    213 H213       -7.2186  -29.0549  -50.0739 H         1 UNK         0.0600 
    214 H214       -5.5028  -29.2123  -49.7399 H         1 UNK         0.0600 
    215 H215       -6.2257  -24.6367  -49.5747 H         1 UNK         0.3000 
    216 H216       -7.1554  -22.9191  -50.5931 H         1 UNK         0.0600 
    217 H217       -9.6006  -22.6979  -50.5400 H         1 UNK         0.0600 
    218 H218       -9.0561  -23.5002  -49.0772 H         1 UNK         0.0600 
    219 H219       -9.8019  -24.4368  -50.3722 H         1 UNK         0.0600 
    220 H220       -6.2828  -25.2934  -52.3294 H         1 UNK         0.3000 
    221 H221       -7.8576  -24.7783  -54.8236 H         1 UNK         0.0600 
    222 H222       -6.3133  -27.2581  -53.8940 H         1 UNK         0.0600 
    223 H223       -8.0641  -27.0787  -53.9324 H         1 UNK         0.0600 
    224 H224       -7.1503  -27.0866  -55.4340 H         1 UNK         0.0600 
    225 H225       -4.5348  -25.5449  -53.6100 H         1 UNK         0.3000 
    226 H226       -3.3012  -24.7857  -56.1418 H         1 UNK         0.0600 
    227 H227       -2.3491  -26.5937  -54.7629 H         1 UNK         0.0600 
    228 H228       -1.1882  -25.2851  -54.9171 H         1 UNK         0.0600 
    229 H229       -2.0853  -25.4887  -53.4195 H         1 UNK         0.0600 
    230 H230       -4.2219  -23.1083  -53.2438 H         1 UNK         0.3000 
    231 H231       -3.6188  -20.5293  -54.2023 H         1 UNK         0.0600 
    232 H232       -1.2690  -21.0512  -53.4449 H         1 UNK         0.0600 
    233 H233       -1.8771  -21.5600  -51.8717 H         1 UNK         0.0600 
    234 H234       -2.0026  -19.8787  -52.3671 H         1 UNK         0.0600 
    235 H235       -4.4394  -18.9494  -52.6148 H         1 UNK         0.3000 
    236 H236       -5.7380  -19.8103  -50.1879 H         1 UNK         0.0600 
    237 H237       -8.0225  -19.0321  -50.8469 H         1 UNK         0.0600 
    238 H238       -7.4840  -18.8168  -52.5098 H         1 UNK         0.0600 
    239 H239       -7.5411  -20.4278  -51.7967 H         1 UNK         0.0600 
    240 H240       -3.6333  -18.3935  -50.2324 H         1 UNK         0.3000 
    241 H241       -3.9488  -15.5946  -50.9488 H         1 UNK         0.0600 
    242 H242       -5.4417  -14.9749  -47.6643 H         1 UNK         0.3800 
    243 H243       -5.8917  -15.6781  -49.2069 H         1 UNK         0.3800 
    244 H244       -1.5432  -16.9008  -49.6271 H         1 UNK         0.0800 
    245 H245       -1.8812  -17.0500  -51.3227 H         1 UNK         0.0800 
    246 H246       -0.5821  -15.8094  -52.9222 H         1 UNK         0.0800 
    247 H247        0.2610  -14.3127  -52.6370 H         1 UNK         0.0800 
@<TRIPOS>BOND
     1    1    2 1    
     2    1  127 1    
     3    1  128 1    
     4    1  129 1    
     5    2    3 2    
     6    2    4 am   BACKBONE|DICT|INTERRES
     7    4    5 1    
     8    4  130 1    
     9    5    6 1    
    10    5   65 1    
    11    5  131 1    
    12    6    7 1    
    13    6  132 1    
    14    6  133 1    
    15    7    8 1    
    16    8    9 1    
    17    8  134 1    
    18    8  135 1    
    19    9   10 ar   
    20    9   14 ar   
    21   10   11 ar   
    22   10  136 1    
    23   11   12 ar   
    24   11  126 1    
    25   12   13 ar   
    26   12  137 1    
    27   13   14 ar   
    28   13   15 1    
    29   14  138 1    
    30   15   16 1    
    31   15  139 1    
    32   15  140 1    
    33   16   17 1    
    34   17   18 1    
    35   17  141 1    
    36   17  142 1    
    37   18   19 1    
    38   18   67 1    
    39   18  143 1    
    40   19   20 am   BACKBONE|DICT|INTERRES
    41   19  144 1    
    42   20   21 2    
    43   20   22 1    
    44   22   23 1    
    45   22   24 1    
    46   22  145 1    
    47   23  146 1    
    48   23  147 1    
    49   23  148 1    
    50   24   25 am   BACKBONE|DICT|INTERRES
    51   24  149 1    
    52   25   26 2    
    53   25   27 1    
    54   27   28 1    
    55   27   29 1    
    56   27  150 1    
    57   28  151 1    
    58   28  152 1    
    59   28  153 1    
    60   29   30 am   BACKBONE|DICT|INTERRES
    61   29  154 1    
    62   30   31 2    
    63   30   32 1    
    64   32   33 1    
    65   32   34 1    
    66   32  155 1    
    67   33  156 1    
    68   33  157 1    
    69   33  158 1    
    70   34   35 am   BACKBONE|DICT|INTERRES
    71   34  159 1    
    72   35   36 2    
    73   35   37 1    
    74   37   38 1    
    75   37   39 1    
    76   37  160 1    
    77   38  161 1    
    78   38  162 1    
    79   38  163 1    
    80   39   40 am   BACKBONE|DICT|INTERRES
    81   39  164 1    
    82   40   41 2    
    83   40   42 1    
    84   42   43 1    
    85   42   44 1    
    86   42  165 1    
    87   43  166 1    
    88   43  167 1    
    89   43  168 1    
    90   44   45 am   BACKBONE|DICT|INTERRES
    91   44  169 1    
    92   45   46 2    
    93   45   47 1    
    94   47   48 1    
    95   47   49 1    
    96   47  170 1    
    97   48  171 1    
    98   48  172 1    
    99   48  173 1    
   100   49   50 am   BACKBONE|DICT|INTERRES
   101   49  174 1    
   102   50   51 2    
   103   50   52 1    
   104   52   53 1    
   105   52   54 1    
   106   52  175 1    
   107   53  176 1    
   108   53  177 1    
   109   53  178 1    
   110   54   55 am   BACKBONE|DICT|INTERRES
   111   54  179 1    
   112   55   56 2    
   113   55   57 1    
   114   57   58 1    
   115   57   59 1    
   116   57  180 1    
   117   58  181 1    
   118   58  182 1    
   119   58  183 1    
   120   59   60 am   BACKBONE|DICT|INTERRES
   121   59  184 1    
   122   60   61 2    
   123   60   62 1    
   124   62   63 1    
   125   62   64 1    
   126   62  185 1    
   127   63  186 1    
   128   63  187 1    
   129   63  188 1    
   130   64   65 am   BACKBONE|DICT|INTERRES
   131   64  189 1    
   132   65   66 2    
   133   67   68 2    
   134   67   69 am   BACKBONE|DICT|INTERRES
   135   69   70 1    
   136   69  190 1    
   137   70   71 1    
   138   70   72 1    
   139   70  191 1    
   140   71  192 1    
   141   71  193 1    
   142   71  194 1    
   143   72   73 2    
   144   72   74 am   BACKBONE|DICT|INTERRES
   145   74   75 1    
   146   74  195 1    
   147   75   76 1    
   148   75   77 1    
   149   75  196 1    
   150   76  197 1    
   151   76  198 1    
   152   76  199 1    
   153   77   78 2    
   154   77   79 am   BACKBONE|DICT|INTERRES
   155   79   80 1    
   156   79  200 1    
   157   80   81 1    
   158   80   82 1    
   159   80  201 1    
   160   81  202 1    
   161   81  203 1    
   162   81  204 1    
   163   82   83 2    
   164   82   84 am   BACKBONE|DICT|INTERRES
   165   84   85 1    
   166   84  205 1    
   167   85   86 1    
   168   85   87 1    
   169   85  206 1    
   170   86  207 1    
   171   86  208 1    
   172   86  209 1    
   173   87   88 2    
   174   87   89 am   BACKBONE|DICT|INTERRES
   175   89   90 1    
   176   89  210 1    
   177   90   91 1    
   178   90   92 1    
   179   90  211 1    
   180   91  212 1    
   181   91  213 1    
   182   91  214 1    
   183   92   93 2    
   184   92   94 am   BACKBONE|DICT|INTERRES
   185   94   95 1    
   186   94  215 1    
   187   95   96 1    
   188   95   97 1    
   189   95  216 1    
   190   96  217 1    
   191   96  218 1    
   192   96  219 1    
   193   97   98 2    
   194   97   99 am   BACKBONE|DICT|INTERRES
   195   99  100 1    
   196   99  220 1    
   197  100  101 1    
   198  100  102 1    
   199  100  221 1    
   200  101  222 1    
   201  101  223 1    
   202  101  224 1    
   203  102  103 2    
   204  102  104 am   BACKBONE|DICT|INTERRES
   205  104  105 1    
   206  104  225 1    
   207  105  106 1    
   208  105  107 1    
   209  105  226 1    
   210  106  227 1    
   211  106  228 1    
   212  106  229 1    
   213  107  108 2    
   214  107  109 am   BACKBONE|DICT|INTERRES
   215  109  110 1    
   216  109  230 1    
   217  110  111 1    
   218  110  112 1    
   219  110  231 1    
   220  111  232 1    
   221  111  233 1    
   222  111  234 1    
   223  112  113 2    
   224  112  114 am   BACKBONE|DICT|INTERRES
   225  114  115 1    
   226  114  235 1    
   227  115  116 1    
   228  115  117 1    
   229  115  236 1    
   230  116  237 1    
   231  116  238 1    
   232  116  239 1    
   233  117  118 2    
   234  117  119 am   BACKBONE|DICT|INTERRES
   235  119  120 1    
   236  119  240 1    
   237  120  121 1    
   238  120  124 1    
   239  120  241 1    
   240  121  122 am   BACKBONE|DICT|INTERRES
   241  121  123 2    
   242  122  242 1    
   243  122  243 1    
   244  124  125 1    
   245  124  244 1    
   246  124  245 1    
   247  125  126 1    
   248  126  246 1    
   249  126  247 1    
@<TRIPOS>SUBSTRUCTURE
     1 UNK         1 GROUP             0       ****    0 ROOT    
