@<TRIPOS>MOLECULE
3R540
247   249    1
SMALL
USER_CHARGES


@<TRIPOS>ATOM
      1 CA         -0.6960   -9.1280  -48.4334 C.3       0 UNK        -0.1800 
      2 C           0.3534  -10.2302  -48.4195 C.2       0 UNK         0.5000 
      3 O           1.5095   -9.9718  -48.0852 O.2       0 UNK        -0.5000 
      4 N          -0.0467  -11.4569  -48.7796 N.am      1 UNK        -0.5000 
      5 CA          0.8177  -12.6457  -48.8353 C.3       1 UNK         0.1400 
      6 C6          0.1569  -13.8331  -49.5821 C.3       23 UNK        -0.0398 
      7 S7         -0.5926  -13.3974  -51.1952 S.3       23 UNK        -0.2404 
      8 C8         -2.3702  -13.2339  -50.7983 C.3       23 UNK        -0.0205 
      9 C9         -2.9830  -14.5510  -50.3465 C.ar      23 UNK        -0.0193 
     10 C10        -3.3608  -15.5141  -51.2873 C.ar      23 UNK        -0.1150 
     11 C11        -3.8524  -16.7554  -50.8710 C.ar      23 UNK        -0.0193 
     12 C12        -3.9724  -17.0237  -49.5060 C.ar      23 UNK        -0.1150 
     13 C13        -3.5720  -16.0790  -48.5596 C.ar      23 UNK        -0.0193 
     14 C14        -3.1233  -14.8276  -48.9834 C.ar      23 UNK        -0.1150 
     15 C15        -3.5090  -16.4576  -47.0895 C.3       23 UNK        -0.0205 
     16 S16        -1.7866  -16.6923  -46.5144 S.3       23 UNK        -0.2404 
     17 C17        -1.0076  -17.7381  -47.8064 C.3       23 UNK        -0.0398 
     18 CA         -1.0449  -19.2763  -47.6114 C.3       11 UNK         0.1400 
     19 N          -0.0338  -19.7707  -46.6740 N.am      11 UNK        -0.5000 
     20 C           0.3657  -21.0505  -46.6300 C.2       10 UNK         0.5000 
     21 O          -0.0899  -21.9284  -47.3623 O.2       10 UNK        -0.5000 
     22 CA          1.4227  -21.4311  -45.5800 C.3       10 UNK         0.1400 
     23 CB          2.8246  -20.9969  -46.0318 C.3       10 UNK        -0.1800 
     24 N           1.1324  -20.8872  -44.2548 N.am      10 UNK        -0.5000 
     25 C           0.0526  -21.2040  -43.5257 C.2       9 UNK         0.5000 
     26 O          -0.8109  -22.0021  -43.8905 O.2       9 UNK        -0.5000 
     27 CA         -0.1104  -20.4768  -42.1793 C.3       9 UNK         0.1400 
     28 CB          0.7964  -21.0961  -41.1053 C.3       9 UNK        -0.1800 
     29 N           0.1597  -19.0437  -42.2845 N.am      9 UNK        -0.5000 
     30 C          -0.5608  -18.1932  -43.0296 C.2       8 UNK         0.5000 
     31 O          -1.5624  -18.5207  -43.6646 O.2       8 UNK        -0.5000 
     32 CA         -0.0452  -16.7460  -43.1115 C.3       8 UNK         0.1400 
     33 CB         -0.3776  -15.9769  -41.8230 C.3       8 UNK        -0.1800 
     34 N           1.3942  -16.6859  -43.3635 N.am      8 UNK        -0.5000 
     35 C           2.0122  -17.1780  -44.4473 C.2       7 UNK         0.5000 
     36 O           1.4287  -17.6930  -45.3988 O.2       7 UNK        -0.5000 
     37 CA          3.5496  -17.1346  -44.4422 C.3       7 UNK         0.1400 
     38 CB          4.0655  -15.7668  -44.9128 C.3       7 UNK        -0.1800 
     39 N           4.1000  -17.4477  -43.1232 N.am      7 UNK        -0.5000 
     40 C           4.0450  -18.6590  -42.5507 C.2       6 UNK         0.5000 
     41 O           3.5514  -19.6489  -43.0899 O.2       6 UNK        -0.5000 
     42 CA          4.5966  -18.7696  -41.1178 C.3       6 UNK         0.1400 
     43 CB          6.1251  -18.9193  -41.1337 C.3       6 UNK        -0.1800 
     44 N           4.2283  -17.6200  -40.2903 N.am      6 UNK        -0.5000 
     45 C           2.9756  -17.3391  -39.9046 C.2       5 UNK         0.5000 
     46 O           2.0054  -18.0503  -40.1663 O.2       5 UNK        -0.5000 
     47 CA          2.7674  -16.0139  -39.1446 C.3       5 UNK         0.1400 
     48 CB          2.9947  -16.2139  -37.6390 C.3       5 UNK        -0.1800 
     49 N           3.6200  -14.9197  -39.6258 N.am      5 UNK        -0.5000 
     50 C           3.5970  -14.4369  -40.8745 C.2       4 UNK         0.5000 
     51 O           2.8646  -14.8833  -41.7620 O.2       4 UNK        -0.5000 
     52 CA          4.5756  -13.3018  -41.2054 C.3       4 UNK         0.1400 
     53 CB          6.0264  -13.8148  -41.2511 C.3       4 UNK        -0.1800 
     54 N           4.2034  -12.7697  -42.5092 N.am      4 UNK        -0.5000 
     55 C           4.4564  -11.5495  -42.9880 C.2       3 UNK         0.5000 
     56 O           5.1011  -10.6963  -42.3769 O.2       3 UNK        -0.5000 
     57 CA          3.8995  -11.2258  -44.3907 C.3       3 UNK         0.1400 
     58 CB          5.0253  -11.2635  -45.4355 C.3       3 UNK        -0.1800 
     59 N           2.8285  -12.1252  -44.8328 N.am      3 UNK        -0.5000 
     60 C           1.5832  -12.1531  -44.3428 C.2       2 UNK         0.5000 
     61 O           1.1967  -11.4180  -43.4329 O.2       2 UNK        -0.5000 
     62 CA          0.6125  -13.1534  -45.0078 C.3       2 UNK         0.1400 
     63 CB         -0.7684  -13.1823  -44.3282 C.3       2 UNK        -0.1800 
     64 N           0.4113  -12.8503  -46.4233 N.am      2 UNK        -0.5000 
     65 C           1.2620  -13.1035  -47.4276 C.2       1 UNK         0.5000 
     66 O           2.3510  -13.6575  -47.2749 O.2       1 UNK        -0.5000 
     67 C          -2.4451  -19.8479  -47.3080 C.2       11 UNK         0.5000 
     68 O          -3.1563  -20.2250  -48.2385 O.2       11 UNK        -0.5000 
     69 N          -2.7934  -19.9686  -46.0176 N.am      12 UNK        -0.5000 
     70 CA         -4.0342  -20.5935  -45.5577 C.3       12 UNK         0.1400 
     71 CB         -4.1982  -20.3671  -44.0479 C.3       12 UNK        -0.1800 
     72 C          -4.1130  -22.0943  -45.8952 C.2       12 UNK         0.5000 
     73 O          -5.1963  -22.5817  -46.2169 O.2       12 UNK        -0.5000 
     74 N          -2.9708  -22.7931  -45.8332 N.am      13 UNK        -0.5000 
     75 CA         -2.8417  -24.1953  -46.2268 C.3       13 UNK         0.1400 
     76 CB         -1.5369  -24.7711  -45.6555 C.3       13 UNK        -0.1800 
     77 C          -2.9039  -24.3919  -47.7534 C.2       13 UNK         0.5000 
     78 O          -3.4937  -25.3714  -48.2082 O.2       13 UNK        -0.5000 
     79 N          -2.2908  -23.4729  -48.5128 N.am      14 UNK        -0.5000 
     80 CA         -2.2549  -23.4916  -49.9765 C.3       14 UNK         0.1400 
     81 CB         -1.1837  -22.5097  -50.4703 C.3       14 UNK        -0.1800 
     82 C          -3.6120  -23.1685  -50.6265 C.2       14 UNK         0.5000 
     83 O          -3.9292  -23.7315  -51.6753 O.2       14 UNK        -0.5000 
     84 N          -4.3817  -22.2659  -50.0059 N.am      15 UNK        -0.5000 
     85 CA         -5.7159  -21.8694  -50.4451 C.3       15 UNK         0.1400 
     86 CB         -6.1985  -20.6846  -49.5959 C.3       15 UNK        -0.1800 
     87 C          -6.7180  -23.0360  -50.3711 C.2       15 UNK         0.5000 
     88 O          -6.8591  -23.6576  -49.3166 O.2       15 UNK        -0.5000 
     89 N          -7.4014  -23.2895  -51.4944 N.am      16 UNK        -0.5000 
     90 CA         -8.4302  -24.3132  -51.7060 C.3       16 UNK         0.1400 
     91 CB         -9.6479  -24.0820  -50.7866 C.3       16 UNK        -0.1800 
     92 C          -7.9102  -25.7660  -51.6501 C.2       16 UNK         0.5000 
     93 O          -8.7158  -26.6940  -51.5574 O.2       16 UNK        -0.5000 
     94 N          -6.5907  -25.9657  -51.7740 N.am      17 UNK        -0.5000 
     95 CA         -5.9329  -27.2753  -51.8279 C.3       17 UNK         0.1400 
     96 CB         -4.4995  -27.1301  -51.2887 C.3       17 UNK        -0.1800 
     97 C          -5.9734  -27.8561  -53.2578 C.2       17 UNK         0.5000 
     98 O          -4.9296  -28.1842  -53.8240 O.2       17 UNK        -0.5000 
     99 N          -7.1837  -27.9040  -53.8376 N.am      18 UNK        -0.5000 
    100 CA        -7.5009  -28.1971  -55.2449 C.3       18 UNK         0.1400 
    101 CB        -7.1270  -29.6495  -55.6065 C.3       18 UNK        -0.1800 
    102 C         -6.9093  -27.1661  -56.2372 C.2       18 UNK         0.5000 
    103 O         -6.8147  -27.4439  -57.4339 O.2       18 UNK        -0.5000 
    104 N         -6.5326  -25.9937  -55.7166 N.am      19 UNK        -0.5000 
    105 CA        -5.8445  -24.8811  -56.3575 C.3       19 UNK         0.1400 
    106 CB        -4.4424  -25.3180  -56.8387 C.3       19 UNK        -0.1800 
    107 C         -5.7409  -23.7549  -55.3125 C.2       19 UNK         0.5000 
    108 O         -6.2272  -23.9102  -54.1882 O.2       19 UNK        -0.5000 
    109 N         -5.0911  -22.6509  -55.6871 N.am      20 UNK        -0.5000 
    110 CA        -4.7370  -21.5482  -54.7974 C.3       20 UNK         0.1400 
    111 CB        -5.7680  -20.4123  -54.9254 C.3       20 UNK        -0.1800 
    112 C         -3.2993  -21.1171  -55.1196 C.2       20 UNK         0.5000 
    113 O         -3.0462  -19.9543  -55.4399 O.2       20 UNK        -0.5000 
    114 N         -2.3747  -22.0849  -55.0562 N.am      21 UNK        -0.5000 
    115 CA        -0.9405  -21.9288  -55.3179 C.3       21 UNK         0.1400 
    116 CB        -0.3564  -23.3084  -55.6718 C.3       21 UNK        -0.1800 
    117 C         -0.2090  -21.2558  -54.1352 C.2       21 UNK         0.5000 
    118 O          0.7366  -21.8172  -53.5799 O.2       21 UNK        -0.5000 
    119 N         -0.6981  -20.0750  -53.7487 N.am      22 UNK        -0.5000 
    120 CA        -0.2870  -19.3144  -52.5600 C.3       22 UNK         0.1400 
    121 C          1.0613  -18.5496  -52.6991 C.2       22 UNK         0.5000 
    122 N          1.6722  -18.4793  -53.8755 N.am      22 UNK        -0.7600 
    123 O          1.5671  -18.0154  -51.7163 O.2       22 UNK        -0.5000 
    124 C124       -1.4158  -18.3614  -52.0955 C.3       23 UNK        -0.0398 
    125 S125       -2.9959  -19.2246  -51.7790 S.3       23 UNK        -0.2404 
    126 C126       -4.1772  -17.8409  -51.8860 C.3       23 UNK        -0.0205 
    127 H127       -0.3958   -8.3331  -49.1162 H         1 UNK         0.0600 
    128 H128       -1.6707   -9.4992  -48.7514 H         1 UNK         0.0600 
    129 H129       -0.8036   -8.7003  -47.4365 H         1 UNK         0.0600 
    130 H130       -1.0010  -11.5966  -49.0745 H         1 UNK         0.3000 
    131 H131        1.7191  -12.3666  -49.3852 H         1 UNK         0.0600 
    132 H132       -0.5808  -14.3216  -48.9499 H         1 UNK         0.0800 
    133 H133        0.9094  -14.5993  -49.7774 H         1 UNK         0.0800 
    134 H134       -2.8952  -12.8778  -51.6859 H         1 UNK         0.0800 
    135 H135       -2.5122  -12.4660  -50.0374 H         1 UNK         0.0800 
    136 H136       -3.2348  -15.3093  -52.3412 H         1 UNK         0.1150 
    137 H137       -4.3023  -17.9996  -49.1823 H         1 UNK         0.1150 
    138 H138       -2.8091  -14.1004  -48.2479 H         1 UNK         0.1150 
    139 H139       -3.9788  -15.6756  -46.4916 H         1 UNK         0.0800 
    140 H140       -4.0787  -17.3684  -46.9005 H         1 UNK         0.0800 
    141 H141        0.0330  -17.4196  -47.8809 H         1 UNK         0.0800 
    142 H142       -1.4233  -17.4942  -48.7811 H         1 UNK         0.0800 
    143 H143       -0.7671  -19.6907  -48.5834 H         1 UNK         0.0600 
    144 H144        0.3994  -19.0821  -46.0615 H         1 UNK         0.3000 
    145 H145        1.4219  -22.5197  -45.4938 H         1 UNK         0.0600 
    146 H146        3.5879  -21.3394  -45.3330 H         1 UNK         0.0600 
    147 H147        3.0668  -21.4166  -47.0090 H         1 UNK         0.0600 
    148 H148        2.9053  -19.9132  -46.1114 H         1 UNK         0.0600 
    149 H149        1.8195  -20.2495  -43.8651 H         1 UNK         0.3000 
    150 H150       -1.1474  -20.5985  -41.8596 H         1 UNK         0.0600 
    151 H151        0.6024  -22.1641  -40.9987 H         1 UNK         0.0600 
    152 H152        0.6250  -20.6349  -40.1325 H         1 UNK         0.0600 
    153 H153        1.8523  -20.9757  -41.3492 H         1 UNK         0.0600 
    154 H154        0.9464  -18.6859  -41.7519 H         1 UNK         0.3000 
    155 H155       -0.5443  -16.2485  -43.9429 H         1 UNK         0.0600 
    156 H156       -0.0180  -16.4958  -40.9352 H         1 UNK         0.0600 
    157 H157       -1.4557  -15.8551  -41.7141 H         1 UNK         0.0600 
    158 H158        0.0676  -14.9829  -41.8219 H         1 UNK         0.0600 
    159 H159        1.9591  -16.2275  -42.6532 H         1 UNK         0.3000 
    160 H160        3.9095  -17.8886  -45.1450 H         1 UNK         0.0600 
    161 H161        5.1548  -15.7281  -44.9040 H         1 UNK         0.0600 
    162 H162        3.6947  -14.9556  -44.2891 H         1 UNK         0.0600 
    163 H163        3.7424  -15.5658  -45.9346 H         1 UNK         0.0600 
    164 H164        4.4722  -16.6767  -42.5906 H         1 UNK         0.3000 
    165 H165        4.1700  -19.6673  -40.6648 H         1 UNK         0.0600 
    166 H166        6.5160  -19.0742  -40.1279 H         1 UNK         0.0600 
    167 H167        6.4261  -19.7788  -41.7341 H         1 UNK         0.0600 
    168 H168        6.6140  -18.0387  -41.5523 H         1 UNK         0.0600 
    169 H169        4.9677  -16.9847  -40.0296 H         1 UNK         0.3000 
    170 H170        1.7287  -15.7122  -39.2936 H         1 UNK         0.0600 
    171 H171        2.3580  -17.0100  -37.2505 H         1 UNK         0.0600 
    172 H172        4.0285  -16.4834  -37.4192 H         1 UNK         0.0600 
    173 H173        2.7569  -15.3085  -37.0803 H         1 UNK         0.0600 
    174 H174        4.2505  -14.5100  -38.9515 H         1 UNK         0.3000 
    175 H175        4.4738  -12.5226  -40.4475 H         1 UNK         0.0600 
    176 H176        6.1504  -14.6032  -41.9946 H         1 UNK         0.0600 
    177 H177        6.7208  -13.0120  -41.4994 H         1 UNK         0.0600 
    178 H178        6.3348  -14.2186  -40.2863 H         1 UNK         0.0600 
    179 H179        3.6011  -13.3858  -43.0390 H         1 UNK         0.3000 
    180 H180        3.4981  -10.2109  -44.3560 H         1 UNK         0.0600 
    181 H181        5.4537  -12.2625  -45.5275 H         1 UNK         0.0600 
    182 H182        5.8335  -10.5820  -45.1668 H         1 UNK         0.0600 
    183 H183        4.6609  -10.9625  -46.4181 H         1 UNK         0.0600 
    184 H184        3.0333  -12.7265  -45.6245 H         1 UNK         0.3000 
    185 H185        1.0537  -14.1480  -44.9173 H         1 UNK         0.0600 
    186 H186       -0.6801  -13.3684  -43.2587 H         1 UNK         0.0600 
    187 H187       -1.2957  -12.2353  -44.4483 H         1 UNK         0.0600 
    188 H188       -1.3960  -13.9703  -44.7450 H         1 UNK         0.0600 
    189 H189       -0.4349  -12.3486  -46.6481 H         1 UNK         0.3000 
    190 H190       -2.1748  -19.6011  -45.3008 H         1 UNK         0.3000 
    191 H191       -4.8633  -20.0977  -46.0669 H         1 UNK         0.0600 
    192 H192       -3.3717  -20.8018  -43.4846 H         1 UNK         0.0600 
    193 H193       -5.1209  -20.8189  -43.6817 H         1 UNK         0.0600 
    194 H194       -4.2412  -19.3036  -43.8125 H         1 UNK         0.0600 
    195 H195       -2.1323  -22.3345  -45.4940 H         1 UNK         0.3000 
    196 H196       -3.6728  -24.7508  -45.7873 H         1 UNK         0.0600 
    197 H197       -1.4250  -25.8231  -45.9206 H         1 UNK         0.0600 
    198 H198       -1.5215  -24.7061  -44.5674 H         1 UNK         0.0600 
    199 H199       -0.6617  -24.2420  -46.0333 H         1 UNK         0.0600 
    200 H200       -1.7629  -22.7365  -48.0548 H         1 UNK         0.3000 
    201 H201       -1.9675  -24.4955  -50.2959 H         1 UNK         0.0600 
    202 H202       -1.1277  -22.5135  -51.5589 H         1 UNK         0.0600 
    203 H203       -0.1965  -22.7742  -50.0917 H         1 UNK         0.0600 
    204 H204       -1.4027  -21.4891  -50.1560 H         1 UNK         0.0600 
    205 H205       -4.0190  -21.8006  -49.1805 H         1 UNK         0.3000 
    206 H206       -5.6367  -21.5307  -51.4800 H         1 UNK         0.0600 
    207 H207       -5.5410  -19.8259  -49.7181 H         1 UNK         0.0600 
    208 H208       -7.2008  -20.3719  -49.8906 H         1 UNK         0.0600 
    209 H209       -6.2271  -20.9364  -48.5348 H         1 UNK         0.0600 
    210 H210       -7.1416  -22.7876  -52.3338 H         1 UNK         0.3000 
    211 H211       -8.7717  -24.1700  -52.7321 H         1 UNK         0.0600 
    212 H212       -9.4144  -24.2898  -49.7422 H         1 UNK         0.0600 
    213 H213      -10.4793  -24.7296  -51.0675 H         1 UNK         0.0600 
    214 H214      -10.0040  -23.0540  -50.8538 H         1 UNK         0.0600 
    215 H215       -5.9958  -25.1567  -51.9081 H         1 UNK         0.3000 
    216 H216       -6.4626  -27.9735  -51.1766 H         1 UNK         0.0600 
    217 H217       -3.9930  -28.0952  -51.2533 H         1 UNK         0.0600 
    218 H218       -4.5021  -26.7280  -50.2762 H         1 UNK         0.0600 
    219 H219       -3.8999  -26.4647  -51.9109 H         1 UNK         0.0600 
    220 H220       -7.9694  -27.6147  -53.2644 H         1 UNK         0.3000 
    221 H221       -8.5844  -28.1066  -55.3325 H         1 UNK         0.0600 
    222 H222       -6.0472  -29.7985  -55.6268 H         1 UNK         0.0600 
    223 H223       -7.5507  -30.3555  -54.8924 H         1 UNK         0.0600 
    224 H224       -7.5100  -29.9179  -56.5917 H         1 UNK         0.0600 
    225 H225       -6.6846  -25.8309  -54.7285 H         1 UNK         0.3000 
    226 H226       -6.4416  -24.5270  -57.1994 H         1 UNK         0.0600 
    227 H227       -3.8303  -25.6754  -56.0093 H         1 UNK         0.0600 
    228 H228       -4.5003  -26.1183  -57.5758 H         1 UNK         0.0600 
    229 H229       -3.9056  -24.4968  -57.3141 H         1 UNK         0.0600 
    230 H230       -4.7115  -22.5950  -56.6223 H         1 UNK         0.3000 
    231 H231       -4.7276  -21.8863  -53.7590 H         1 UNK         0.0600 
    232 H232       -6.7660  -20.7556  -54.6531 H         1 UNK         0.0600 
    233 H233       -5.8129  -20.0229  -55.9430 H         1 UNK         0.0600 
    234 H234       -5.5177  -19.5824  -54.2632 H         1 UNK         0.0600 
    235 H235       -2.6711  -23.0025  -54.7560 H         1 UNK         0.3000 
    236 H236       -0.8115  -21.2806  -56.1872 H         1 UNK         0.0600 
    237 H237        0.7035  -23.2337  -55.9186 H         1 UNK         0.0600 
    238 H238       -0.4534  -24.0113  -54.8433 H         1 UNK         0.0600 
    239 H239       -0.8597  -23.7393  -56.5375 H         1 UNK         0.0600 
    240 H240       -1.4967  -19.7105  -54.2586 H         1 UNK         0.3000 
    241 H241       -0.1248  -20.0356  -51.7574 H         1 UNK         0.0600 
    242 H242        2.5476  -17.9857  -53.9525 H         1 UNK         0.3800 
    243 H243        1.2699  -18.9189  -54.6876 H         1 UNK         0.3800 
    244 H244       -1.1283  -17.8446  -51.1786 H         1 UNK         0.0800 
    245 H245       -1.5816  -17.5860  -52.8454 H         1 UNK         0.0800 
    246 H246       -4.1732  -17.4420  -52.9016 H         1 UNK         0.0800 
    247 H247       -5.1848  -18.2169  -51.7049 H         1 UNK         0.0800 
@<TRIPOS>BOND
     1    1    2 1    
     2    1  127 1    
     3    1  128 1    
     4    1  129 1    
     5    2    3 2    
     6    2    4 am   BACKBONE|DICT|INTERRES
     7    4    5 1    
     8    4  130 1    
     9    5    6 1    
    10    5   65 1    
    11    5  131 1    
    12    6    7 1    
    13    6  132 1    
    14    6  133 1    
    15    7    8 1    
    16    8    9 1    
    17    8  134 1    
    18    8  135 1    
    19    9   10 ar   
    20    9   14 ar   
    21   10   11 ar   
    22   10  136 1    
    23   11   12 ar   
    24   11  126 1    
    25   12   13 ar   
    26   12  137 1    
    27   13   14 ar   
    28   13   15 1    
    29   14  138 1    
    30   15   16 1    
    31   15  139 1    
    32   15  140 1    
    33   16   17 1    
    34   17   18 1    
    35   17  141 1    
    36   17  142 1    
    37   18   19 1    
    38   18   67 1    
    39   18  143 1    
    40   19   20 am   BACKBONE|DICT|INTERRES
    41   19  144 1    
    42   20   21 2    
    43   20   22 1    
    44   22   23 1    
    45   22   24 1    
    46   22  145 1    
    47   23  146 1    
    48   23  147 1    
    49   23  148 1    
    50   24   25 am   BACKBONE|DICT|INTERRES
    51   24  149 1    
    52   25   26 2    
    53   25   27 1    
    54   27   28 1    
    55   27   29 1    
    56   27  150 1    
    57   28  151 1    
    58   28  152 1    
    59   28  153 1    
    60   29   30 am   BACKBONE|DICT|INTERRES
    61   29  154 1    
    62   30   31 2    
    63   30   32 1    
    64   32   33 1    
    65   32   34 1    
    66   32  155 1    
    67   33  156 1    
    68   33  157 1    
    69   33  158 1    
    70   34   35 am   BACKBONE|DICT|INTERRES
    71   34  159 1    
    72   35   36 2    
    73   35   37 1    
    74   37   38 1    
    75   37   39 1    
    76   37  160 1    
    77   38  161 1    
    78   38  162 1    
    79   38  163 1    
    80   39   40 am   BACKBONE|DICT|INTERRES
    81   39  164 1    
    82   40   41 2    
    83   40   42 1    
    84   42   43 1    
    85   42   44 1    
    86   42  165 1    
    87   43  166 1    
    88   43  167 1    
    89   43  168 1    
    90   44   45 am   BACKBONE|DICT|INTERRES
    91   44  169 1    
    92   45   46 2    
    93   45   47 1    
    94   47   48 1    
    95   47   49 1    
    96   47  170 1    
    97   48  171 1    
    98   48  172 1    
    99   48  173 1    
   100   49   50 am   BACKBONE|DICT|INTERRES
   101   49  174 1    
   102   50   51 2    
   103   50   52 1    
   104   52   53 1    
   105   52   54 1    
   106   52  175 1    
   107   53  176 1    
   108   53  177 1    
   109   53  178 1    
   110   54   55 am   BACKBONE|DICT|INTERRES
   111   54  179 1    
   112   55   56 2    
   113   55   57 1    
   114   57   58 1    
   115   57   59 1    
   116   57  180 1    
   117   58  181 1    
   118   58  182 1    
   119   58  183 1    
   120   59   60 am   BACKBONE|DICT|INTERRES
   121   59  184 1    
   122   60   61 2    
   123   60   62 1    
   124   62   63 1    
   125   62   64 1    
   126   62  185 1    
   127   63  186 1    
   128   63  187 1    
   129   63  188 1    
   130   64   65 am   BACKBONE|DICT|INTERRES
   131   64  189 1    
   132   65   66 2    
   133   67   68 2    
   134   67   69 am   BACKBONE|DICT|INTERRES
   135   69   70 1    
   136   69  190 1    
   137   70   71 1    
   138   70   72 1    
   139   70  191 1    
   140   71  192 1    
   141   71  193 1    
   142   71  194 1    
   143   72   73 2    
   144   72   74 am   BACKBONE|DICT|INTERRES
   145   74   75 1    
   146   74  195 1    
   147   75   76 1    
   148   75   77 1    
   149   75  196 1    
   150   76  197 1    
   151   76  198 1    
   152   76  199 1    
   153   77   78 2    
   154   77   79 am   BACKBONE|DICT|INTERRES
   155   79   80 1    
   156   79  200 1    
   157   80   81 1    
   158   80   82 1    
   159   80  201 1    
   160   81  202 1    
   161   81  203 1    
   162   81  204 1    
   163   82   83 2    
   164   82   84 am   BACKBONE|DICT|INTERRES
   165   84   85 1    
   166   84  205 1    
   167   85   86 1    
   168   85   87 1    
   169   85  206 1    
   170   86  207 1    
   171   86  208 1    
   172   86  209 1    
   173   87   88 2    
   174   87   89 am   BACKBONE|DICT|INTERRES
   175   89   90 1    
   176   89  210 1    
   177   90   91 1    
   178   90   92 1    
   179   90  211 1    
   180   91  212 1    
   181   91  213 1    
   182   91  214 1    
   183   92   93 2    
   184   92   94 am   BACKBONE|DICT|INTERRES
   185   94   95 1    
   186   94  215 1    
   187   95   96 1    
   188   95   97 1    
   189   95  216 1    
   190   96  217 1    
   191   96  218 1    
   192   96  219 1    
   193   97   98 2    
   194   97   99 am   BACKBONE|DICT|INTERRES
   195   99  100 1    
   196   99  220 1    
   197  100  101 1    
   198  100  102 1    
   199  100  221 1    
   200  101  222 1    
   201  101  223 1    
   202  101  224 1    
   203  102  103 2    
   204  102  104 am   BACKBONE|DICT|INTERRES
   205  104  105 1    
   206  104  225 1    
   207  105  106 1    
   208  105  107 1    
   209  105  226 1    
   210  106  227 1    
   211  106  228 1    
   212  106  229 1    
   213  107  108 2    
   214  107  109 am   BACKBONE|DICT|INTERRES
   215  109  110 1    
   216  109  230 1    
   217  110  111 1    
   218  110  112 1    
   219  110  231 1    
   220  111  232 1    
   221  111  233 1    
   222  111  234 1    
   223  112  113 2    
   224  112  114 am   BACKBONE|DICT|INTERRES
   225  114  115 1    
   226  114  235 1    
   227  115  116 1    
   228  115  117 1    
   229  115  236 1    
   230  116  237 1    
   231  116  238 1    
   232  116  239 1    
   233  117  118 2    
   234  117  119 am   BACKBONE|DICT|INTERRES
   235  119  120 1    
   236  119  240 1    
   237  120  121 1    
   238  120  124 1    
   239  120  241 1    
   240  121  122 am   BACKBONE|DICT|INTERRES
   241  121  123 2    
   242  122  242 1    
   243  122  243 1    
   244  124  125 1    
   245  124  244 1    
   246  124  245 1    
   247  125  126 1    
   248  126  246 1    
   249  126  247 1    
@<TRIPOS>SUBSTRUCTURE
     1 UNK         1 GROUP             0       ****    0 ROOT    
