@<TRIPOS>MOLECULE
3R540
247   249    1
SMALL
USER_CHARGES


@<TRIPOS>ATOM
      1 CA         -0.4700  -10.7065  -47.7594 C.3       0 UNK        -0.1800 
      2 C           0.9112  -11.0445  -47.2188 C.2       0 UNK         0.5000 
      3 O           1.1291  -10.9660  -46.0117 O.2       0 UNK        -0.5000 
      4 N           1.8481  -11.3986  -48.1100 N.am      1 UNK        -0.5000 
      5 CA          3.2102  -11.8889  -47.8245 C.3       1 UNK         0.1400 
      6 C6          3.2330  -13.2178  -47.0158 C.3       23 UNK        -0.0398 
      7 S7          2.1811  -14.5278  -47.7236 S.3       23 UNK        -0.2404 
      8 C8          3.4123  -15.4931  -48.6521 C.3       23 UNK        -0.0205 
      9 C9          2.7743  -16.6247  -49.4458 C.ar      23 UNK        -0.0193 
     10 C10         1.8300  -16.3402  -50.4368 C.ar      23 UNK        -0.1150 
     11 C11         1.2512  -17.3662  -51.1927 C.ar      23 UNK        -0.0193 
     12 C12         1.6541  -18.6856  -50.9657 C.ar      23 UNK        -0.1150 
     13 C13         2.6208  -18.9830  -50.0017 C.ar      23 UNK        -0.0193 
     14 C14         3.1644  -17.9502  -49.2316 C.ar      23 UNK        -0.1150 
     15 C15         3.1276  -20.4092  -49.8407 C.3       23 UNK        -0.0205 
     16 S16         2.4445  -21.2334  -48.3740 S.3       23 UNK        -0.2404 
     17 C17         0.7162  -21.5159  -48.8812 C.3       23 UNK        -0.0398 
     18 CA          0.0240  -22.5537  -47.9687 C.3       11 UNK         0.1400 
     19 N          -0.1222  -22.0841  -46.5873 N.am      11 UNK        -0.5000 
     20 C          -0.5138  -22.8486  -45.5588 C.2       10 UNK         0.5000 
     21 O          -0.7411  -24.0548  -45.6523 O.2       10 UNK        -0.5000 
     22 CA         -0.7423  -22.1399  -44.2114 C.3       10 UNK         0.1400 
     23 CB          0.5802  -21.9482  -43.4545 C.3       10 UNK        -0.1800 
     24 N          -1.4217  -20.8529  -44.3694 N.am      10 UNK        -0.5000 
     25 C          -2.6815  -20.7184  -44.8079 C.2       9 UNK         0.5000 
     26 O          -3.4180  -21.6735  -45.0539 O.2       9 UNK        -0.5000 
     27 CA         -3.1946  -19.2860  -45.0536 C.3       9 UNK         0.1400 
     28 CB         -3.6754  -18.6445  -43.7444 C.3       9 UNK        -0.1800 
     29 N          -2.1954  -18.4252  -45.6889 N.am      9 UNK        -0.5000 
     30 C          -1.6992  -18.6232  -46.9190 C.2       8 UNK         0.5000 
     31 O          -2.0774  -19.5228  -47.6665 O.2       8 UNK        -0.5000 
     32 CA         -0.5540  -17.6974  -47.3685 C.3       8 UNK         0.1400 
     33 CB         -1.1118  -16.3954  -47.9621 C.3       8 UNK        -0.1800 
     34 N           0.3858  -17.3996  -46.2838 N.am      8 UNK        -0.5000 
     35 C           1.1332  -18.3249  -45.6639 C.2       7 UNK         0.5000 
     36 O           1.1161  -19.5188  -45.9536 O.2       7 UNK        -0.5000 
     37 CA          1.9817  -17.8563  -44.4693 C.3       7 UNK         0.1400 
     38 CB          3.2200  -17.0756  -44.9337 C.3       7 UNK        -0.1800 
     39 N           1.2021  -17.0489  -43.5314 N.am      7 UNK        -0.5000 
     40 C           0.1830  -17.5236  -42.7968 C.2       6 UNK         0.5000 
     41 O          -0.1460  -18.7090  -42.7784 O.2       6 UNK        -0.5000 
     42 CA         -0.6407  -16.5059  -41.9795 C.3       6 UNK         0.1400 
     43 CB         -0.0752  -16.3757  -40.5578 C.3       6 UNK        -0.1800 
     44 N          -0.6955  -15.1802  -42.5944 N.am      6 UNK        -0.5000 
     45 C          -1.1580  -14.9147  -43.8236 C.2       5 UNK         0.5000 
     46 O          -1.7379  -15.7461  -44.5225 O.2       5 UNK        -0.5000 
     47 CA         -0.8790  -13.5089  -44.3940 C.3       5 UNK         0.1400 
     48 CB         -2.1733  -12.6842  -44.4493 C.3       5 UNK        -0.1800 
     49 N           0.1487  -12.7313  -43.6880 N.am      5 UNK        -0.5000 
     50 C           1.4294  -13.0844  -43.5118 C.2       4 UNK         0.5000 
     51 O           1.8832  -14.1941  -43.8070 O.2       4 UNK        -0.5000 
     52 CA          2.3455  -12.0295  -42.8708 C.3       4 UNK         0.1400 
     53 CB          1.9678  -11.8014  -41.3945 C.3       4 UNK        -0.1800 
     54 N           3.7246  -12.5038  -42.9559 N.am      4 UNK        -0.5000 
     55 C           4.8601  -11.7960  -42.9834 C.2       3 UNK         0.5000 
     56 O           5.9510  -12.3538  -43.0987 O.2       3 UNK        -0.5000 
     57 CA          4.8131  -10.2563  -42.9447 C.3       3 UNK         0.1400 
     58 CB          6.0290   -9.6457  -42.2218 C.3       3 UNK        -0.1800 
     59 N           4.7802   -9.7990  -44.3258 N.am      3 UNK        -0.5000 
     60 C           4.2563   -8.6574  -44.7780 C.2       2 UNK         0.5000 
     61 O           3.7620   -7.7973  -44.0484 O.2       2 UNK        -0.5000 
     62 CA          4.2565   -8.4502  -46.3080 C.3       2 UNK         0.1400 
     63 CB          5.6543   -8.0630  -46.8281 C.3       2 UNK        -0.1800 
     64 N           3.6863   -9.5828  -47.0529 N.am      2 UNK        -0.5000 
     65 C           4.1413  -10.8402  -47.1663 C.2       1 UNK         0.5000 
     66 O           5.2430  -11.1979  -46.7460 O.2       1 UNK        -0.5000 
     67 C          -1.3214  -23.0212  -48.5606 C.2       11 UNK         0.5000 
     68 O          -1.3612  -24.0815  -49.1852 O.2       11 UNK        -0.5000 
     69 N          -2.4038  -22.2714  -48.3004 N.am      12 UNK        -0.5000 
     70 CA         -3.7745  -22.6443  -48.6517 C.3       12 UNK         0.1400 
     71 CB         -4.7521  -21.5189  -48.2793 C.3       12 UNK        -0.1800 
     72 C          -4.2077  -23.9535  -47.9756 C.2       12 UNK         0.5000 
     73 O          -4.7264  -24.8357  -48.6552 O.2       12 UNK        -0.5000 
     74 N          -3.9612  -24.0709  -46.6628 N.am      13 UNK        -0.5000 
     75 CA         -4.2649  -25.2585  -45.8629 C.3       13 UNK         0.1400 
     76 CB         -3.9832  -24.9728  -44.3805 C.3       13 UNK        -0.1800 
     77 C          -3.5080  -26.5118  -46.3384 C.2       13 UNK         0.5000 
     78 O          -4.1170  -27.5754  -46.4578 O.2       13 UNK        -0.5000 
     79 N          -2.2149  -26.3558  -46.6567 N.am      14 UNK        -0.5000 
     80 CA         -1.3615  -27.4035  -47.2249 C.3       14 UNK         0.1400 
     81 CB          0.0882  -26.8996  -47.2877 C.3       14 UNK        -0.1800 
     82 C          -1.8313  -27.8832  -48.6132 C.2       14 UNK         0.5000 
     83 O          -1.7168  -29.0704  -48.9188 O.2       14 UNK        -0.5000 
     84 N          -2.3839  -26.9599  -49.4091 N.am      15 UNK        -0.5000 
     85 CA         -2.9837  -27.2129  -50.7195 C.3       15 UNK         0.1400 
     86 CB         -2.8054  -25.9517  -51.5778 C.3       15 UNK        -0.1800 
     87 C          -4.4712  -27.6229  -50.6443 C.2       15 UNK         0.5000 
     88 O          -5.1100  -27.7403  -51.6908 O.2       15 UNK        -0.5000 
     89 N          -5.0146  -27.8032  -49.4293 N.am      16 UNK        -0.5000 
     90 CA         -6.4055  -28.1614  -49.1183 C.3       16 UNK         0.1400 
     91 CB         -6.6948  -29.6136  -49.5507 C.3       16 UNK        -0.1800 
     92 C          -7.4419  -27.1548  -49.6694 C.2       16 UNK         0.5000 
     93 O          -8.5514  -27.5457  -50.0356 O.2       16 UNK        -0.5000 
     94 N          -7.0416  -25.8769  -49.7360 N.am      17 UNK        -0.5000 
     95 CA         -7.7581  -24.7150  -50.2703 C.3       17 UNK         0.1400 
     96 CB         -9.0280  -24.4256  -49.4445 C.3       17 UNK        -0.1800 
     97 C          -8.0407  -24.7740  -51.7881 C.2       17 UNK         0.5000 
     98 O          -8.8060  -23.9481  -52.2885 O.2       17 UNK        -0.5000 
     99 N          -7.4180  -25.7193  -52.5073 N.am      18 UNK        -0.5000 
    100 CA        -7.5796  -25.8925  -53.9524 C.3       18 UNK         0.1400 
    101 CB        -7.2556  -27.3489  -54.3195 C.3       18 UNK        -0.1800 
    102 C         -6.7051  -24.9256  -54.7729 C.2       18 UNK         0.5000 
    103 O         -6.9989  -24.6952  -55.9468 O.2       18 UNK        -0.5000 
    104 N         -5.6484  -24.3877  -54.1543 N.am      19 UNK        -0.5000 
    105 CA        -4.6560  -23.4981  -54.7465 C.3       19 UNK         0.1400 
    106 CB        -3.7280  -24.3027  -55.6825 C.3       19 UNK        -0.1800 
    107 C         -3.8626  -22.8211  -53.6159 C.2       19 UNK         0.5000 
    108 O         -4.1513  -23.0544  -52.4402 O.2       19 UNK        -0.5000 
    109 N         -2.8681  -22.0074  -53.9994 N.am      20 UNK        -0.5000 
    110 CA        -1.8077  -21.4295  -53.1591 C.3       20 UNK         0.1400 
    111 CB        -0.9270  -22.5498  -52.5686 C.3       20 UNK        -0.1800 
    112 C         -2.2724  -20.4341  -52.0740 C.2       20 UNK         0.5000 
    113 O         -1.4748  -20.0805  -51.2064 O.2       20 UNK        -0.5000 
    114 N         -3.5297  -19.9802  -52.1473 N.am      21 UNK        -0.5000 
    115 CA        -4.1187  -19.0356  -51.1975 C.3       21 UNK         0.1400 
    116 CB        -5.6331  -19.2883  -51.1248 C.3       21 UNK        -0.1800 
    117 C         -3.8307  -17.5651  -51.5453 C.2       21 UNK         0.5000 
    118 O         -3.8368  -16.7335  -50.6377 O.2       21 UNK        -0.5000 
    119 N         -3.5942  -17.2876  -52.8379 N.am      22 UNK        -0.5000 
    120 CA        -3.3186  -15.9716  -53.4453 C.3       22 UNK         0.1400 
    121 C         -4.2242  -14.8018  -52.9459 C.2       22 UNK         0.5000 
    122 N         -3.6764  -13.6550  -52.5643 N.am      22 UNK        -0.7600 
    123 O         -5.4480  -14.9146  -52.9642 O.2       22 UNK        -0.5000 
    124 C124       -1.7991  -15.6558  -53.5733 C.3       23 UNK        -0.0398 
    125 S125       -0.8513  -15.6583  -52.0101 S.3       23 UNK        -0.2404 
    126 C126        0.2546  -17.0780  -52.3122 C.3       23 UNK        -0.0205 
    127 H127       -0.7694   -9.7113  -47.4310 H         1 UNK         0.0600 
    128 H128       -0.4959  -10.7283  -48.8491 H         1 UNK         0.0600 
    129 H129       -1.2009  -11.4243  -47.3874 H         1 UNK         0.0600 
    130 H130        1.5958  -11.4148  -49.0884 H         1 UNK         0.3000 
    131 H131        3.6547  -12.0961  -48.7989 H         1 UNK         0.0600 
    132 H132        4.2506  -13.6019  -46.9266 H         1 UNK         0.0800 
    133 H133        2.8977  -13.0400  -45.9955 H         1 UNK         0.0800 
    134 H134        3.9428  -14.8348  -49.3414 H         1 UNK         0.0800 
    135 H135        4.1556  -15.8831  -47.9551 H         1 UNK         0.0800 
    136 H136        1.5528  -15.3117  -50.6177 H         1 UNK         0.1150 
    137 H137        1.2337  -19.4829  -51.5628 H         1 UNK         0.1150 
    138 H138        3.9118  -18.1798  -48.4853 H         1 UNK         0.1150 
    139 H139        2.9073  -21.0026  -50.7294 H         1 UNK         0.0800 
    140 H140        4.2149  -20.3922  -49.7538 H         1 UNK         0.0800 
    141 H141        0.7202  -21.8621  -49.9151 H         1 UNK         0.0800 
    142 H142        0.1783  -20.5668  -48.8749 H         1 UNK         0.0800 
    143 H143        0.6647  -23.4378  -47.9341 H         1 UNK         0.0600 
    144 H144        0.1157  -21.1111  -46.4123 H         1 UNK         0.3000 
    145 H145       -1.3836  -22.7826  -43.6049 H         1 UNK         0.0600 
    146 H146        0.4103  -21.5103  -42.4708 H         1 UNK         0.0600 
    147 H147        1.0841  -22.9036  -43.3034 H         1 UNK         0.0600 
    148 H148        1.2672  -21.2974  -43.9949 H         1 UNK         0.0600 
    149 H149       -0.8853  -20.0228  -44.1397 H         1 UNK         0.3000 
    150 H150       -4.0489  -19.3515  -45.7305 H         1 UNK         0.0600 
    151 H151       -4.4910  -19.2214  -43.3071 H         1 UNK         0.0600 
    152 H152       -4.0433  -17.6317  -43.9102 H         1 UNK         0.0600 
    153 H153       -2.8779  -18.5959  -43.0041 H         1 UNK         0.0600 
    154 H154       -1.8704  -17.6218  -45.1597 H         1 UNK         0.3000 
    155 H155        0.0002  -18.2133  -48.1556 H         1 UNK         0.0600 
    156 H156       -0.3234  -15.7957  -48.4130 H         1 UNK         0.0600 
    157 H157       -1.6154  -15.7859  -47.2120 H         1 UNK         0.0600 
    158 H158       -1.8336  -16.6091  -48.7512 H         1 UNK         0.0600 
    159 H159        0.4325  -16.4420  -45.9699 H         1 UNK         0.3000 
    160 H160        2.3278  -18.7470  -43.9405 H         1 UNK         0.0600 
    161 H161        2.9483  -16.1349  -45.4102 H         1 UNK         0.0600 
    162 H162        3.8003  -17.6539  -45.6540 H         1 UNK         0.0600 
    163 H163        3.8760  -16.8443  -44.0946 H         1 UNK         0.0600 
    164 H164        1.4032  -16.0526  -43.5156 H         1 UNK         0.3000 
    165 H165       -1.6628  -16.8812  -41.9097 H         1 UNK         0.0600 
    166 H166        0.9389  -15.9740  -40.5638 H         1 UNK         0.0600 
    167 H167       -0.6937  -15.7196  -39.9451 H         1 UNK         0.0600 
    168 H168       -0.0415  -17.3463  -40.0611 H         1 UNK         0.0600 
    169 H169       -0.2286  -14.4346  -42.1008 H         1 UNK         0.3000 
    170 H170       -0.5239  -13.6514  -45.4169 H         1 UNK         0.0600 
    171 H171       -2.9489  -13.2085  -45.0094 H         1 UNK         0.0600 
    172 H172       -2.5652  -12.4859  -43.4510 H         1 UNK         0.0600 
    173 H173       -2.0102  -11.7263  -44.9437 H         1 UNK         0.0600 
    174 H174       -0.1262  -11.7983  -43.4174 H         1 UNK         0.3000 
    175 H175        2.2308  -11.1060  -43.4410 H         1 UNK         0.0600 
    176 H176        2.6327  -11.0895  -40.9069 H         1 UNK         0.0600 
    177 H177        0.9556  -11.4065  -41.3021 H         1 UNK         0.0600 
    178 H178        2.0098  -12.7309  -40.8249 H         1 UNK         0.0600 
    179 H179        3.7757  -13.5070  -43.0803 H         1 UNK         0.3000 
    180 H180        3.9173   -9.9210  -42.4231 H         1 UNK         0.0600 
    181 H181        6.9642   -9.8793  -42.7322 H         1 UNK         0.0600 
    182 H182        6.1050  -10.0241  -41.2019 H         1 UNK         0.0600 
    183 H183        5.9467   -8.5604  -42.1603 H         1 UNK         0.0600 
    184 H184        5.1415  -10.4536  -45.0165 H         1 UNK         0.3000 
    185 H185        3.5934   -7.6070  -46.5081 H         1 UNK         0.0600 
    186 H186        5.6364   -7.8742  -47.9014 H         1 UNK         0.0600 
    187 H187        6.0072   -7.1519  -46.3435 H         1 UNK         0.0600 
    188 H188        6.3962   -8.8380  -46.6360 H         1 UNK         0.0600 
    189 H189        2.7540   -9.4229  -47.4079 H         1 UNK         0.3000 
    190 H190       -2.2789  -21.3698  -47.8459 H         1 UNK         0.3000 
    191 H191       -3.8080  -22.7867  -49.7337 H         1 UNK         0.0600 
    192 H192       -4.4249  -20.5583  -48.6657 H         1 UNK         0.0600 
    193 H193       -5.7430  -21.7180  -48.6887 H         1 UNK         0.0600 
    194 H194       -4.8635  -21.4108  -47.2012 H         1 UNK         0.0600 
    195 H195       -3.5651  -23.2768  -46.1676 H         1 UNK         0.3000 
    196 H196       -5.3328  -25.4593  -45.9703 H         1 UNK         0.0600 
    197 H197       -4.2366  -25.8345  -43.7619 H         1 UNK         0.0600 
    198 H198       -4.5746  -24.1298  -44.0227 H         1 UNK         0.0600 
    199 H199       -2.9326  -24.7410  -44.2059 H         1 UNK         0.0600 
    200 H200       -1.7766  -25.4540  -46.4869 H         1 UNK         0.3000 
    201 H201       -1.3953  -28.2613  -46.5503 H         1 UNK         0.0600 
    202 H202        0.4544  -26.6283  -46.2973 H         1 UNK         0.0600 
    203 H203        0.1813  -26.0231  -47.9295 H         1 UNK         0.0600 
    204 H204        0.7534  -27.6687  -47.6819 H         1 UNK         0.0600 
    205 H205       -2.4025  -25.9969  -49.0914 H         1 UNK         0.3000 
    206 H206       -2.4512  -28.0309  -51.2083 H         1 UNK         0.0600 
    207 H207       -1.7513  -25.7021  -51.6984 H         1 UNK         0.0600 
    208 H208       -3.2251  -26.0790  -52.5764 H         1 UNK         0.0600 
    209 H209       -3.2974  -25.0956  -51.1167 H         1 UNK         0.0600 
    210 H210       -4.4245  -27.6416  -48.6223 H         1 UNK         0.3000 
    211 H211       -6.4928  -28.1168  -48.0319 H         1 UNK         0.0600 
    212 H212       -6.6831  -29.7224  -50.6357 H         1 UNK         0.0600 
    213 H213       -7.6744  -29.9399  -49.1996 H         1 UNK         0.0600 
    214 H214       -5.9580  -30.3018  -49.1364 H         1 UNK         0.0600 
    215 H215       -6.1062  -25.6621  -49.3890 H         1 UNK         0.3000 
    216 H216       -7.0820  -23.8698  -50.1330 H         1 UNK         0.0600 
    217 H217       -8.8001  -24.3653  -48.3802 H         1 UNK         0.0600 
    218 H218       -9.7865  -25.1962  -49.5833 H         1 UNK         0.0600 
    219 H219       -9.4750  -23.4734  -49.7323 H         1 UNK         0.0600 
    220 H220       -6.7934  -26.3664  -52.0396 H         1 UNK         0.3000 
    221 H221       -8.6221  -25.7039  -54.2178 H         1 UNK         0.0600 
    222 H222       -6.2078  -27.5874  -54.1343 H         1 UNK         0.0600 
    223 H223       -7.8656  -28.0471  -53.7457 H         1 UNK         0.0600 
    224 H224       -7.4512  -27.5371  -55.3759 H         1 UNK         0.0600 
    225 H225       -5.5025  -24.5686  -53.1689 H         1 UNK         0.3000 
    226 H226       -5.1692  -22.7189  -55.3133 H         1 UNK         0.0600 
    227 H227       -4.2890  -24.8000  -56.4736 H         1 UNK         0.0600 
    228 H228       -2.9971  -23.6603  -56.1739 H         1 UNK         0.0600 
    229 H229       -3.1774  -25.0686  -55.1347 H         1 UNK         0.0600 
    230 H230       -2.7498  -21.8495  -54.9906 H         1 UNK         0.3000 
    231 H231       -1.1802  -20.8487  -53.8364 H         1 UNK         0.0600 
    232 H232       -0.0196  -22.1411  -52.1245 H         1 UNK         0.0600 
    233 H233       -0.6167  -23.2582  -53.3366 H         1 UNK         0.0600 
    234 H234       -1.4526  -23.1060  -51.7919 H         1 UNK         0.0600 
    235 H235       -4.1301  -20.3451  -52.8711 H         1 UNK         0.3000 
    236 H236       -3.6879  -19.2111  -50.2111 H         1 UNK         0.0600 
    237 H237       -6.0983  -18.6509  -50.3718 H         1 UNK         0.0600 
    238 H238       -6.1219  -19.0823  -52.0778 H         1 UNK         0.0600 
    239 H239       -5.8493  -20.3221  -50.8553 H         1 UNK         0.0600 
    240 H240       -3.6353  -18.0591  -53.4859 H         1 UNK         0.3000 
    241 H241       -3.6583  -16.0966  -54.4743 H         1 UNK         0.0600 
    242 H242       -2.6753  -13.5518  -52.5071 H         1 UNK         0.3800 
    243 H243       -4.2736  -12.9004  -52.2644 H         1 UNK         0.3800 
    244 H244       -1.3545  -16.3844  -54.2521 H         1 UNK         0.0800 
    245 H245       -1.6462  -14.6960  -54.0686 H         1 UNK         0.0800 
    246 H246       -0.3661  -17.9566  -52.4908 H         1 UNK         0.0800 
    247 H247        0.8188  -16.9004  -53.2285 H         1 UNK         0.0800 
@<TRIPOS>BOND
     1    1    2 1    
     2    1  127 1    
     3    1  128 1    
     4    1  129 1    
     5    2    3 2    
     6    2    4 am   BACKBONE|DICT|INTERRES
     7    4    5 1    
     8    4  130 1    
     9    5    6 1    
    10    5   65 1    
    11    5  131 1    
    12    6    7 1    
    13    6  132 1    
    14    6  133 1    
    15    7    8 1    
    16    8    9 1    
    17    8  134 1    
    18    8  135 1    
    19    9   10 ar   
    20    9   14 ar   
    21   10   11 ar   
    22   10  136 1    
    23   11   12 ar   
    24   11  126 1    
    25   12   13 ar   
    26   12  137 1    
    27   13   14 ar   
    28   13   15 1    
    29   14  138 1    
    30   15   16 1    
    31   15  139 1    
    32   15  140 1    
    33   16   17 1    
    34   17   18 1    
    35   17  141 1    
    36   17  142 1    
    37   18   19 1    
    38   18   67 1    
    39   18  143 1    
    40   19   20 am   BACKBONE|DICT|INTERRES
    41   19  144 1    
    42   20   21 2    
    43   20   22 1    
    44   22   23 1    
    45   22   24 1    
    46   22  145 1    
    47   23  146 1    
    48   23  147 1    
    49   23  148 1    
    50   24   25 am   BACKBONE|DICT|INTERRES
    51   24  149 1    
    52   25   26 2    
    53   25   27 1    
    54   27   28 1    
    55   27   29 1    
    56   27  150 1    
    57   28  151 1    
    58   28  152 1    
    59   28  153 1    
    60   29   30 am   BACKBONE|DICT|INTERRES
    61   29  154 1    
    62   30   31 2    
    63   30   32 1    
    64   32   33 1    
    65   32   34 1    
    66   32  155 1    
    67   33  156 1    
    68   33  157 1    
    69   33  158 1    
    70   34   35 am   BACKBONE|DICT|INTERRES
    71   34  159 1    
    72   35   36 2    
    73   35   37 1    
    74   37   38 1    
    75   37   39 1    
    76   37  160 1    
    77   38  161 1    
    78   38  162 1    
    79   38  163 1    
    80   39   40 am   BACKBONE|DICT|INTERRES
    81   39  164 1    
    82   40   41 2    
    83   40   42 1    
    84   42   43 1    
    85   42   44 1    
    86   42  165 1    
    87   43  166 1    
    88   43  167 1    
    89   43  168 1    
    90   44   45 am   BACKBONE|DICT|INTERRES
    91   44  169 1    
    92   45   46 2    
    93   45   47 1    
    94   47   48 1    
    95   47   49 1    
    96   47  170 1    
    97   48  171 1    
    98   48  172 1    
    99   48  173 1    
   100   49   50 am   BACKBONE|DICT|INTERRES
   101   49  174 1    
   102   50   51 2    
   103   50   52 1    
   104   52   53 1    
   105   52   54 1    
   106   52  175 1    
   107   53  176 1    
   108   53  177 1    
   109   53  178 1    
   110   54   55 am   BACKBONE|DICT|INTERRES
   111   54  179 1    
   112   55   56 2    
   113   55   57 1    
   114   57   58 1    
   115   57   59 1    
   116   57  180 1    
   117   58  181 1    
   118   58  182 1    
   119   58  183 1    
   120   59   60 am   BACKBONE|DICT|INTERRES
   121   59  184 1    
   122   60   61 2    
   123   60   62 1    
   124   62   63 1    
   125   62   64 1    
   126   62  185 1    
   127   63  186 1    
   128   63  187 1    
   129   63  188 1    
   130   64   65 am   BACKBONE|DICT|INTERRES
   131   64  189 1    
   132   65   66 2    
   133   67   68 2    
   134   67   69 am   BACKBONE|DICT|INTERRES
   135   69   70 1    
   136   69  190 1    
   137   70   71 1    
   138   70   72 1    
   139   70  191 1    
   140   71  192 1    
   141   71  193 1    
   142   71  194 1    
   143   72   73 2    
   144   72   74 am   BACKBONE|DICT|INTERRES
   145   74   75 1    
   146   74  195 1    
   147   75   76 1    
   148   75   77 1    
   149   75  196 1    
   150   76  197 1    
   151   76  198 1    
   152   76  199 1    
   153   77   78 2    
   154   77   79 am   BACKBONE|DICT|INTERRES
   155   79   80 1    
   156   79  200 1    
   157   80   81 1    
   158   80   82 1    
   159   80  201 1    
   160   81  202 1    
   161   81  203 1    
   162   81  204 1    
   163   82   83 2    
   164   82   84 am   BACKBONE|DICT|INTERRES
   165   84   85 1    
   166   84  205 1    
   167   85   86 1    
   168   85   87 1    
   169   85  206 1    
   170   86  207 1    
   171   86  208 1    
   172   86  209 1    
   173   87   88 2    
   174   87   89 am   BACKBONE|DICT|INTERRES
   175   89   90 1    
   176   89  210 1    
   177   90   91 1    
   178   90   92 1    
   179   90  211 1    
   180   91  212 1    
   181   91  213 1    
   182   91  214 1    
   183   92   93 2    
   184   92   94 am   BACKBONE|DICT|INTERRES
   185   94   95 1    
   186   94  215 1    
   187   95   96 1    
   188   95   97 1    
   189   95  216 1    
   190   96  217 1    
   191   96  218 1    
   192   96  219 1    
   193   97   98 2    
   194   97   99 am   BACKBONE|DICT|INTERRES
   195   99  100 1    
   196   99  220 1    
   197  100  101 1    
   198  100  102 1    
   199  100  221 1    
   200  101  222 1    
   201  101  223 1    
   202  101  224 1    
   203  102  103 2    
   204  102  104 am   BACKBONE|DICT|INTERRES
   205  104  105 1    
   206  104  225 1    
   207  105  106 1    
   208  105  107 1    
   209  105  226 1    
   210  106  227 1    
   211  106  228 1    
   212  106  229 1    
   213  107  108 2    
   214  107  109 am   BACKBONE|DICT|INTERRES
   215  109  110 1    
   216  109  230 1    
   217  110  111 1    
   218  110  112 1    
   219  110  231 1    
   220  111  232 1    
   221  111  233 1    
   222  111  234 1    
   223  112  113 2    
   224  112  114 am   BACKBONE|DICT|INTERRES
   225  114  115 1    
   226  114  235 1    
   227  115  116 1    
   228  115  117 1    
   229  115  236 1    
   230  116  237 1    
   231  116  238 1    
   232  116  239 1    
   233  117  118 2    
   234  117  119 am   BACKBONE|DICT|INTERRES
   235  119  120 1    
   236  119  240 1    
   237  120  121 1    
   238  120  124 1    
   239  120  241 1    
   240  121  122 am   BACKBONE|DICT|INTERRES
   241  121  123 2    
   242  122  242 1    
   243  122  243 1    
   244  124  125 1    
   245  124  244 1    
   246  124  245 1    
   247  125  126 1    
   248  126  246 1    
   249  126  247 1    
@<TRIPOS>SUBSTRUCTURE
     1 UNK         1 GROUP             0       ****    0 ROOT    
