@<TRIPOS>MOLECULE
3R540
247   249    1
SMALL
USER_CHARGES


@<TRIPOS>ATOM
      1 CA          0.9672  -14.4410  -55.0895 C.3       0 UNK        -0.1800 
      2 C           2.1035  -13.7347  -54.3628 C.2       0 UNK         0.5000 
      3 O           3.0974  -13.3669  -54.9899 O.2       0 UNK        -0.5000 
      4 N           1.9638  -13.5488  -53.0488 N.am      1 UNK        -0.5000 
      5 CA          2.9468  -12.9187  -52.1689 C.3       1 UNK         0.1400 
      6 C6          3.9832  -13.9364  -51.6166 C.3       23 UNK        -0.0398 
      7 S7          3.2455  -15.3747  -50.7580 S.3       23 UNK        -0.2404 
      8 C8          3.4331  -16.6580  -52.0340 C.3       23 UNK        -0.0205 
      9 C9          2.5449  -17.8619  -51.7629 C.ar      23 UNK        -0.0193 
     10 C10         1.3741  -18.0534  -52.5031 C.ar      23 UNK        -0.1150 
     11 C11         0.5709  -19.1759  -52.2839 C.ar      23 UNK        -0.0193 
     12 C12         0.9489  -20.1124  -51.3172 C.ar      23 UNK        -0.1150 
     13 C13         2.1109  -19.9276  -50.5617 C.ar      23 UNK        -0.0193 
     14 C14         2.9058  -18.8004  -50.7920 C.ar      23 UNK        -0.1150 
     15 C15         2.5272  -20.9505  -49.5143 C.3       23 UNK        -0.0205 
     16 S16         1.8096  -20.5850  -47.8816 S.3       23 UNK        -0.2404 
     17 C17         0.1604  -21.3598  -47.9967 C.3       23 UNK        -0.0398 
     18 CA          0.0473  -22.6177  -47.1024 C.3       11 UNK         0.1400 
     19 N           0.0770  -22.2991  -45.6704 N.am      11 UNK        -0.5000 
     20 C           0.1365  -23.2061  -44.6851 C.2       10 UNK         0.5000 
     21 O           0.2462  -24.4159  -44.8802 O.2       10 UNK        -0.5000 
     22 CA         -0.0160  -22.6875  -43.2429 C.3       10 UNK         0.1400 
     23 CB          1.3160  -22.1495  -42.6998 C.3       10 UNK        -0.1800 
     24 N          -1.0611  -21.6683  -43.1218 N.am      10 UNK        -0.5000 
     25 C          -2.3649  -21.9014  -43.3328 C.2       9 UNK         0.5000 
     26 O          -2.8212  -23.0138  -43.5931 O.2       9 UNK        -0.5000 
     27 CA         -3.3168  -20.6916  -43.2929 C.3       9 UNK         0.1400 
     28 CB         -3.7118  -20.3544  -41.8480 C.3       9 UNK        -0.1800 
     29 N          -2.7570  -19.5083  -43.9465 N.am      9 UNK        -0.5000 
     30 C          -2.4670  -19.4301  -45.2538 C.2       8 UNK         0.5000 
     31 O          -2.7068  -20.3289  -46.0604 O.2       8 UNK        -0.5000 
     32 CA         -1.7290  -18.1640  -45.7293 C.3       8 UNK         0.1400 
     33 CB         -2.7094  -17.0082  -45.9685 C.3       8 UNK        -0.1800 
     34 N          -0.6889  -17.7359  -44.7945 N.am      8 UNK        -0.5000 
     35 C           0.3810  -18.4695  -44.4597 C.2       7 UNK         0.5000 
     36 O           0.6238  -19.5761  -44.9350 O.2       7 UNK        -0.5000 
     37 CA          1.2926  -17.9050  -43.3587 C.3       7 UNK         0.1400 
     38 CB          2.2408  -16.8308  -43.9127 C.3       7 UNK        -0.1800 
     39 N           0.5152  -17.3620  -42.2452 N.am      7 UNK        -0.5000 
     40 C          -0.1861  -18.1108  -41.3824 C.2       6 UNK         0.5000 
     41 O          -0.2138  -19.3409  -41.4132 O.2       6 UNK        -0.5000 
     42 CA         -1.0207  -17.3586  -40.3291 C.3       6 UNK         0.1400 
     43 CB         -0.1596  -17.0112  -39.1057 C.3       6 UNK        -0.1800 
     44 N          -1.6280  -16.1354  -40.8562 N.am      6 UNK        -0.5000 
     45 C          -2.6028  -16.1097  -41.7761 C.2       5 UNK         0.5000 
     46 O          -3.1165  -17.1194  -42.2563 O.2       5 UNK        -0.5000 
     47 CA         -3.0327  -14.7198  -42.2862 C.3       5 UNK         0.1400 
     48 CB         -4.0757  -14.0965  -41.3467 C.3       5 UNK        -0.1800 
     49 N          -1.9109  -13.7889  -42.4592 N.am      5 UNK        -0.5000 
     50 C          -0.8701  -14.0097  -43.2725 C.2       4 UNK         0.5000 
     51 O          -0.7423  -15.0381  -43.9407 O.2       4 UNK        -0.5000 
     52 CA          0.2382  -12.9403  -43.2981 C.3       4 UNK         0.1400 
     53 CB          1.1098  -13.0474  -42.0362 C.3       4 UNK        -0.1800 
     54 N           1.0953  -13.1188  -44.4697 N.am      4 UNK        -0.5000 
     55 C           0.7439  -12.7966  -45.7192 C.2       3 UNK         0.5000 
     56 O          -0.2548  -12.1307  -46.0055 O.2       3 UNK        -0.5000 
     57 CA          1.6347  -13.3700  -46.8352 C.3       3 UNK         0.1400 
     58 CB          1.0440  -14.6908  -47.3568 C.3       3 UNK        -0.1800 
     59 N           1.7755  -12.4418  -47.9532 N.am      3 UNK        -0.5000 
     60 C           2.4642  -11.2955  -47.9254 C.2       2 UNK         0.5000 
     61 O           3.1041  -10.9125  -46.9437 O.2       2 UNK        -0.5000 
     62 CA          2.4631  -10.4677  -49.2301 C.3       2 UNK         0.1400 
     63 CB          3.3096   -9.1860  -49.1234 C.3       2 UNK        -0.1800 
     64 N           2.9432  -11.2538  -50.3705 N.am      2 UNK        -0.5000 
     65 C           2.2168  -12.1489  -51.0522 C.2       1 UNK         0.5000 
     66 O           1.0294  -12.3776  -50.8063 O.2       1 UNK        -0.5000 
     67 C          -1.1967  -23.4502  -47.4763 C.2       11 UNK         0.5000 
     68 O          -1.0681  -24.4244  -48.2180 O.2       11 UNK        -0.5000 
     69 N          -2.3668  -23.0915  -46.9292 N.am      12 UNK        -0.5000 
     70 CA         -3.6121  -23.8384  -47.1040 C.3       12 UNK         0.1400 
     71 CB         -4.7997  -23.0125  -46.5892 C.3       12 UNK        -0.1800 
     72 C          -3.5730  -25.2366  -46.4634 C.2       12 UNK         0.5000 
     73 O          -4.0182  -26.1951  -47.0939 O.2       12 UNK        -0.5000 
     74 N          -2.9932  -25.3464  -45.2599 N.am      13 UNK        -0.5000 
     75 CA         -2.7603  -26.6139  -44.5603 C.3       13 UNK         0.1400 
     76 CB         -2.2700  -26.3314  -43.1324 C.3       13 UNK        -0.1800 
     77 C          -1.7772  -27.5396  -45.3049 C.2       13 UNK         0.5000 
     78 O          -1.9744  -28.7549  -45.3160 O.2       13 UNK        -0.5000 
     79 N          -0.7644  -26.9448  -45.9495 N.am      14 UNK        -0.5000 
     80 CA          0.1918  -27.6179  -46.8321 C.3       14 UNK         0.1400 
     81 CB          1.4377  -26.7287  -46.9766 C.3       14 UNK        -0.1800 
     82 C          -0.3861  -27.9671  -48.2215 C.2       14 UNK         0.5000 
     83 O           0.2835  -28.6613  -48.9875 O.2       14 UNK        -0.5000 
     84 N          -1.5980  -27.4780  -48.5260 N.am      15 UNK        -0.5000 
     85 CA         -2.3353  -27.6142  -49.7856 C.3       15 UNK         0.1400 
     86 CB         -2.6963  -29.0881  -50.0636 C.3       15 UNK        -0.1800 
     87 C          -1.6433  -26.9216  -50.9786 C.2       15 UNK         0.5000 
     88 O          -1.7873  -27.3648  -52.1202 O.2       15 UNK        -0.5000 
     89 N          -0.9266  -25.8231  -50.7060 N.am      16 UNK        -0.5000 
     90 CA         -0.3120  -24.9523  -51.7041 C.3       16 UNK         0.1400 
     91 CB          0.8681  -24.2061  -51.0603 C.3       16 UNK        -0.1800 
     92 C          -1.3831  -23.9980  -52.2586 C.2       16 UNK         0.5000 
     93 O          -1.5197  -22.8719  -51.7771 O.2       16 UNK        -0.5000 
     94 N          -2.1858  -24.5134  -53.2000 N.am      17 UNK        -0.5000 
     95 CA         -3.3698  -23.9232  -53.8428 C.3       17 UNK         0.1400 
     96 CB         -3.0387  -22.5918  -54.5448 C.3       17 UNK        -0.1800 
     97 C          -4.5813  -23.7646  -52.9022 C.2       17 UNK         0.5000 
     98 O          -5.7023  -24.0688  -53.3084 O.2       17 UNK        -0.5000 
     99 N          -4.3328  -23.2937  -51.6731 N.am      18 UNK        -0.5000 
    100 CA        -5.2711  -23.0711  -50.5664 C.3       18 UNK         0.1400 
    101 CB        -5.9352  -24.3905  -50.1231 C.3       18 UNK        -0.1800 
    102 C         -6.2939  -21.9390  -50.7908 C.2       18 UNK         0.5000 
    103 O         -7.1547  -21.7210  -49.9367 O.2       18 UNK        -0.5000 
    104 N         -6.1511  -21.1911  -51.8909 N.am      19 UNK        -0.5000 
    105 CA        -6.8528  -19.9410  -52.1578 C.3       19 UNK         0.1400 
    106 CB        -6.9226  -19.7274  -53.6804 C.3       19 UNK        -0.1800 
    107 C         -6.0983  -18.8121  -51.4368 C.2       19 UNK         0.5000 
    108 O         -5.2900  -18.1261  -52.0603 O.2       19 UNK        -0.5000 
    109 N         -6.3389  -18.6906  -50.1223 N.am      20 UNK        -0.5000 
    110 CA        -5.5876  -17.9021  -49.1323 C.3       20 UNK         0.1400 
    111 CB        -6.3326  -17.9697  -47.7898 C.3       20 UNK        -0.1800 
    112 C         -5.2685  -16.4365  -49.4967 C.2       20 UNK         0.5000 
    113 O         -4.3042  -15.8816  -48.9680 O.2       20 UNK        -0.5000 
    114 N         -6.0376  -15.8528  -50.4252 N.am      21 UNK        -0.5000 
    115 CA        -5.7829  -14.5600  -51.0634 C.3       21 UNK         0.1400 
    116 CB        -6.9211  -14.2672  -52.0531 C.3       21 UNK        -0.1800 
    117 C         -4.4119  -14.4521  -51.7703 C.2       21 UNK         0.5000 
    118 O         -3.9256  -13.3338  -51.9446 O.2       21 UNK        -0.5000 
    119 N         -3.8016  -15.5889  -52.1434 N.am      22 UNK        -0.5000 
    120 CA        -2.4111  -15.6574  -52.6229 C.3       22 UNK         0.1400 
    121 C         -1.3248  -15.3648  -51.5454 C.2       22 UNK         0.5000 
    122 N         -1.6383  -15.3498  -50.2545 N.am      22 UNK        -0.7600 
    123 O         -0.1768  -15.1213  -51.8984 O.2       22 UNK        -0.5000 
    124 C124       -2.1155  -16.9591  -53.4156 C.3       23 UNK        -0.0398 
    125 S125       -2.1197  -18.4999  -52.4254 S.3       23 UNK        -0.2404 
    126 C126       -0.6899  -19.4001  -53.1052 C.3       23 UNK        -0.0205 
    127 H127        0.7609  -13.9483  -56.0395 H         1 UNK         0.0600 
    128 H128        0.0494  -14.4341  -54.5025 H         1 UNK         0.0600 
    129 H129        1.2380  -15.4772  -55.2914 H         1 UNK         0.0600 
    130 H130        1.1373  -13.8988  -52.5641 H         1 UNK         0.3000 
    131 H131        3.4879  -12.1639  -52.7435 H         1 UNK         0.0600 
    132 H132        4.6087  -14.2920  -52.4363 H         1 UNK         0.0800 
    133 H133        4.6726  -13.4473  -50.9269 H         1 UNK         0.0800 
    134 H134        4.4770  -16.9716  -52.0796 H         1 UNK         0.0800 
    135 H135        3.1958  -16.2373  -53.0119 H         1 UNK         0.0800 
    136 H136        1.0895  -17.3275  -53.2511 H         1 UNK         0.1150 
    137 H137        0.3358  -20.9879  -51.1603 H         1 UNK         0.1150 
    138 H138        3.8090  -18.6523  -50.2168 H         1 UNK         0.1150 
    139 H139        2.2553  -21.9577  -49.8290 H         1 UNK         0.0800 
    140 H140        3.6140  -20.9530  -49.4194 H         1 UNK         0.0800 
    141 H141       -0.0471  -21.6075  -49.0371 H         1 UNK         0.0800 
    142 H142       -0.5879  -20.6187  -47.7146 H         1 UNK         0.0800 
    143 H143        0.9134  -23.2506  -47.3074 H         1 UNK         0.0600 
    144 H144        0.0667  -21.3119  -45.4241 H         1 UNK         0.3000 
    145 H145       -0.3095  -23.5340  -42.6189 H         1 UNK         0.0600 
    146 H146        1.2182  -21.8306  -41.6620 H         1 UNK         0.0600 
    147 H147        2.0874  -22.9197  -42.7326 H         1 UNK         0.0600 
    148 H148        1.6790  -21.3002  -43.2773 H         1 UNK         0.0600 
    149 H149       -0.7614  -20.7338  -42.8672 H         1 UNK         0.3000 
    150 H150       -4.2245  -20.9686  -43.8328 H         1 UNK         0.0600 
    151 H151       -4.1484  -21.2212  -41.3503 H         1 UNK         0.0600 
    152 H152       -4.4531  -19.5557  -41.8187 H         1 UNK         0.0600 
    153 H153       -2.8527  -20.0353  -41.2582 H         1 UNK         0.0600 
    154 H154       -2.5868  -18.6999  -43.3564 H         1 UNK         0.3000 
    155 H155       -1.2430  -18.3980  -46.6786 H         1 UNK         0.0600 
    156 H156       -3.2296  -16.7226  -45.0540 H         1 UNK         0.0600 
    157 H157       -3.4618  -17.2884  -46.7048 H         1 UNK         0.0600 
    158 H158       -2.1948  -16.1262  -46.3508 H         1 UNK         0.0600 
    159 H159       -0.7962  -16.8114  -44.3817 H         1 UNK         0.3000 
    160 H160        1.9040  -18.7265  -42.9789 H         1 UNK         0.0600 
    161 H161        2.9246  -16.4737  -43.1427 H         1 UNK         0.0600 
    162 H162        1.6974  -15.9723  -44.3033 H         1 UNK         0.0600 
    163 H163        2.8466  -17.2312  -44.7266 H         1 UNK         0.0600 
    164 H164        0.4324  -16.3582  -42.1942 H         1 UNK         0.3000 
    165 H165       -1.8230  -18.0240  -40.0034 H         1 UNK         0.0600 
    166 H166       -0.7579  -16.5471  -38.3214 H         1 UNK         0.0600 
    167 H167        0.2926  -17.9081  -38.6801 H         1 UNK         0.0600 
    168 H168        0.6491  -16.3256  -39.3620 H         1 UNK         0.0600 
    169 H169       -1.2621  -15.2583  -40.5165 H         1 UNK         0.3000 
    170 H170       -3.4976  -14.8607  -43.2642 H         1 UNK         0.0600 
    171 H171       -4.9293  -14.7628  -41.2147 H         1 UNK         0.0600 
    172 H172       -3.6602  -13.8952  -40.3586 H         1 UNK         0.0600 
    173 H173       -4.4576  -13.1578  -41.7486 H         1 UNK         0.0600 
    174 H174       -1.9498  -12.9302  -41.9290 H         1 UNK         0.3000 
    175 H175       -0.2238  -11.9515  -43.3341 H         1 UNK         0.0600 
    176 H176        1.5784  -14.0288  -41.9498 H         1 UNK         0.0600 
    177 H177        1.9021  -12.2985  -42.0415 H         1 UNK         0.0600 
    178 H178        0.5201  -12.8843  -41.1334 H         1 UNK         0.0600 
    179 H179        1.9202  -13.6823  -44.3300 H         1 UNK         0.3000 
    180 H180        2.6293  -13.5701  -46.4309 H         1 UNK         0.0600 
    181 H181        0.0562  -14.5408  -47.7933 H         1 UNK         0.0600 
    182 H182        0.9348  -15.4196  -46.5528 H         1 UNK         0.0600 
    183 H183        1.6836  -15.1395  -48.1166 H         1 UNK         0.0600 
    184 H184        1.2739  -12.6680  -48.8053 H         1 UNK         0.3000 
    185 H185        1.4306  -10.1645  -49.4163 H         1 UNK         0.0600 
    186 H186        2.9577   -8.5510  -48.3093 H         1 UNK         0.0600 
    187 H187        4.3604   -9.4104  -48.9358 H         1 UNK         0.0600 
    188 H188        3.2506   -8.5975  -50.0392 H         1 UNK         0.0600 
    189 H189        3.9168  -11.1303  -50.6085 H         1 UNK         0.3000 
    190 H190       -2.4132  -22.2438  -46.3712 H         1 UNK         0.3000 
    191 H191       -3.7447  -23.9951  -48.1738 H         1 UNK         0.0600 
    192 H192       -4.7176  -22.8097  -45.5217 H         1 UNK         0.0600 
    193 H193       -5.7408  -23.5389  -46.7522 H         1 UNK         0.0600 
    194 H194       -4.8685  -22.0554  -47.1069 H         1 UNK         0.0600 
    195 H195       -2.7074  -24.4989  -44.7759 H         1 UNK         0.3000 
    196 H196       -3.7172  -27.1354  -44.4924 H         1 UNK         0.0600 
    197 H197       -2.1298  -27.2595  -42.5771 H         1 UNK         0.0600 
    198 H198       -2.9901  -25.7270  -42.5805 H         1 UNK         0.0600 
    199 H199       -1.3178  -25.8011  -43.1307 H         1 UNK         0.0600 
    200 H200       -0.6301  -25.9465  -45.8200 H         1 UNK         0.3000 
    201 H201        0.4957  -28.5550  -46.3616 H         1 UNK         0.0600 
    202 H202        1.8822  -26.5111  -46.0052 H         1 UNK         0.0600 
    203 H203        1.1998  -25.7789  -47.4558 H         1 UNK         0.0600 
    204 H204        2.2025  -27.2181  -47.5808 H         1 UNK         0.0600 
    205 H205       -2.0580  -26.9100  -47.8258 H         1 UNK         0.3000 
    206 H206       -3.2721  -27.0753  -49.6388 H         1 UNK         0.0600 
    207 H207       -3.1893  -29.5414  -49.2036 H         1 UNK         0.0600 
    208 H208       -3.3810  -29.1698  -50.9085 H         1 UNK         0.0600 
    209 H209       -1.8153  -29.6853  -50.3000 H         1 UNK         0.0600 
    210 H210       -0.9135  -25.4773  -49.7485 H         1 UNK         0.3000 
    211 H211        0.0810  -25.5522  -52.5277 H         1 UNK         0.0600 
    212 H212        0.5499  -23.6124  -50.2049 H         1 UNK         0.0600 
    213 H213        1.3390  -23.5298  -51.7747 H         1 UNK         0.0600 
    214 H214        1.6322  -24.9026  -50.7149 H         1 UNK         0.0600 
    215 H215       -2.0270  -25.4860  -53.4346 H         1 UNK         0.3000 
    216 H216       -3.6652  -24.6343  -54.6160 H         1 UNK         0.0600 
    217 H217       -3.8840  -22.2501  -55.1433 H         1 UNK         0.0600 
    218 H218       -2.1870  -22.6992  -55.2163 H         1 UNK         0.0600 
    219 H219       -2.8085  -21.7991  -53.8331 H         1 UNK         0.0600 
    220 H220       -3.3647  -23.0411  -51.4849 H         1 UNK         0.3000 
    221 H221       -4.6536  -22.7155  -49.7430 H         1 UNK         0.0600 
    222 H222       -6.6228  -24.7718  -50.8782 H         1 UNK         0.0600 
    223 H223       -5.1904  -25.1619  -49.9268 H         1 UNK         0.0600 
    224 H224       -6.5062  -24.2527  -49.2043 H         1 UNK         0.0600 
    225 H225       -5.3965  -21.4219  -52.5194 H         1 UNK         0.3000 
    226 H226       -7.8732  -19.9885  -51.7714 H         1 UNK         0.0600 
    227 H227       -7.4185  -18.7858  -53.9189 H         1 UNK         0.0600 
    228 H228       -5.9309  -19.7014  -54.1343 H         1 UNK         0.0600 
    229 H229       -7.4883  -20.5249  -54.1625 H         1 UNK         0.0600 
    230 H230       -7.0101  -19.3369  -49.7284 H         1 UNK         0.3000 
    231 H231       -4.6244  -18.4008  -49.0071 H         1 UNK         0.0600 
    232 H232       -6.4012  -18.9960  -47.4282 H         1 UNK         0.0600 
    233 H233       -7.3454  -17.5742  -47.8754 H         1 UNK         0.0600 
    234 H234       -5.8216  -17.3908  -47.0198 H         1 UNK         0.0600 
    235 H235       -6.7841  -16.4045  -50.8206 H         1 UNK         0.3000 
    236 H236       -5.8032  -13.7998  -50.2801 H         1 UNK         0.0600 
    237 H237       -7.8879  -14.2478  -51.5498 H         1 UNK         0.0600 
    238 H238       -6.7852  -13.2955  -52.5299 H         1 UNK         0.0600 
    239 H239       -6.9669  -15.0176  -52.8435 H         1 UNK         0.0600 
    240 H240       -4.2722  -16.4792  -52.0006 H         1 UNK         0.3000 
    241 H241       -2.3063  -14.8455  -53.3452 H         1 UNK         0.0600 
    242 H242       -0.9121  -15.1482  -49.5895 H         1 UNK         0.3800 
    243 H243       -2.5822  -15.5371  -49.9348 H         1 UNK         0.3800 
    244 H244       -1.1563  -16.8592  -53.9246 H         1 UNK         0.0800 
    245 H245       -2.8533  -17.0749  -54.2104 H         1 UNK         0.0800 
    246 H246       -0.9308  -20.4637  -53.1182 H         1 UNK         0.0800 
    247 H247       -0.5208  -19.1223  -54.1463 H         1 UNK         0.0800 
@<TRIPOS>BOND
     1    1    2 1    
     2    1  127 1    
     3    1  128 1    
     4    1  129 1    
     5    2    3 2    
     6    2    4 am   BACKBONE|DICT|INTERRES
     7    4    5 1    
     8    4  130 1    
     9    5    6 1    
    10    5   65 1    
    11    5  131 1    
    12    6    7 1    
    13    6  132 1    
    14    6  133 1    
    15    7    8 1    
    16    8    9 1    
    17    8  134 1    
    18    8  135 1    
    19    9   10 ar   
    20    9   14 ar   
    21   10   11 ar   
    22   10  136 1    
    23   11   12 ar   
    24   11  126 1    
    25   12   13 ar   
    26   12  137 1    
    27   13   14 ar   
    28   13   15 1    
    29   14  138 1    
    30   15   16 1    
    31   15  139 1    
    32   15  140 1    
    33   16   17 1    
    34   17   18 1    
    35   17  141 1    
    36   17  142 1    
    37   18   19 1    
    38   18   67 1    
    39   18  143 1    
    40   19   20 am   BACKBONE|DICT|INTERRES
    41   19  144 1    
    42   20   21 2    
    43   20   22 1    
    44   22   23 1    
    45   22   24 1    
    46   22  145 1    
    47   23  146 1    
    48   23  147 1    
    49   23  148 1    
    50   24   25 am   BACKBONE|DICT|INTERRES
    51   24  149 1    
    52   25   26 2    
    53   25   27 1    
    54   27   28 1    
    55   27   29 1    
    56   27  150 1    
    57   28  151 1    
    58   28  152 1    
    59   28  153 1    
    60   29   30 am   BACKBONE|DICT|INTERRES
    61   29  154 1    
    62   30   31 2    
    63   30   32 1    
    64   32   33 1    
    65   32   34 1    
    66   32  155 1    
    67   33  156 1    
    68   33  157 1    
    69   33  158 1    
    70   34   35 am   BACKBONE|DICT|INTERRES
    71   34  159 1    
    72   35   36 2    
    73   35   37 1    
    74   37   38 1    
    75   37   39 1    
    76   37  160 1    
    77   38  161 1    
    78   38  162 1    
    79   38  163 1    
    80   39   40 am   BACKBONE|DICT|INTERRES
    81   39  164 1    
    82   40   41 2    
    83   40   42 1    
    84   42   43 1    
    85   42   44 1    
    86   42  165 1    
    87   43  166 1    
    88   43  167 1    
    89   43  168 1    
    90   44   45 am   BACKBONE|DICT|INTERRES
    91   44  169 1    
    92   45   46 2    
    93   45   47 1    
    94   47   48 1    
    95   47   49 1    
    96   47  170 1    
    97   48  171 1    
    98   48  172 1    
    99   48  173 1    
   100   49   50 am   BACKBONE|DICT|INTERRES
   101   49  174 1    
   102   50   51 2    
   103   50   52 1    
   104   52   53 1    
   105   52   54 1    
   106   52  175 1    
   107   53  176 1    
   108   53  177 1    
   109   53  178 1    
   110   54   55 am   BACKBONE|DICT|INTERRES
   111   54  179 1    
   112   55   56 2    
   113   55   57 1    
   114   57   58 1    
   115   57   59 1    
   116   57  180 1    
   117   58  181 1    
   118   58  182 1    
   119   58  183 1    
   120   59   60 am   BACKBONE|DICT|INTERRES
   121   59  184 1    
   122   60   61 2    
   123   60   62 1    
   124   62   63 1    
   125   62   64 1    
   126   62  185 1    
   127   63  186 1    
   128   63  187 1    
   129   63  188 1    
   130   64   65 am   BACKBONE|DICT|INTERRES
   131   64  189 1    
   132   65   66 2    
   133   67   68 2    
   134   67   69 am   BACKBONE|DICT|INTERRES
   135   69   70 1    
   136   69  190 1    
   137   70   71 1    
   138   70   72 1    
   139   70  191 1    
   140   71  192 1    
   141   71  193 1    
   142   71  194 1    
   143   72   73 2    
   144   72   74 am   BACKBONE|DICT|INTERRES
   145   74   75 1    
   146   74  195 1    
   147   75   76 1    
   148   75   77 1    
   149   75  196 1    
   150   76  197 1    
   151   76  198 1    
   152   76  199 1    
   153   77   78 2    
   154   77   79 am   BACKBONE|DICT|INTERRES
   155   79   80 1    
   156   79  200 1    
   157   80   81 1    
   158   80   82 1    
   159   80  201 1    
   160   81  202 1    
   161   81  203 1    
   162   81  204 1    
   163   82   83 2    
   164   82   84 am   BACKBONE|DICT|INTERRES
   165   84   85 1    
   166   84  205 1    
   167   85   86 1    
   168   85   87 1    
   169   85  206 1    
   170   86  207 1    
   171   86  208 1    
   172   86  209 1    
   173   87   88 2    
   174   87   89 am   BACKBONE|DICT|INTERRES
   175   89   90 1    
   176   89  210 1    
   177   90   91 1    
   178   90   92 1    
   179   90  211 1    
   180   91  212 1    
   181   91  213 1    
   182   91  214 1    
   183   92   93 2    
   184   92   94 am   BACKBONE|DICT|INTERRES
   185   94   95 1    
   186   94  215 1    
   187   95   96 1    
   188   95   97 1    
   189   95  216 1    
   190   96  217 1    
   191   96  218 1    
   192   96  219 1    
   193   97   98 2    
   194   97   99 am   BACKBONE|DICT|INTERRES
   195   99  100 1    
   196   99  220 1    
   197  100  101 1    
   198  100  102 1    
   199  100  221 1    
   200  101  222 1    
   201  101  223 1    
   202  101  224 1    
   203  102  103 2    
   204  102  104 am   BACKBONE|DICT|INTERRES
   205  104  105 1    
   206  104  225 1    
   207  105  106 1    
   208  105  107 1    
   209  105  226 1    
   210  106  227 1    
   211  106  228 1    
   212  106  229 1    
   213  107  108 2    
   214  107  109 am   BACKBONE|DICT|INTERRES
   215  109  110 1    
   216  109  230 1    
   217  110  111 1    
   218  110  112 1    
   219  110  231 1    
   220  111  232 1    
   221  111  233 1    
   222  111  234 1    
   223  112  113 2    
   224  112  114 am   BACKBONE|DICT|INTERRES
   225  114  115 1    
   226  114  235 1    
   227  115  116 1    
   228  115  117 1    
   229  115  236 1    
   230  116  237 1    
   231  116  238 1    
   232  116  239 1    
   233  117  118 2    
   234  117  119 am   BACKBONE|DICT|INTERRES
   235  119  120 1    
   236  119  240 1    
   237  120  121 1    
   238  120  124 1    
   239  120  241 1    
   240  121  122 am   BACKBONE|DICT|INTERRES
   241  121  123 2    
   242  122  242 1    
   243  122  243 1    
   244  124  125 1    
   245  124  244 1    
   246  124  245 1    
   247  125  126 1    
   248  126  246 1    
   249  126  247 1    
@<TRIPOS>SUBSTRUCTURE
     1 UNK         1 GROUP             0       ****    0 ROOT    
