@<TRIPOS>MOLECULE
3R540
247   249    1
SMALL
USER_CHARGES


@<TRIPOS>ATOM
      1 CA         -2.2314  -15.1850  -50.3559 C.3       0 UNK        -0.1800 
      2 C          -1.0762  -14.7142  -49.4836 C.2       0 UNK         0.5000 
      3 O          -1.1802  -14.7527  -48.2603 O.2       0 UNK        -0.5000 
      4 N           0.0173  -14.2638  -50.1131 N.am      1 UNK        -0.5000 
      5 CA          1.2974  -13.8760  -49.4931 C.3       1 UNK         0.1400 
      6 C6          1.9816  -15.0129  -48.6842 C.3       23 UNK        -0.0398 
      7 S7          2.0847  -16.5788  -49.6091 S.3       23 UNK        -0.2404 
      8 C8          3.4925  -17.4082  -48.7946 C.3       23 UNK        -0.0205 
      9 C9          3.7293  -18.8016  -49.3671 C.ar      23 UNK        -0.0193 
     10 C10         3.7244  -18.9964  -50.7499 C.ar      23 UNK        -0.1150 
     11 C11         3.8414  -20.2726  -51.2966 C.ar      23 UNK        -0.0193 
     12 C12         4.0542  -21.3631  -50.4462 C.ar      23 UNK        -0.1150 
     13 C13         4.1182  -21.1848  -49.0578 C.ar      23 UNK        -0.0193 
     14 C14         3.9443  -19.8988  -48.5260 C.ar      23 UNK        -0.1150 
     15 C15         4.4395  -22.3781  -48.1578 C.3       23 UNK        -0.0205 
     16 S16         3.4615  -22.4561  -46.6173 S.3       23 UNK        -0.2404 
     17 C17         1.9005  -23.2284  -47.1598 C.3       23 UNK        -0.0398 
     18 CA          1.2665  -24.1258  -46.0641 C.3       11 UNK         0.1400 
     19 N           0.9721  -23.4019  -44.8177 N.am      11 UNK        -0.5000 
     20 C           0.6423  -23.9850  -43.6535 C.2       10 UNK         0.5000 
     21 O           0.6928  -25.2007  -43.4632 O.2       10 UNK        -0.5000 
     22 CA          0.1182  -23.0726  -42.5270 C.3       10 UNK         0.1400 
     23 CB          1.2551  -22.6131  -41.6011 C.3       10 UNK        -0.1800 
     24 N          -0.6071  -21.9121  -43.0485 N.am      10 UNK        -0.5000 
     25 C          -1.8438  -21.9674  -43.5658 C.2       9 UNK         0.5000 
     26 O          -2.5328  -22.9868  -43.5736 O.2       9 UNK        -0.5000 
     27 CA         -2.3989  -20.6848  -44.2131 C.3       9 UNK         0.1400 
     28 CB         -3.2051  -19.8664  -43.1950 C.3       9 UNK        -0.1800 
     29 N          -1.3596  -19.8413  -44.8007 N.am      9 UNK        -0.5000 
     30 C          -0.6138  -20.1769  -45.8619 C.2       8 UNK         0.5000 
     31 O          -0.7650  -21.2191  -46.4991 O.2       8 UNK        -0.5000 
     32 CA          0.5253  -19.2097  -46.2383 C.3       8 UNK         0.1400 
     33 CB         -0.0074  -18.0464  -47.0790 C.3       8 UNK        -0.1800 
     34 N           1.2233  -18.6693  -45.0710 N.am      8 UNK        -0.5000 
     35 C           1.8826  -19.4093  -44.1700 C.2       7 UNK         0.5000 
     36 O           1.9793  -20.6320  -44.2350 O.2       7 UNK        -0.5000 
     37 CA          2.4770  -18.6663  -42.9641 C.3       7 UNK         0.1400 
     38 CB          3.8341  -18.0382  -43.3172 C.3       7 UNK        -0.1800 
     39 N           1.5592  -17.6369  -42.4777 N.am      7 UNK        -0.5000 
     40 C           0.4524  -17.8954  -41.7659 C.2       6 UNK         0.5000 
     41 O           0.1349  -19.0215  -41.3825 O.2       6 UNK        -0.5000 
     42 CA         -0.4731  -16.7008  -41.4619 C.3       6 UNK         0.1400 
     43 CB         -0.0143  -15.9699  -40.1914 C.3       6 UNK        -0.1800 
     44 N          -0.5496  -15.7448  -42.5686 N.am      6 UNK        -0.5000 
     45 C          -1.0832  -16.0183  -43.7677 C.2       5 UNK         0.5000 
     46 O          -1.6211  -17.0897  -44.0410 O.2       5 UNK        -0.5000 
     47 CA         -0.9547  -14.9395  -44.8599 C.3       5 UNK         0.1400 
     48 CB         -2.2072  -14.0528  -44.8887 C.3       5 UNK        -0.1800 
     49 N           0.2420  -14.1002  -44.7426 N.am      5 UNK        -0.5000 
     50 C           1.5051  -14.5514  -44.7502 C.2       4 UNK         0.5000 
     51 O           1.7859  -15.7458  -44.8622 O.2       4 UNK        -0.5000 
     52 CA          2.6357  -13.5160  -44.5763 C.3       4 UNK         0.1400 
     53 CB          3.9028  -13.8936  -45.3619 C.3       4 UNK        -0.1800 
     54 N           2.2219  -12.1627  -44.9529 N.am      4 UNK        -0.5000 
     55 C           1.7293  -11.2460  -44.1080 C.2       3 UNK         0.5000 
     56 O           1.5661  -11.4520  -42.9052 O.2       3 UNK        -0.5000 
     57 CA          1.3328   -9.8759  -44.6950 C.3       3 UNK         0.1400 
     58 CB          2.4375   -8.8410  -44.4327 C.3       3 UNK        -0.1800 
     59 N           1.0457   -9.9065  -46.1303 N.am      3 UNK        -0.5000 
     60 C          -0.0035  -10.5198  -46.6941 C.2       2 UNK         0.5000 
     61 O          -0.8632  -11.1202  -46.0495 O.2       2 UNK        -0.5000 
     62 CA         -0.1066  -10.4739  -48.2345 C.3       2 UNK         0.1400 
     63 CB          0.7840   -9.3944  -48.8901 C.3       2 UNK        -0.1800 
     64 N           0.1540  -11.7801  -48.8488 N.am      2 UNK        -0.5000 
     65 C           1.2346  -12.5588  -48.6821 C.2       1 UNK         0.5000 
     66 O           2.1774  -12.2584  -47.9465 O.2       1 UNK        -0.5000 
     67 C           0.0119  -24.8546  -46.6029 C.2       11 UNK         0.5000 
     68 O           0.1535  -25.9122  -47.2172 O.2       11 UNK        -0.5000 
     69 N          -1.1796  -24.2989  -46.3211 N.am      12 UNK        -0.5000 
     70 CA         -2.5150  -24.8721  -46.5341 C.3       12 UNK         0.1400 
     71 CB         -2.7369  -26.0777  -45.5980 C.3       12 UNK        -0.1800 
     72 C          -2.7983  -25.1934  -48.0140 C.2       12 UNK         0.5000 
     73 O          -3.2392  -26.2946  -48.3480 O.2       12 UNK        -0.5000 
     74 N          -2.5138  -24.2063  -48.8651 N.am      13 UNK        -0.5000 
     75 CA         -2.6841  -24.2142  -50.3156 C.3       13 UNK         0.1400 
     76 CB         -1.8129  -25.2903  -50.9953 C.3       13 UNK        -0.1800 
     77 C          -2.3221  -22.8272  -50.8536 C.2       13 UNK         0.5000 
     78 O          -3.0507  -22.2849  -51.6821 O.2       13 UNK        -0.5000 
     79 N          -1.2144  -22.2647  -50.3427 N.am      14 UNK        -0.5000 
     80 CA         -0.7472  -20.9051  -50.6240 C.3       14 UNK         0.1400 
     81 CB          0.5665  -20.6675  -49.8751 C.3       14 UNK        -0.1800 
     82 C          -1.7914  -19.8462  -50.2388 C.2       14 UNK         0.5000 
     83 O          -2.0894  -18.9627  -51.0401 O.2       14 UNK        -0.5000 
     84 N          -2.3726  -20.0394  -49.0525 N.am      15 UNK        -0.5000 
     85 CA         -3.6669  -19.5421  -48.6190 C.3       15 UNK         0.1400 
     86 CB         -3.4904  -18.3027  -47.7273 C.3       15 UNK        -0.1800 
     87 C          -4.3350  -20.6990  -47.8553 C.2       15 UNK         0.5000 
     88 O          -3.6600  -21.6785  -47.5192 O.2       15 UNK        -0.5000 
     89 N          -5.6399  -20.5602  -47.5883 N.am      16 UNK        -0.5000 
     90 CA         -6.5071  -21.5333  -46.9099 C.3       16 UNK         0.1400 
     91 CB         -6.0204  -21.7816  -45.4638 C.3       16 UNK        -0.1800 
     92 C          -6.6925  -22.8522  -47.6960 C.2       16 UNK         0.5000 
     93 O          -6.1752  -23.0027  -48.8053 O.2       16 UNK        -0.5000 
     94 N          -7.4808  -23.7703  -47.1161 N.am      17 UNK        -0.5000 
     95 CA         -7.8751  -25.1026  -47.6049 C.3       17 UNK         0.1400 
     96 CB         -6.6475  -26.0065  -47.8258 C.3       17 UNK        -0.1800 
     97 C          -8.7914  -25.0944  -48.8475 C.2       17 UNK         0.5000 
     98 O          -9.7725  -25.8383  -48.8814 O.2       17 UNK        -0.5000 
     99 N          -8.4737  -24.2475  -49.8272 N.am      18 UNK        -0.5000 
    100 CA        -9.2232  -23.9959  -51.0509 C.3       18 UNK         0.1400 
    101 CB        -8.8866  -25.0721  -52.1058 C.3       18 UNK        -0.1800 
    102 C         -8.9204  -22.5528  -51.4952 C.2       18 UNK         0.5000 
    103 O         -8.8264  -21.6651  -50.6431 O.2       18 UNK        -0.5000 
    104 N         -8.7616  -22.3304  -52.8059 N.am      19 UNK        -0.5000 
    105 CA        -8.2712  -21.0745  -53.3741 C.3       19 UNK         0.1400 
    106 CB        -8.5086  -21.0852  -54.8921 C.3       19 UNK        -0.1800 
    107 C         -6.7752  -20.8778  -53.0620 C.2       19 UNK         0.5000 
    108 O         -6.0303  -21.8587  -53.0173 O.2       19 UNK        -0.5000 
    109 N         -6.3688  -19.6178  -52.8672 N.am      20 UNK        -0.5000 
    110 CA        -4.9972  -19.2104  -52.5665 C.3       20 UNK         0.1400 
    111 CB        -5.0217  -17.7585  -52.0541 C.3       20 UNK        -0.1800 
    112 C         -4.0830  -19.3688  -53.7960 C.2       20 UNK         0.5000 
    113 O         -4.0328  -18.4735  -54.6423 O.2       20 UNK        -0.5000 
    114 N         -3.3910  -20.5112  -53.8847 N.am      21 UNK        -0.5000 
    115 CA        -2.5477  -20.9065  -55.0154 C.3       21 UNK         0.1400 
    116 CB        -2.1370  -22.3772  -54.8438 C.3       21 UNK        -0.1800 
    117 C         -1.2995  -20.0259  -55.2099 C.2       21 UNK         0.5000 
    118 O         -0.7769  -19.9670  -56.3239 O.2       21 UNK        -0.5000 
    119 N         -0.8558  -19.3597  -54.1382 N.am      22 UNK        -0.5000 
    120 CA         0.2769  -18.4212  -54.1328 C.3       22 UNK         0.1400 
    121 C         -0.1832  -16.9458  -53.9275 C.2       22 UNK         0.5000 
    122 N         -1.4689  -16.6251  -54.0361 N.am      22 UNK        -0.7600 
    123 O          0.6384  -16.0659  -53.6863 O.2       22 UNK        -0.5000 
    124 C124        1.3780  -18.8386  -53.1207 C.3       23 UNK        -0.0398 
    125 S125        1.9835  -20.5547  -53.3486 S.3       23 UNK        -0.2404 
    126 C126        3.7240  -20.4556  -52.8037 C.3       23 UNK        -0.0205 
    127 H127       -2.3592  -16.2624  -50.2526 H         1 UNK         0.0600 
    128 H128       -2.0599  -14.9652  -51.4097 H         1 UNK         0.0600 
    129 H129       -3.1584  -14.6989  -50.0522 H         1 UNK         0.0600 
    130 H130        0.0259  -14.2662  -51.1239 H         1 UNK         0.3000 
    131 H131        1.9554  -13.6515  -50.3338 H         1 UNK         0.0600 
    132 H132        2.9981  -14.7200  -48.4215 H         1 UNK         0.0800 
    133 H133        1.4565  -15.1880  -47.7452 H         1 UNK         0.0800 
    134 H134        4.3953  -16.8107  -48.9259 H         1 UNK         0.0800 
    135 H135        3.2972  -17.4630  -47.7221 H         1 UNK         0.0800 
    136 H136        3.5843  -18.1490  -51.4040 H         1 UNK         0.1150 
    137 H137        4.1716  -22.3513  -50.8682 H         1 UNK         0.1150 
    138 H138        3.9817  -19.7511  -47.4559 H         1 UNK         0.1150 
    139 H139        4.3310  -23.3178  -48.7011 H         1 UNK         0.0800 
    140 H140        5.4928  -22.3100  -47.8837 H         1 UNK         0.0800 
    141 H141        1.2175  -22.4384  -47.4602 H         1 UNK         0.0800 
    142 H142        2.0961  -23.8178  -48.0571 H         1 UNK         0.0800 
    143 H143        1.9951  -24.9015  -45.8182 H         1 UNK         0.0600 
    144 H144        1.0009  -22.3894  -44.8630 H         1 UNK         0.3000 
    145 H145       -0.5769  -23.6615  -41.9245 H         1 UNK         0.0600 
    146 H146        0.8844  -21.9512  -40.8180 H         1 UNK         0.0600 
    147 H147        2.0391  -22.0856  -42.1421 H         1 UNK         0.0600 
    148 H148        1.7215  -23.4684  -41.1111 H         1 UNK         0.0600 
    149 H149       -0.0991  -21.0388  -43.0870 H         1 UNK         0.3000 
    150 H150       -3.0744  -20.9887  -45.0134 H         1 UNK         0.0600 
    151 H151       -3.9956  -20.4690  -42.7460 H         1 UNK         0.0600 
    152 H152       -3.6811  -19.0085  -43.6703 H         1 UNK         0.0600 
    153 H153       -2.5725  -19.4946  -42.3880 H         1 UNK         0.0600 
    154 H154       -1.2295  -18.9239  -44.3822 H         1 UNK         0.3000 
    155 H155        1.2622  -19.7574  -46.8286 H         1 UNK         0.0600 
    156 H156       -0.2861  -18.3739  -48.0793 H         1 UNK         0.0600 
    157 H157        0.7447  -17.2701  -47.1865 H         1 UNK         0.0600 
    158 H158       -0.8839  -17.5870  -46.6268 H         1 UNK         0.0600 
    159 H159        1.2243  -17.6604  -44.9600 H         1 UNK         0.3000 
    160 H160        2.6408  -19.3944  -42.1666 H         1 UNK         0.0600 
    161 H161        3.7540  -17.3220  -44.1347 H         1 UNK         0.0600 
    162 H162        4.5452  -18.8052  -43.6264 H         1 UNK         0.0600 
    163 H163        4.2650  -17.5220  -42.4594 H         1 UNK         0.0600 
    164 H164        1.7122  -16.6991  -42.8219 H         1 UNK         0.3000 
    165 H165       -1.4762  -17.0954  -41.2863 H         1 UNK         0.0600 
    166 H166       -0.7071  -15.1719  -39.9236 H         1 UNK         0.0600 
    167 H167        0.0343  -16.6547  -39.3438 H         1 UNK         0.0600 
    168 H168        0.9756  -15.5287  -40.3145 H         1 UNK         0.0600 
    169 H169       -0.1322  -14.8375  -42.4225 H         1 UNK         0.3000 
    170 H170       -0.8883  -15.4610  -45.8133 H         1 UNK         0.0600 
    171 H171       -3.1146  -14.6567  -44.9335 H         1 UNK         0.0600 
    172 H172       -2.2742  -13.4181  -44.0045 H         1 UNK         0.0600 
    173 H173       -2.2090  -13.4103  -45.7690 H         1 UNK         0.0600 
    174 H174        0.0878  -13.1035  -44.6818 H         1 UNK         0.3000 
    175 H175        2.9015  -13.5338  -43.5176 H         1 UNK         0.0600 
    176 H176        3.7257  -13.8963  -46.4352 H         1 UNK         0.0600 
    177 H177        4.7105  -13.1896  -45.1616 H         1 UNK         0.0600 
    178 H178        4.2644  -14.8844  -45.0839 H         1 UNK         0.0600 
    179 H179        2.2734  -11.9427  -45.9434 H         1 UNK         0.3000 
    180 H180        0.4287   -9.5488  -44.1771 H         1 UNK         0.0600 
    181 H181        2.1379   -7.8489  -44.7709 H         1 UNK         0.0600 
    182 H182        3.3649   -9.1051  -44.9427 H         1 UNK         0.0600 
    183 H183        2.6587   -8.7662  -43.3671 H         1 UNK         0.0600 
    184 H184        1.7205   -9.4616  -46.7354 H         1 UNK         0.3000 
    185 H185       -1.1444  -10.2252  -48.4606 H         1 UNK         0.0600 
    186 H186        0.5879   -9.3298  -49.9604 H         1 UNK         0.0600 
    187 H187        0.5827   -8.4081  -48.4697 H         1 UNK         0.0600 
    188 H188        1.8474   -9.6014  -48.7656 H         1 UNK         0.0600 
    189 H189       -0.5808  -12.1396  -49.4410 H         1 UNK         0.3000 
    190 H190       -1.1690  -23.3903  -45.8748 H         1 UNK         0.3000 
    191 H191       -3.2299  -24.1001  -46.2453 H         1 UNK         0.0600 
    192 H192       -3.7616  -26.4440  -45.6687 H         1 UNK         0.0600 
    193 H193       -2.5617  -25.8026  -44.5577 H         1 UNK         0.0600 
    194 H194       -2.0733  -26.9078  -45.8417 H         1 UNK         0.0600 
    195 H195       -2.2825  -23.3079  -48.4598 H         1 UNK         0.3000 
    196 H196       -3.7364  -24.4026  -50.5386 H         1 UNK         0.0600 
    197 H197       -1.8623  -25.2025  -52.0815 H         1 UNK         0.0600 
    198 H198       -2.1462  -26.2966  -50.7436 H         1 UNK         0.0600 
    199 H199       -0.7653  -25.2032  -50.7050 H         1 UNK         0.0600 
    200 H200       -0.6523  -22.8078  -49.7055 H         1 UNK         0.3000 
    201 H201       -0.5619  -20.8301  -51.6960 H         1 UNK         0.0600 
    202 H202        0.4429  -20.7843  -48.8021 H         1 UNK         0.0600 
    203 H203        0.9466  -19.6608  -50.0431 H         1 UNK         0.0600 
    204 H204        1.3292  -21.3711  -50.2026 H         1 UNK         0.0600 
    205 H205       -2.0539  -20.8138  -48.4799 H         1 UNK         0.3000 
    206 H206       -4.2786  -19.2918  -49.4867 H         1 UNK         0.0600 
    207 H207       -2.8723  -17.5476  -48.2127 H         1 UNK         0.0600 
    208 H208       -4.4531  -17.8408  -47.5080 H         1 UNK         0.0600 
    209 H209       -3.0292  -18.5555  -46.7729 H         1 UNK         0.0600 
    210 H210       -6.1115  -19.7347  -47.9287 H         1 UNK         0.3000 
    211 H211       -7.4908  -21.0646  -46.8563 H         1 UNK         0.0600 
    212 H212       -5.1173  -22.3922  -45.4362 H         1 UNK         0.0600 
    213 H213       -6.7768  -22.2981  -44.8727 H         1 UNK         0.0600 
    214 H214       -5.8044  -20.8432  -44.9529 H         1 UNK         0.0600 
    215 H215       -7.8906  -23.5243  -46.2260 H         1 UNK         0.3000 
    216 H216       -8.4584  -25.5458  -46.7962 H         1 UNK         0.0600 
    217 H217       -6.0269  -26.0566  -46.9313 H         1 UNK         0.0600 
    218 H218       -6.0226  -25.6542  -48.6469 H         1 UNK         0.0600 
    219 H219       -6.9533  -27.0251  -48.0673 H         1 UNK         0.0600 
    220 H220       -7.6589  -23.6528  -49.6837 H         1 UNK         0.3000 
    221 H221      -10.2912  -24.0405  -50.8292 H         1 UNK         0.0600 
    222 H222       -9.4953  -24.9556  -53.0030 H         1 UNK         0.0600 
    223 H223       -7.8371  -25.0309  -52.4006 H         1 UNK         0.0600 
    224 H224       -9.0818  -26.0735  -51.7219 H         1 UNK         0.0600 
    225 H225       -8.8148  -23.1161  -53.4370 H         1 UNK         0.3000 
    226 H226       -8.8387  -20.2498  -52.9373 H         1 UNK         0.0600 
    227 H227       -9.5672  -21.2006  -55.1256 H         1 UNK         0.0600 
    228 H228       -8.1762  -20.1507  -55.3460 H         1 UNK         0.0600 
    229 H229       -7.9661  -21.8969  -55.3788 H         1 UNK         0.0600 
    230 H230       -7.0409  -18.8702  -52.9599 H         1 UNK         0.3000 
    231 H231       -4.6130  -19.8490  -51.7689 H         1 UNK         0.0600 
    232 H232       -4.0133  -17.3884  -51.8689 H         1 UNK         0.0600 
    233 H233       -5.5724  -17.6802  -51.1167 H         1 UNK         0.0600 
    234 H234       -5.4860  -17.0828  -52.7733 H         1 UNK         0.0600 
    235 H235       -3.4782  -21.1943  -53.1331 H         1 UNK         0.3000 
    236 H236       -3.1516  -20.8240  -55.9212 H         1 UNK         0.0600 
    237 H237       -1.4987  -22.5154  -53.9702 H         1 UNK         0.0600 
    238 H238       -3.0092  -23.0211  -54.7278 H         1 UNK         0.0600 
    239 H239       -1.5824  -22.7321  -55.7133 H         1 UNK         0.0600 
    240 H240       -1.3771  -19.4279  -53.2743 H         1 UNK         0.3000 
    241 H241        0.7482  -18.4209  -55.1167 H         1 UNK         0.0600 
    242 H242       -1.7464  -15.6642  -53.9220 H         1 UNK         0.3800 
    243 H243       -2.1642  -17.3208  -54.2709 H         1 UNK         0.3800 
    244 H244        1.0140  -18.7231  -52.1005 H         1 UNK         0.0800 
    245 H245        2.2278  -18.1627  -53.2204 H         1 UNK         0.0800 
    246 H246        4.2364  -21.3700  -53.1059 H         1 UNK         0.0800 
    247 H247        4.2280  -19.6400  -53.3244 H         1 UNK         0.0800 
@<TRIPOS>BOND
     1    1    2 1    
     2    1  127 1    
     3    1  128 1    
     4    1  129 1    
     5    2    3 2    
     6    2    4 am   BACKBONE|DICT|INTERRES
     7    4    5 1    
     8    4  130 1    
     9    5    6 1    
    10    5   65 1    
    11    5  131 1    
    12    6    7 1    
    13    6  132 1    
    14    6  133 1    
    15    7    8 1    
    16    8    9 1    
    17    8  134 1    
    18    8  135 1    
    19    9   10 ar   
    20    9   14 ar   
    21   10   11 ar   
    22   10  136 1    
    23   11   12 ar   
    24   11  126 1    
    25   12   13 ar   
    26   12  137 1    
    27   13   14 ar   
    28   13   15 1    
    29   14  138 1    
    30   15   16 1    
    31   15  139 1    
    32   15  140 1    
    33   16   17 1    
    34   17   18 1    
    35   17  141 1    
    36   17  142 1    
    37   18   19 1    
    38   18   67 1    
    39   18  143 1    
    40   19   20 am   BACKBONE|DICT|INTERRES
    41   19  144 1    
    42   20   21 2    
    43   20   22 1    
    44   22   23 1    
    45   22   24 1    
    46   22  145 1    
    47   23  146 1    
    48   23  147 1    
    49   23  148 1    
    50   24   25 am   BACKBONE|DICT|INTERRES
    51   24  149 1    
    52   25   26 2    
    53   25   27 1    
    54   27   28 1    
    55   27   29 1    
    56   27  150 1    
    57   28  151 1    
    58   28  152 1    
    59   28  153 1    
    60   29   30 am   BACKBONE|DICT|INTERRES
    61   29  154 1    
    62   30   31 2    
    63   30   32 1    
    64   32   33 1    
    65   32   34 1    
    66   32  155 1    
    67   33  156 1    
    68   33  157 1    
    69   33  158 1    
    70   34   35 am   BACKBONE|DICT|INTERRES
    71   34  159 1    
    72   35   36 2    
    73   35   37 1    
    74   37   38 1    
    75   37   39 1    
    76   37  160 1    
    77   38  161 1    
    78   38  162 1    
    79   38  163 1    
    80   39   40 am   BACKBONE|DICT|INTERRES
    81   39  164 1    
    82   40   41 2    
    83   40   42 1    
    84   42   43 1    
    85   42   44 1    
    86   42  165 1    
    87   43  166 1    
    88   43  167 1    
    89   43  168 1    
    90   44   45 am   BACKBONE|DICT|INTERRES
    91   44  169 1    
    92   45   46 2    
    93   45   47 1    
    94   47   48 1    
    95   47   49 1    
    96   47  170 1    
    97   48  171 1    
    98   48  172 1    
    99   48  173 1    
   100   49   50 am   BACKBONE|DICT|INTERRES
   101   49  174 1    
   102   50   51 2    
   103   50   52 1    
   104   52   53 1    
   105   52   54 1    
   106   52  175 1    
   107   53  176 1    
   108   53  177 1    
   109   53  178 1    
   110   54   55 am   BACKBONE|DICT|INTERRES
   111   54  179 1    
   112   55   56 2    
   113   55   57 1    
   114   57   58 1    
   115   57   59 1    
   116   57  180 1    
   117   58  181 1    
   118   58  182 1    
   119   58  183 1    
   120   59   60 am   BACKBONE|DICT|INTERRES
   121   59  184 1    
   122   60   61 2    
   123   60   62 1    
   124   62   63 1    
   125   62   64 1    
   126   62  185 1    
   127   63  186 1    
   128   63  187 1    
   129   63  188 1    
   130   64   65 am   BACKBONE|DICT|INTERRES
   131   64  189 1    
   132   65   66 2    
   133   67   68 2    
   134   67   69 am   BACKBONE|DICT|INTERRES
   135   69   70 1    
   136   69  190 1    
   137   70   71 1    
   138   70   72 1    
   139   70  191 1    
   140   71  192 1    
   141   71  193 1    
   142   71  194 1    
   143   72   73 2    
   144   72   74 am   BACKBONE|DICT|INTERRES
   145   74   75 1    
   146   74  195 1    
   147   75   76 1    
   148   75   77 1    
   149   75  196 1    
   150   76  197 1    
   151   76  198 1    
   152   76  199 1    
   153   77   78 2    
   154   77   79 am   BACKBONE|DICT|INTERRES
   155   79   80 1    
   156   79  200 1    
   157   80   81 1    
   158   80   82 1    
   159   80  201 1    
   160   81  202 1    
   161   81  203 1    
   162   81  204 1    
   163   82   83 2    
   164   82   84 am   BACKBONE|DICT|INTERRES
   165   84   85 1    
   166   84  205 1    
   167   85   86 1    
   168   85   87 1    
   169   85  206 1    
   170   86  207 1    
   171   86  208 1    
   172   86  209 1    
   173   87   88 2    
   174   87   89 am   BACKBONE|DICT|INTERRES
   175   89   90 1    
   176   89  210 1    
   177   90   91 1    
   178   90   92 1    
   179   90  211 1    
   180   91  212 1    
   181   91  213 1    
   182   91  214 1    
   183   92   93 2    
   184   92   94 am   BACKBONE|DICT|INTERRES
   185   94   95 1    
   186   94  215 1    
   187   95   96 1    
   188   95   97 1    
   189   95  216 1    
   190   96  217 1    
   191   96  218 1    
   192   96  219 1    
   193   97   98 2    
   194   97   99 am   BACKBONE|DICT|INTERRES
   195   99  100 1    
   196   99  220 1    
   197  100  101 1    
   198  100  102 1    
   199  100  221 1    
   200  101  222 1    
   201  101  223 1    
   202  101  224 1    
   203  102  103 2    
   204  102  104 am   BACKBONE|DICT|INTERRES
   205  104  105 1    
   206  104  225 1    
   207  105  106 1    
   208  105  107 1    
   209  105  226 1    
   210  106  227 1    
   211  106  228 1    
   212  106  229 1    
   213  107  108 2    
   214  107  109 am   BACKBONE|DICT|INTERRES
   215  109  110 1    
   216  109  230 1    
   217  110  111 1    
   218  110  112 1    
   219  110  231 1    
   220  111  232 1    
   221  111  233 1    
   222  111  234 1    
   223  112  113 2    
   224  112  114 am   BACKBONE|DICT|INTERRES
   225  114  115 1    
   226  114  235 1    
   227  115  116 1    
   228  115  117 1    
   229  115  236 1    
   230  116  237 1    
   231  116  238 1    
   232  116  239 1    
   233  117  118 2    
   234  117  119 am   BACKBONE|DICT|INTERRES
   235  119  120 1    
   236  119  240 1    
   237  120  121 1    
   238  120  124 1    
   239  120  241 1    
   240  121  122 am   BACKBONE|DICT|INTERRES
   241  121  123 2    
   242  122  242 1    
   243  122  243 1    
   244  124  125 1    
   245  124  244 1    
   246  124  245 1    
   247  125  126 1    
   248  126  246 1    
   249  126  247 1    
@<TRIPOS>SUBSTRUCTURE
     1 UNK         1 GROUP             0       ****    0 ROOT    
