@<TRIPOS>MOLECULE
3R540
247   249    1
SMALL
USER_CHARGES


@<TRIPOS>ATOM
      1 CA          2.7570  -12.8791  -47.7782 C.3       0 UNK        -0.1800 
      2 C           2.6381  -14.3618  -48.1007 C.2       0 UNK         0.5000 
      3 O           3.3122  -15.1787  -47.4742 O.2       0 UNK        -0.5000 
      4 N           1.7822  -14.7066  -49.0690 N.am      1 UNK        -0.5000 
      5 CA          1.5051  -16.0806  -49.5021 C.3       1 UNK         0.1400 
      6 C6          2.3260  -16.4709  -50.7607 C.3       23 UNK        -0.0398 
      7 S7          2.6380  -18.2633  -50.8332 S.3       23 UNK        -0.2404 
      8 C8          3.6830  -18.3964  -52.3170 C.3       23 UNK        -0.0205 
      9 C9          4.1092  -19.8424  -52.4965 C.ar      23 UNK        -0.0193 
     10 C10         3.4926  -20.6627  -53.4454 C.ar      23 UNK        -0.1150 
     11 C11         3.7914  -22.0285  -53.5004 C.ar      23 UNK        -0.0193 
     12 C12         4.7103  -22.5701  -52.5944 C.ar      23 UNK        -0.1150 
     13 C13         5.3321  -21.7538  -51.6454 C.ar      23 UNK        -0.0193 
     14 C14         5.0625  -20.3840  -51.6336 C.ar      23 UNK        -0.1150 
     15 C15         6.2124  -22.3501  -50.5574 C.3       23 UNK        -0.0205 
     16 S16         5.2356  -23.1138  -49.2100 S.3       23 UNK        -0.2404 
     17 C17         3.9459  -21.8670  -48.8410 C.3       23 UNK        -0.0398 
     18 CA          2.7131  -22.4998  -48.1610 C.3       11 UNK         0.1400 
     19 N           2.9457  -22.7807  -46.7429 N.am      11 UNK        -0.5000 
     20 C           2.1458  -23.5419  -45.9844 C.2       10 UNK         0.5000 
     21 O           1.1514  -24.1206  -46.4176 O.2       10 UNK        -0.5000 
     22 CA          2.4806  -23.6266  -44.4837 C.3       10 UNK         0.1400 
     23 CB          3.4248  -24.8058  -44.2081 C.3       10 UNK        -0.1800 
     24 N           3.0754  -22.3938  -43.9601 N.am      10 UNK        -0.5000 
     25 C           2.4499  -21.2108  -43.9100 C.2       9 UNK         0.5000 
     26 O           1.2904  -21.0317  -44.2904 O.2       9 UNK        -0.5000 
     27 CA          3.2836  -20.0221  -43.4144 C.3       9 UNK         0.1400 
     28 CB          3.4497  -18.9713  -44.5246 C.3       9 UNK        -0.1800 
     29 N           2.6497  -19.4000  -42.2581 N.am      9 UNK        -0.5000 
     30 C           2.9032  -19.7309  -40.9865 C.2       8 UNK         0.5000 
     31 O           3.6646  -20.6427  -40.6599 O.2       8 UNK        -0.5000 
     32 CA          2.2164  -18.8985  -39.8930 C.3       8 UNK         0.1400 
     33 CB          2.8654  -17.5090  -39.7816 C.3       8 UNK        -0.1800 
     34 N           0.7843  -18.7378  -40.1419 N.am      8 UNK        -0.5000 
     35 C          -0.1820  -19.0578  -39.2682 C.2       7 UNK         0.5000 
     36 O           0.0352  -19.5662  -38.1673 O.2       7 UNK        -0.5000 
     37 CA         -1.6418  -18.7474  -39.6631 C.3       7 UNK         0.1400 
     38 CB         -2.1498  -17.5110  -38.9055 C.3       7 UNK        -0.1800 
     39 N          -1.8205  -18.5273  -41.0972 N.am      7 UNK        -0.5000 
     40 C          -1.7738  -19.4965  -42.0218 C.2       6 UNK         0.5000 
     41 O          -1.6778  -20.6919  -41.7444 O.2       6 UNK        -0.5000 
     42 CA         -1.8202  -19.0686  -43.5019 C.3       6 UNK         0.1400 
     43 CB         -3.1980  -19.3697  -44.1056 C.3       6 UNK        -0.1800 
     44 N          -1.4992  -17.6576  -43.7450 N.am      6 UNK        -0.5000 
     45 C          -0.3359  -17.0551  -43.4498 C.2       5 UNK         0.5000 
     46 O           0.6162  -17.6332  -42.9278 O.2       5 UNK        -0.5000 
     47 CA         -0.2312  -15.5435  -43.7291 C.3       5 UNK         0.1400 
     48 CB          0.4369  -15.2984  -45.0901 C.3       5 UNK        -0.1800 
     49 N          -1.5212  -14.8495  -43.6816 N.am      5 UNK        -0.5000 
     50 C          -2.3257  -14.8055  -42.6073 C.2       4 UNK         0.5000 
     51 O          -2.0364  -15.3168  -41.5248 O.2       4 UNK        -0.5000 
     52 CA         -3.6953  -14.1154  -42.7608 C.3       4 UNK         0.1400 
     53 CB         -3.6819  -12.7422  -42.0719 C.3       4 UNK        -0.1800 
     54 N          -4.1539  -13.9444  -44.1418 N.am      4 UNK        -0.5000 
     55 C          -4.3987  -14.9234  -45.0233 C.2       3 UNK         0.5000 
     56 O          -4.2014  -16.1184  -44.7925 O.2       3 UNK        -0.5000 
     57 CA         -4.9456  -14.5043  -46.4042 C.3       3 UNK         0.1400 
     58 CB         -5.1362  -12.9817  -46.5856 C.3       3 UNK        -0.1800 
     59 N          -4.1370  -15.0429  -47.4988 N.am      3 UNK        -0.5000 
     60 C          -2.8280  -14.8690  -47.7087 C.2       2 UNK         0.5000 
     61 O          -2.0834  -14.2044  -46.9821 O.2       2 UNK        -0.5000 
     62 CA         -2.2760  -15.5473  -48.9684 C.3       2 UNK         0.1400 
     63 CB         -2.7970  -14.8527  -50.2416 C.3       2 UNK        -0.1800 
     64 N          -0.8202  -15.5097  -48.9401 N.am      2 UNK        -0.5000 
     65 C          -0.0163  -16.3006  -49.6603 C.2       1 UNK         0.5000 
     66 O          -0.4429  -17.1637  -50.4271 O.2       1 UNK        -0.5000 
     67 C           1.4532  -21.6361  -48.3882 C.2       11 UNK         0.5000 
     68 O           0.7365  -21.8722  -49.3582 O.2       11 UNK        -0.5000 
     69 N           1.1707  -20.6858  -47.4855 N.am      12 UNK        -0.5000 
     70 CA         -0.0432  -19.8670  -47.5394 C.3       12 UNK         0.1400 
     71 CB          0.1285  -18.6322  -46.6500 C.3       12 UNK        -0.1800 
     72 C          -1.2993  -20.6677  -47.1455 C.2       12 UNK         0.5000 
     73 O          -2.3784  -20.4149  -47.6827 O.2       12 UNK        -0.5000 
     74 N          -1.1334  -21.6490  -46.2466 N.am      13 UNK        -0.5000 
     75 CA         -2.1628  -22.6324  -45.9118 C.3       13 UNK         0.1400 
     76 CB         -1.7732  -23.3840  -44.6311 C.3       13 UNK        -0.1800 
     77 C          -2.4337  -23.5999  -47.0807 C.2       13 UNK         0.5000 
     78 O          -3.5959  -23.8783  -47.3723 O.2       13 UNK        -0.5000 
     79 N          -1.3733  -24.0432  -47.7739 N.am      14 UNK        -0.5000 
     80 CA         -1.4491  -24.8433  -49.0029 C.3       14 UNK         0.1400 
     81 CB         -0.0493  -25.3468  -49.3848 C.3       14 UNK        -0.1800 
     82 C          -2.0956  -24.0807  -50.1774 C.2       14 UNK         0.5000 
     83 O          -2.8135  -24.6852  -50.9737 O.2       14 UNK        -0.5000 
     84 N          -1.8866  -22.7574  -50.2237 N.am      15 UNK        -0.5000 
     85 CA         -2.5637  -21.8135  -51.1162 C.3       15 UNK         0.1400 
     86 CB         -1.7486  -20.5111  -51.1868 C.3       15 UNK        -0.1800 
     87 C          -4.0281  -21.5218  -50.7151 C.2       15 UNK         0.5000 
     88 O          -4.6798  -20.7199  -51.3851 O.2       15 UNK        -0.5000 
     89 N          -4.5218  -22.1638  -49.6458 N.am      16 UNK        -0.5000 
     90 CA         -5.8811  -22.0929  -49.1097 C.3       16 UNK         0.1400 
     91 CB         -6.8900  -22.7469  -50.0769 C.3       16 UNK        -0.1800 
     92 C          -6.2720  -20.6820  -48.6296 C.2       16 UNK         0.5000 
     93 O          -7.4134  -20.2539  -48.8160 O.2       16 UNK        -0.5000 
     94 N          -5.3090  -19.9985  -47.9914 N.am      17 UNK        -0.5000 
     95 CA         -5.4369  -18.7025  -47.3276 C.3       17 UNK         0.1400 
     96 CB         -6.2659  -18.8482  -46.0319 C.3       17 UNK        -0.1800 
     97 C          -5.9571  -17.6134  -48.2829 C.2       17 UNK         0.5000 
     98 O          -5.2153  -17.1821  -49.1660 O.2       17 UNK        -0.5000 
     99 N          -7.2023  -17.1641  -48.0850 N.am      18 UNK        -0.5000 
    100 CA        -7.8585  -16.1104  -48.8616 C.3       18 UNK         0.1400 
    101 CB        -9.1772  -15.7371  -48.1680 C.3       18 UNK        -0.1800 
    102 C         -8.1026  -16.4656  -50.3426 C.2       18 UNK         0.5000 
    103 O         -8.3285  -15.5564  -51.1419 O.2       18 UNK        -0.5000 
    104 N         -8.0500  -17.7602  -50.6911 N.am      19 UNK        -0.5000 
    105 CA        -8.1678  -18.2459  -52.0673 C.3       19 UNK         0.1400 
    106 CB        -8.3423  -19.7688  -52.0519 C.3       19 UNK        -0.1800 
    107 C         -6.9660  -17.8607  -52.9523 C.2       19 UNK         0.5000 
    108 O         -7.1525  -17.6672  -54.1543 O.2       19 UNK        -0.5000 
    109 N         -5.7735  -17.7491  -52.3424 N.am      20 UNK        -0.5000 
    110 CA        -4.4939  -17.3764  -52.9575 C.3       20 UNK         0.1400 
    111 CB        -4.5069  -15.8798  -53.3330 C.3       20 UNK        -0.1800 
    112 C         -4.1042  -18.2888  -54.1432 C.2       20 UNK         0.5000 
    113 O         -3.7597  -17.7966  -55.2203 O.2       20 UNK        -0.5000 
    114 N         -4.2080  -19.6063  -53.9271 N.am      21 UNK        -0.5000 
    115 CA        -3.9122  -20.6561  -54.9003 C.3       21 UNK         0.1400 
    116 CB        -4.8040  -21.8772  -54.5930 C.3       21 UNK        -0.1800 
    117 C         -2.4000  -20.9800  -54.9630 C.2       21 UNK         0.5000 
    118 O         -1.5731  -20.0680  -54.9235 O.2       21 UNK        -0.5000 
    119 N         -2.0597  -22.2708  -55.0910 N.am      22 UNK        -0.5000 
    120 CA        -0.7011  -22.7962  -55.3363 C.3       22 UNK         0.1400 
    121 C         -0.1896  -22.5769  -56.7975 C.2       22 UNK         0.5000 
    122 N         -1.0331  -22.1835  -57.7449 N.am      22 UNK        -0.7600 
    123 O          0.9782  -22.7990  -57.0998 O.2       22 UNK        -0.5000 
    124 C124        0.3275  -22.3744  -54.2411 C.3       23 UNK        -0.0398 
    125 S125        1.5711  -23.6639  -53.8748 S.3       23 UNK        -0.2404 
    126 C126        3.1099  -22.9269  -54.5214 C.3       23 UNK        -0.0205 
    127 H127        2.4870  -12.7000  -46.7374 H         1 UNK         0.0600 
    128 H128        2.1052  -12.2725  -48.4074 H         1 UNK         0.0600 
    129 H129        3.7831  -12.5436  -47.9282 H         1 UNK         0.0600 
    130 H130        1.2634  -13.9875  -49.5552 H         1 UNK         0.3000 
    131 H131        1.7969  -16.7517  -48.6932 H         1 UNK         0.0600 
    132 H132        1.8378  -16.1396  -51.6788 H         1 UNK         0.0800 
    133 H133        3.2992  -15.9783  -50.7389 H         1 UNK         0.0800 
    134 H134        4.5627  -17.7596  -52.2121 H         1 UNK         0.0800 
    135 H135        3.1321  -18.0403  -53.1890 H         1 UNK         0.0800 
    136 H136        2.7573  -20.2438  -54.1169 H         1 UNK         0.1150 
    137 H137        4.9117  -23.6322  -52.6017 H         1 UNK         0.1150 
    138 H138        5.5165  -19.7537  -50.8814 H         1 UNK         0.1150 
    139 H139        6.8718  -23.1033  -50.9908 H         1 UNK         0.0800 
    140 H140        6.8631  -21.5843  -50.1324 H         1 UNK         0.0800 
    141 H141        3.6224  -21.4073  -49.7717 H         1 UNK         0.0800 
    142 H142        4.3706  -21.0638  -48.2369 H         1 UNK         0.0800 
    143 H143        2.5145  -23.4544  -48.6532 H         1 UNK         0.0600 
    144 H144        3.7581  -22.3579  -46.3195 H         1 UNK         0.3000 
    145 H145        1.5463  -23.8025  -43.9465 H         1 UNK         0.0600 
    146 H146        3.6071  -24.9240  -43.1398 H         1 UNK         0.0600 
    147 H147        2.9951  -25.7416  -44.5685 H         1 UNK         0.0600 
    148 H148        4.3885  -24.6754  -44.7019 H         1 UNK         0.0600 
    149 H149        4.0246  -22.4613  -43.6216 H         1 UNK         0.3000 
    150 H150        4.2819  -20.3724  -43.1429 H         1 UNK         0.0600 
    151 H151        3.8893  -19.4098  -45.4212 H         1 UNK         0.0600 
    152 H152        4.1074  -18.1639  -44.2023 H         1 UNK         0.0600 
    153 H153        2.4972  -18.5246  -44.8078 H         1 UNK         0.0600 
    154 H154        1.9560  -18.6846  -42.4682 H         1 UNK         0.3000 
    155 H155        2.3857  -19.4203  -38.9490 H         1 UNK         0.0600 
    156 H156        2.7155  -16.9194  -40.6870 H         1 UNK         0.0600 
    157 H157        3.9402  -17.5904  -39.6146 H         1 UNK         0.0600 
    158 H158        2.4481  -16.9477  -38.9454 H         1 UNK         0.0600 
    159 H159        0.5234  -18.3524  -41.0429 H         1 UNK         0.3000 
    160 H160       -2.2525  -19.6026  -39.3660 H         1 UNK         0.0600 
    161 H161       -1.5578  -16.6255  -39.1402 H         1 UNK         0.0600 
    162 H162       -2.0967  -17.6639  -37.8269 H         1 UNK         0.0600 
    163 H163       -3.1894  -17.2946  -39.1522 H         1 UNK         0.0600 
    164 H164       -1.9010  -17.5638  -41.3994 H         1 UNK         0.3000 
    165 H165       -1.0810  -19.6794  -44.0203 H         1 UNK         0.0600 
    166 H166       -3.1992  -19.1917  -45.1799 H         1 UNK         0.0600 
    167 H167       -3.4790  -20.4116  -43.9487 H         1 UNK         0.0600 
    168 H168       -3.9755  -18.7479  -43.6603 H         1 UNK         0.0600 
    169 H169       -2.2445  -17.0931  -44.1353 H         1 UNK         0.3000 
    170 H170        0.4045  -15.1119  -42.9534 H         1 UNK         0.0600 
    171 H171        1.4256  -15.7583  -45.1295 H         1 UNK         0.0600 
    172 H172       -0.1495  -15.7184  -45.9067 H         1 UNK         0.0600 
    173 H173        0.5661  -14.2334  -45.2833 H         1 UNK         0.0600 
    174 H174       -1.8397  -14.4239  -44.5426 H         1 UNK         0.3000 
    175 H175       -4.4262  -14.7459  -42.2505 H         1 UNK         0.0600 
    176 H176       -2.9884  -12.0556  -42.5592 H         1 UNK         0.0600 
    177 H177       -4.6715  -12.2850  -42.0816 H         1 UNK         0.0600 
    178 H178       -3.3777  -12.8299  -41.0279 H         1 UNK         0.0600 
    179 H179       -4.3193  -12.9932  -44.4371 H         1 UNK         0.3000 
    180 H180       -5.9288  -14.9687  -46.4870 H         1 UNK         0.0600 
    181 H181       -4.1946  -12.4366  -46.5081 H         1 UNK         0.0600 
    182 H182       -5.8241  -12.5753  -45.8431 H         1 UNK         0.0600 
    183 H183       -5.5618  -12.7601  -47.5644 H         1 UNK         0.0600 
    184 H184       -4.6289  -15.6401  -48.1559 H         1 UNK         0.3000 
    185 H185       -2.6011  -16.5900  -48.9588 H         1 UNK         0.0600 
    186 H186       -2.4796  -13.8104  -50.2875 H         1 UNK         0.0600 
    187 H187       -2.4390  -15.3513  -51.1420 H         1 UNK         0.0600 
    188 H188       -3.8865  -14.8669  -50.2804 H         1 UNK         0.0600 
    189 H189       -0.4325  -14.8499  -48.2771 H         1 UNK         0.3000 
    190 H190        1.7633  -20.5746  -46.6761 H         1 UNK         0.3000 
    191 H191       -0.1794  -19.5175  -48.5649 H         1 UNK         0.0600 
    192 H192       -0.7676  -18.0104  -46.6659 H         1 UNK         0.0600 
    193 H193        0.9634  -18.0171  -46.9804 H         1 UNK         0.0600 
    194 H194        0.3227  -18.9142  -45.6183 H         1 UNK         0.0600 
    195 H195       -0.2269  -21.7631  -45.8110 H         1 UNK         0.3000 
    196 H196       -3.0906  -22.0926  -45.7113 H         1 UNK         0.0600 
    197 H197       -2.5706  -24.0606  -44.3219 H         1 UNK         0.0600 
    198 H198       -1.5953  -22.6921  -43.8074 H         1 UNK         0.0600 
    199 H199       -0.8730  -23.9819  -44.7654 H         1 UNK         0.0600 
    200 H200       -0.4422  -23.8415  -47.4203 H         1 UNK         0.3000 
    201 H201       -2.0739  -25.7133  -48.7906 H         1 UNK         0.0600 
    202 H202        0.4110  -25.8994  -48.5656 H         1 UNK         0.0600 
    203 H203        0.6156  -24.5269  -49.6535 H         1 UNK         0.0600 
    204 H204       -0.0995  -26.0178  -50.2432 H         1 UNK         0.0600 
    205 H205       -1.1977  -22.3609  -49.5931 H         1 UNK         0.3000 
    206 H206       -2.5833  -22.2532  -52.1143 H         1 UNK         0.0600 
    207 H207       -0.7027  -20.7027  -51.4265 H         1 UNK         0.0600 
    208 H208       -2.1353  -19.8440  -51.9569 H         1 UNK         0.0600 
    209 H209       -1.7808  -19.9638  -50.2458 H         1 UNK         0.0600 
    210 H210       -3.9015  -22.7786  -49.1332 H         1 UNK         0.3000 
    211 H211       -5.8794  -22.7016  -48.2050 H         1 UNK         0.0600 
    212 H212       -6.8649  -22.2979  -51.0677 H         1 UNK         0.0600 
    213 H213       -7.9114  -22.6712  -49.7025 H         1 UNK         0.0600 
    214 H214       -6.6718  -23.8078  -50.1981 H         1 UNK         0.0600 
    215 H215       -4.3747  -20.3966  -47.9647 H         1 UNK         0.3000 
    216 H216       -4.4286  -18.3974  -47.0450 H         1 UNK         0.0600 
    217 H217       -6.3143  -17.9040  -45.4877 H         1 UNK         0.0600 
    218 H218       -5.8131  -19.5791  -45.3626 H         1 UNK         0.0600 
    219 H219       -7.2872  -19.1779  -46.2252 H         1 UNK         0.0600 
    220 H220       -7.7559  -17.5988  -47.3610 H         1 UNK         0.3000 
    221 H221       -7.2078  -15.2336  -48.8481 H         1 UNK         0.0600 
    222 H222       -9.8637  -16.5838  -48.1293 H         1 UNK         0.0600 
    223 H223       -9.0041  -15.3964  -47.1470 H         1 UNK         0.0600 
    224 H224       -9.6831  -14.9281  -48.6968 H         1 UNK         0.0600 
    225 H225       -7.8680  -18.4552  -49.9755 H         1 UNK         0.3000 
    226 H226       -9.0643  -17.8040  -52.5072 H         1 UNK         0.0600 
    227 H227       -7.4493  -20.2522  -51.6604 H         1 UNK         0.0600 
    228 H228       -9.1895  -20.0701  -51.4356 H         1 UNK         0.0600 
    229 H229       -8.5110  -20.1555  -53.0577 H         1 UNK         0.0600 
    230 H230       -5.7350  -17.9332  -51.3477 H         1 UNK         0.3000 
    231 H231       -3.7314  -17.5209  -52.1902 H         1 UNK         0.0600 
    232 H232       -3.5172  -15.5481  -53.6488 H         1 UNK         0.0600 
    233 H233       -4.8039  -15.2620  -52.4861 H         1 UNK         0.0600 
    234 H234       -5.1990  -15.6740  -54.1502 H         1 UNK         0.0600 
    235 H235       -4.4851  -19.9232  -52.9994 H         1 UNK         0.3000 
    236 H236       -4.1921  -20.2940  -55.8915 H         1 UNK         0.0600 
    237 H237       -5.8514  -21.5838  -54.5148 H         1 UNK         0.0600 
    238 H238       -4.7461  -22.6239  -55.3856 H         1 UNK         0.0600 
    239 H239       -4.5298  -22.3607  -53.6553 H         1 UNK         0.0600 
    240 H240       -2.7986  -22.9592  -55.1176 H         1 UNK         0.3000 
    241 H241       -0.8284  -23.8764  -55.2589 H         1 UNK         0.0600 
    242 H242       -0.6930  -22.0597  -58.6858 H         1 UNK         0.3800 
    243 H243       -2.0034  -22.0139  -57.5378 H         1 UNK         0.3800 
    244 H244        0.8082  -21.4312  -54.5004 H         1 UNK         0.0800 
    245 H245       -0.1900  -22.1877  -53.3001 H         1 UNK         0.0800 
    246 H246        2.9115  -22.3698  -55.4371 H         1 UNK         0.0800 
    247 H247        3.7870  -23.7339  -54.8049 H         1 UNK         0.0800 
@<TRIPOS>BOND
     1    1    2 1    
     2    1  127 1    
     3    1  128 1    
     4    1  129 1    
     5    2    3 2    
     6    2    4 am   BACKBONE|DICT|INTERRES
     7    4    5 1    
     8    4  130 1    
     9    5    6 1    
    10    5   65 1    
    11    5  131 1    
    12    6    7 1    
    13    6  132 1    
    14    6  133 1    
    15    7    8 1    
    16    8    9 1    
    17    8  134 1    
    18    8  135 1    
    19    9   10 ar   
    20    9   14 ar   
    21   10   11 ar   
    22   10  136 1    
    23   11   12 ar   
    24   11  126 1    
    25   12   13 ar   
    26   12  137 1    
    27   13   14 ar   
    28   13   15 1    
    29   14  138 1    
    30   15   16 1    
    31   15  139 1    
    32   15  140 1    
    33   16   17 1    
    34   17   18 1    
    35   17  141 1    
    36   17  142 1    
    37   18   19 1    
    38   18   67 1    
    39   18  143 1    
    40   19   20 am   BACKBONE|DICT|INTERRES
    41   19  144 1    
    42   20   21 2    
    43   20   22 1    
    44   22   23 1    
    45   22   24 1    
    46   22  145 1    
    47   23  146 1    
    48   23  147 1    
    49   23  148 1    
    50   24   25 am   BACKBONE|DICT|INTERRES
    51   24  149 1    
    52   25   26 2    
    53   25   27 1    
    54   27   28 1    
    55   27   29 1    
    56   27  150 1    
    57   28  151 1    
    58   28  152 1    
    59   28  153 1    
    60   29   30 am   BACKBONE|DICT|INTERRES
    61   29  154 1    
    62   30   31 2    
    63   30   32 1    
    64   32   33 1    
    65   32   34 1    
    66   32  155 1    
    67   33  156 1    
    68   33  157 1    
    69   33  158 1    
    70   34   35 am   BACKBONE|DICT|INTERRES
    71   34  159 1    
    72   35   36 2    
    73   35   37 1    
    74   37   38 1    
    75   37   39 1    
    76   37  160 1    
    77   38  161 1    
    78   38  162 1    
    79   38  163 1    
    80   39   40 am   BACKBONE|DICT|INTERRES
    81   39  164 1    
    82   40   41 2    
    83   40   42 1    
    84   42   43 1    
    85   42   44 1    
    86   42  165 1    
    87   43  166 1    
    88   43  167 1    
    89   43  168 1    
    90   44   45 am   BACKBONE|DICT|INTERRES
    91   44  169 1    
    92   45   46 2    
    93   45   47 1    
    94   47   48 1    
    95   47   49 1    
    96   47  170 1    
    97   48  171 1    
    98   48  172 1    
    99   48  173 1    
   100   49   50 am   BACKBONE|DICT|INTERRES
   101   49  174 1    
   102   50   51 2    
   103   50   52 1    
   104   52   53 1    
   105   52   54 1    
   106   52  175 1    
   107   53  176 1    
   108   53  177 1    
   109   53  178 1    
   110   54   55 am   BACKBONE|DICT|INTERRES
   111   54  179 1    
   112   55   56 2    
   113   55   57 1    
   114   57   58 1    
   115   57   59 1    
   116   57  180 1    
   117   58  181 1    
   118   58  182 1    
   119   58  183 1    
   120   59   60 am   BACKBONE|DICT|INTERRES
   121   59  184 1    
   122   60   61 2    
   123   60   62 1    
   124   62   63 1    
   125   62   64 1    
   126   62  185 1    
   127   63  186 1    
   128   63  187 1    
   129   63  188 1    
   130   64   65 am   BACKBONE|DICT|INTERRES
   131   64  189 1    
   132   65   66 2    
   133   67   68 2    
   134   67   69 am   BACKBONE|DICT|INTERRES
   135   69   70 1    
   136   69  190 1    
   137   70   71 1    
   138   70   72 1    
   139   70  191 1    
   140   71  192 1    
   141   71  193 1    
   142   71  194 1    
   143   72   73 2    
   144   72   74 am   BACKBONE|DICT|INTERRES
   145   74   75 1    
   146   74  195 1    
   147   75   76 1    
   148   75   77 1    
   149   75  196 1    
   150   76  197 1    
   151   76  198 1    
   152   76  199 1    
   153   77   78 2    
   154   77   79 am   BACKBONE|DICT|INTERRES
   155   79   80 1    
   156   79  200 1    
   157   80   81 1    
   158   80   82 1    
   159   80  201 1    
   160   81  202 1    
   161   81  203 1    
   162   81  204 1    
   163   82   83 2    
   164   82   84 am   BACKBONE|DICT|INTERRES
   165   84   85 1    
   166   84  205 1    
   167   85   86 1    
   168   85   87 1    
   169   85  206 1    
   170   86  207 1    
   171   86  208 1    
   172   86  209 1    
   173   87   88 2    
   174   87   89 am   BACKBONE|DICT|INTERRES
   175   89   90 1    
   176   89  210 1    
   177   90   91 1    
   178   90   92 1    
   179   90  211 1    
   180   91  212 1    
   181   91  213 1    
   182   91  214 1    
   183   92   93 2    
   184   92   94 am   BACKBONE|DICT|INTERRES
   185   94   95 1    
   186   94  215 1    
   187   95   96 1    
   188   95   97 1    
   189   95  216 1    
   190   96  217 1    
   191   96  218 1    
   192   96  219 1    
   193   97   98 2    
   194   97   99 am   BACKBONE|DICT|INTERRES
   195   99  100 1    
   196   99  220 1    
   197  100  101 1    
   198  100  102 1    
   199  100  221 1    
   200  101  222 1    
   201  101  223 1    
   202  101  224 1    
   203  102  103 2    
   204  102  104 am   BACKBONE|DICT|INTERRES
   205  104  105 1    
   206  104  225 1    
   207  105  106 1    
   208  105  107 1    
   209  105  226 1    
   210  106  227 1    
   211  106  228 1    
   212  106  229 1    
   213  107  108 2    
   214  107  109 am   BACKBONE|DICT|INTERRES
   215  109  110 1    
   216  109  230 1    
   217  110  111 1    
   218  110  112 1    
   219  110  231 1    
   220  111  232 1    
   221  111  233 1    
   222  111  234 1    
   223  112  113 2    
   224  112  114 am   BACKBONE|DICT|INTERRES
   225  114  115 1    
   226  114  235 1    
   227  115  116 1    
   228  115  117 1    
   229  115  236 1    
   230  116  237 1    
   231  116  238 1    
   232  116  239 1    
   233  117  118 2    
   234  117  119 am   BACKBONE|DICT|INTERRES
   235  119  120 1    
   236  119  240 1    
   237  120  121 1    
   238  120  124 1    
   239  120  241 1    
   240  121  122 am   BACKBONE|DICT|INTERRES
   241  121  123 2    
   242  122  242 1    
   243  122  243 1    
   244  124  125 1    
   245  124  244 1    
   246  124  245 1    
   247  125  126 1    
   248  126  246 1    
   249  126  247 1    
@<TRIPOS>SUBSTRUCTURE
     1 UNK         1 GROUP             0       ****    0 ROOT    
