@<TRIPOS>MOLECULE
3R540
247   249    1
SMALL
USER_CHARGES


@<TRIPOS>ATOM
      1 CA         -6.4747  -20.9381  -44.3428 C.3       0 UNK        -0.1800 
      2 C          -5.1348  -20.3554  -44.7680 C.2       0 UNK         0.5000 
      3 O          -4.2083  -20.3050  -43.9603 O.2       0 UNK        -0.5000 
      4 N          -5.0430  -19.8915  -46.0229 N.am      1 UNK        -0.5000 
      5 CA         -3.8641  -19.2606  -46.6419 C.3       1 UNK         0.1400 
      6 C6         -2.6220  -20.1901  -46.7399 C.3       23 UNK        -0.0398 
      7 S7         -2.9897  -21.8176  -47.4775 S.3       23 UNK        -0.2404 
      8 C8         -3.2282  -21.3909  -49.2294 C.3       23 UNK        -0.0205 
      9 C9         -1.9418  -20.9382  -49.9014 C.ar      23 UNK        -0.0193 
     10 C10        -1.7698  -19.6044  -50.2799 C.ar      23 UNK        -0.1150 
     11 C11        -0.6004  -19.1851  -50.9302 C.ar      23 UNK        -0.0193 
     12 C12         0.4153  -20.1199  -51.1540 C.ar      23 UNK        -0.1150 
     13 C13         0.2676  -21.4500  -50.7517 C.ar      23 UNK        -0.0193 
     14 C14        -0.9243  -21.8589  -50.1507 C.ar      23 UNK        -0.1150 
     15 C15         1.4054  -22.4402  -50.9385 C.3       23 UNK        -0.0205 
     16 S16         2.6177  -22.3184  -49.5838 S.3       23 UNK        -0.2404 
     17 C17         1.5981  -22.7878  -48.1422 C.3       23 UNK        -0.0398 
     18 CA          2.4503  -23.2914  -46.9534 C.3       11 UNK         0.1400 
     19 N           3.3335  -22.2468  -46.4360 N.am      11 UNK        -0.5000 
     20 C           4.6175  -22.4278  -46.1133 C.2       10 UNK         0.5000 
     21 O           5.2025  -23.5086  -46.2036 O.2       10 UNK        -0.5000 
     22 CA          5.3938  -21.1940  -45.6258 C.3       10 UNK         0.1400 
     23 CB          5.8360  -20.3371  -46.8224 C.3       10 UNK        -0.1800 
     24 N           4.6487  -20.3635  -44.6790 N.am      10 UNK        -0.5000 
     25 C           4.4155  -20.6954  -43.4013 C.2       9 UNK         0.5000 
     26 O           4.7333  -21.7782  -42.9074 O.2       9 UNK        -0.5000 
     27 CA          3.7542  -19.6266  -42.5122 C.3       9 UNK         0.1400 
     28 CB          4.7535  -18.5131  -42.1596 C.3       9 UNK        -0.1800 
     29 N           2.5783  -19.0385  -43.1459 N.am      9 UNK        -0.5000 
     30 C           1.3543  -19.5827  -43.1250 C.2       8 UNK         0.5000 
     31 O           1.0684  -20.5938  -42.4833 O.2       8 UNK        -0.5000 
     32 CA          0.2576  -18.8775  -43.9500 C.3       8 UNK         0.1400 
     33 CB         -0.5512  -17.9164  -43.0657 C.3       8 UNK        -0.1800 
     34 N           0.7722  -18.1396  -45.1040 N.am      8 UNK        -0.5000 
     35 C           1.4096  -18.6943  -46.1439 C.2       7 UNK         0.5000 
     36 O           1.6253  -19.8992  -46.2617 O.2       7 UNK        -0.5000 
     37 CA          1.9588  -17.7242  -47.1991 C.3       7 UNK         0.1400 
     38 CB          0.8356  -17.2364  -48.1210 C.3       7 UNK        -0.1800 
     39 N           2.6411  -16.5798  -46.5927 N.am      7 UNK        -0.5000 
     40 C           3.7856  -16.6641  -45.8989 C.2       6 UNK         0.5000 
     41 O           4.3916  -17.7161  -45.7082 O.2       6 UNK        -0.5000 
     42 CA          4.3221  -15.3649  -45.2739 C.3       6 UNK         0.1400 
     43 CB          5.1181  -14.5545  -46.3074 C.3       6 UNK        -0.1800 
     44 N           3.2556  -14.5334  -44.7203 N.am      6 UNK        -0.5000 
     45 C           2.4973  -14.8695  -43.6667 C.2       5 UNK         0.5000 
     46 O           2.6570  -15.8946  -43.0049 O.2       5 UNK        -0.5000 
     47 CA          1.3342  -13.9171  -43.3331 C.3       5 UNK         0.1400 
     48 CB          1.7979  -12.8083  -42.3769 C.3       5 UNK        -0.1800 
     49 N           0.7386  -13.3130  -44.5298 N.am      5 UNK        -0.5000 
     50 C           0.0896  -14.0079  -45.4723 C.2       4 UNK         0.5000 
     51 O          -0.0795  -15.2281  -45.4233 O.2       4 UNK        -0.5000 
     52 CA         -0.4135  -13.2222  -46.6883 C.3       4 UNK         0.1400 
     53 CB          0.5859  -13.2956  -47.8548 C.3       4 UNK        -0.1800 
     54 N          -1.6954  -13.7841  -47.0894 N.am      4 UNK        -0.5000 
     55 C          -2.7098  -13.0838  -47.6103 C.2       3 UNK         0.5000 
     56 O          -2.6120  -11.9117  -47.9758 O.2       3 UNK        -0.5000 
     57 CA         -4.0806  -13.7875  -47.6983 C.3       3 UNK         0.1400 
     58 CB         -4.3318  -14.3302  -49.1122 C.3       3 UNK        -0.1800 
     59 N          -4.2502  -14.8777  -46.7341 N.am      3 UNK        -0.5000 
     60 C          -4.2411  -14.7491  -45.3996 C.2       2 UNK         0.5000 
     61 O          -4.1459  -13.6630  -44.8265 O.2       2 UNK        -0.5000 
     62 CA         -4.3553  -16.0362  -44.5556 C.3       2 UNK         0.1400 
     63 CB         -5.5396  -15.9524  -43.5783 C.3       2 UNK        -0.1800 
     64 N          -4.4880  -17.2727  -45.3307 N.am      2 UNK        -0.5000 
     65 C          -3.5155  -17.8880  -46.0186 C.2       1 UNK         0.5000 
     66 O          -2.4015  -17.3971  -46.1921 O.2       1 UNK        -0.5000 
     67 C           1.5440  -23.7944  -45.8174 C.2       11 UNK         0.5000 
     68 O           1.2582  -23.0550  -44.8728 O.2       11 UNK        -0.5000 
     69 N           1.0892  -25.0479  -45.9371 N.am      12 UNK        -0.5000 
     70 CA          0.1149  -25.6502  -45.0312 C.3       12 UNK         0.1400 
     71 CB          0.0627  -27.1664  -45.2763 C.3       12 UNK        -0.1800 
     72 C          -1.2741  -25.0231  -45.2359 C.2       12 UNK         0.5000 
     73 O          -1.7447  -24.9501  -46.3735 O.2       12 UNK        -0.5000 
     74 N          -1.9214  -24.6319  -44.1301 N.am      13 UNK        -0.5000 
     75 CA         -3.2430  -23.9937  -44.1020 C.3       13 UNK         0.1400 
     76 CB         -3.5604  -23.5653  -42.6617 C.3       13 UNK        -0.1800 
     77 C          -4.3806  -24.8666  -44.6693 C.2       13 UNK         0.5000 
     78 O          -5.4210  -24.3311  -45.0471 O.2       13 UNK        -0.5000 
     79 N          -4.1509  -26.1848  -44.7573 N.am      14 UNK        -0.5000 
     80 CA         -5.0333  -27.1769  -45.3734 C.3       14 UNK         0.1400 
     81 CB         -4.4318  -28.5735  -45.1536 C.3       14 UNK        -0.1800 
     82 C          -5.3075  -26.9390  -46.8739 C.2       14 UNK         0.5000 
     83 O          -6.3281  -27.4138  -47.3738 O.2       14 UNK        -0.5000 
     84 N          -4.4215  -26.2011  -47.5631 N.am      15 UNK        -0.5000 
     85 CA         -4.6306  -25.7415  -48.9400 C.3       15 UNK         0.1400 
     86 CB         -3.3044  -25.2110  -49.5041 C.3       15 UNK        -0.1800 
     87 C          -5.7535  -24.6866  -49.0535 C.2       15 UNK         0.5000 
     88 O          -6.4273  -24.6310  -50.0829 O.2       15 UNK        -0.5000 
     89 N          -5.9601  -23.9207  -47.9720 N.am      16 UNK        -0.5000 
     90 CA         -7.0314  -22.9630  -47.6936 C.3       16 UNK         0.1400 
     91 CB         -8.3914  -23.6781  -47.5814 C.3       16 UNK        -0.1800 
     92 C          -7.0994  -21.7514  -48.6400 C.2       16 UNK         0.5000 
     93 O          -6.8735  -20.6245  -48.1939 O.2       16 UNK        -0.5000 
     94 N          -7.4495  -21.9979  -49.9066 N.am      17 UNK        -0.5000 
     95 CA         -7.6427  -20.9896  -50.9453 C.3       17 UNK         0.1400 
     96 CB         -8.3814  -21.6285  -52.1309 C.3       17 UNK        -0.1800 
     97 C          -6.3038  -20.3892  -51.3998 C.2       17 UNK         0.5000 
     98 O          -5.3384  -21.1311  -51.5896 O.2       17 UNK        -0.5000 
     99 N          -6.2768  -19.0622  -51.5723 N.am      18 UNK        -0.5000 
    100 CA        -5.0959  -18.2986  -51.9689 C.3       18 UNK         0.1400 
    101 CB        -5.4051  -16.7970  -51.8719 C.3       18 UNK        -0.1800 
    102 C         -4.5991  -18.6703  -53.3775 C.2       18 UNK         0.5000 
    103 O         -5.3765  -18.6136  -54.3338 O.2       18 UNK        -0.5000 
    104 N         -3.3141  -19.0273  -53.4744 N.am      19 UNK        -0.5000 
    105 CA        -2.6090  -19.2504  -54.7345 C.3       19 UNK         0.1400 
    106 CB        -1.4050  -20.1695  -54.4675 C.3       19 UNK        -0.1800 
    107 C         -2.1510  -17.9106  -55.3394 C.2       19 UNK         0.5000 
    108 O         -2.2099  -16.8753  -54.6707 O.2       19 UNK        -0.5000 
    109 N         -1.6417  -17.9509  -56.5776 N.am      20 UNK        -0.5000 
    110 CA        -1.1458  -16.7892  -57.3316 C.3       20 UNK         0.1400 
    111 CB        -0.7067  -17.2565  -58.7279 C.3       20 UNK        -0.1800 
    112 C         -0.0070  -16.0010  -56.6448 C.2       20 UNK         0.5000 
    113 O          0.2061  -14.8332  -56.9720 O.2       20 UNK        -0.5000 
    114 N          0.6846  -16.6428  -55.6940 N.am      21 UNK        -0.5000 
    115 CA         1.7062  -16.0460  -54.8362 C.3       21 UNK         0.1400 
    116 CB         2.5121  -17.1788  -54.1790 C.3       21 UNK        -0.1800 
    117 C          1.1508  -15.0846  -53.7616 C.2       21 UNK         0.5000 
    118 O          1.9401  -14.3352  -53.1844 O.2       21 UNK        -0.5000 
    119 N         -0.1621  -15.1175  -53.4892 N.am      22 UNK        -0.5000 
    120 CA        -0.8095  -14.2957  -52.4518 C.3       22 UNK         0.1400 
    121 C         -2.2389  -13.7946  -52.8013 C.2       22 UNK         0.5000 
    122 N         -2.9468  -14.3809  -53.7572 N.am      22 UNK        -0.7600 
    123 O         -2.7050  -12.8237  -52.2121 O.2       22 UNK        -0.5000 
    124 C124       -0.7307  -14.9509  -51.0475 C.3       23 UNK        -0.0398 
    125 S125       -1.6349  -16.5322  -50.8890 S.3       23 UNK        -0.2404 
    126 C126       -0.3694  -17.7457  -51.3977 C.3       23 UNK        -0.0205 
    127 H127       -6.8159  -20.4598  -43.4248 H         1 UNK         0.0600 
    128 H128       -7.2411  -20.7901  -45.1038 H         1 UNK         0.0600 
    129 H129       -6.3794  -22.0064  -44.1536 H         1 UNK         0.0600 
    130 H130       -5.8319  -20.0083  -46.6535 H         1 UNK         0.3000 
    131 H131       -4.1715  -19.0241  -47.6606 H         1 UNK         0.0600 
    132 H132       -1.8253  -19.7185  -47.3178 H         1 UNK         0.0800 
    133 H133       -2.2035  -20.3678  -45.7489 H         1 UNK         0.0800 
    134 H134       -3.6147  -22.2633  -49.7564 H         1 UNK         0.0800 
    135 H135       -4.0024  -20.6289  -49.3142 H         1 UNK         0.0800 
    136 H136       -2.5525  -18.9009  -50.0500 H         1 UNK         0.1150 
    137 H137        1.3357  -19.8084  -51.6280 H         1 UNK         0.1150 
    138 H138       -1.0516  -22.8878  -49.8454 H         1 UNK         0.1150 
    139 H139        1.0230  -23.4604  -50.9984 H         1 UNK         0.0800 
    140 H140        1.9099  -22.2466  -51.8862 H         1 UNK         0.0800 
    141 H141        0.9003  -23.5651  -48.4584 H         1 UNK         0.0800 
    142 H142        0.9886  -21.9306  -47.8502 H         1 UNK         0.0800 
    143 H143        3.0423  -24.1394  -47.3046 H         1 UNK         0.0600 
    144 H144        2.8904  -21.3458  -46.2741 H         1 UNK         0.3000 
    145 H145        6.2954  -21.5500  -45.1226 H         1 UNK         0.0600 
    146 H146        6.4642  -19.5059  -46.5018 H         1 UNK         0.0600 
    147 H147        6.4148  -20.9270  -47.5342 H         1 UNK         0.0600 
    148 H148        4.9802  -19.9235  -47.3578 H         1 UNK         0.0600 
    149 H149        4.3877  -19.4369  -45.0075 H         1 UNK         0.3000 
    150 H150        3.4532  -20.1068  -41.5786 H         1 UNK         0.0600 
    151 H151        5.6398  -18.9232  -41.6741 H         1 UNK         0.0600 
    152 H152        4.3103  -17.7915  -41.4730 H         1 UNK         0.0600 
    153 H153        5.0852  -17.9687  -43.0441 H         1 UNK         0.0600 
    154 H154        2.7143  -18.1755  -43.6549 H         1 UNK         0.3000 
    155 H155       -0.4164  -19.6498  -44.3243 H         1 UNK         0.0600 
    156 H156       -1.3664  -17.4583  -43.6250 H         1 UNK         0.0600 
    157 H157        0.0735  -17.1152  -42.6695 H         1 UNK         0.0600 
    158 H158       -0.9928  -18.4422  -42.2184 H         1 UNK         0.0600 
    159 H159        0.5926  -17.1404  -45.1229 H         1 UNK         0.3000 
    160 H160        2.6842  -18.2685  -47.8079 H         1 UNK         0.0600 
    161 H161        0.0781  -16.6649  -47.5855 H         1 UNK         0.0600 
    162 H162        0.3265  -18.0840  -48.5777 H         1 UNK         0.0600 
    163 H163        1.2286  -16.6119  -48.9218 H         1 UNK         0.0600 
    164 H164        2.1714  -15.6896  -46.6495 H         1 UNK         0.3000 
    165 H165        4.9969  -15.6394  -44.4601 H         1 UNK         0.0600 
    166 H166        4.4897  -14.2279  -47.1370 H         1 UNK         0.0600 
    167 H167        5.5644  -13.6688  -45.8549 H         1 UNK         0.0600 
    168 H168        5.9314  -15.1491  -46.7258 H         1 UNK         0.0600 
    169 H169        3.0571  -13.6668  -45.1971 H         1 UNK         0.3000 
    170 H170        0.5620  -14.5027  -42.8293 H         1 UNK         0.0600 
    171 H171        2.2285  -13.2321  -41.4686 H         1 UNK         0.0600 
    172 H172        2.5566  -12.1717  -42.8338 H         1 UNK         0.0600 
    173 H173        0.9643  -12.1743  -42.0744 H         1 UNK         0.0600 
    174 H174        0.8420  -12.3135  -44.6318 H         1 UNK         0.3000 
    175 H175       -0.5461  -12.1793  -46.3920 H         1 UNK         0.0600 
    176 H176        0.2457  -12.6978  -48.7005 H         1 UNK         0.0600 
    177 H177        1.5636  -12.9128  -47.5601 H         1 UNK         0.0600 
    178 H178        0.7226  -14.3179  -48.2048 H         1 UNK         0.0600 
    179 H179       -1.8518  -14.7376  -46.7826 H         1 UNK         0.3000 
    180 H180       -4.8414  -13.0342  -47.4841 H         1 UNK         0.0600 
    181 H181       -3.6645  -15.1585  -49.3461 H         1 UNK         0.0600 
    182 H182       -4.1748  -13.5578  -49.8662 H         1 UNK         0.0600 
    183 H183       -5.3569  -14.6841  -49.2200 H         1 UNK         0.0600 
    184 H184       -4.3180  -15.8098  -47.1128 H         1 UNK         0.3000 
    185 H185       -3.4375  -16.1057  -43.9685 H         1 UNK         0.0600 
    186 H186       -5.5817  -16.8308  -42.9337 H         1 UNK         0.0600 
    187 H187       -5.4544  -15.0811  -42.9275 H         1 UNK         0.0600 
    188 H188       -6.4908  -15.8763  -44.1064 H         1 UNK         0.0600 
    189 H189       -5.3784  -17.7439  -45.2654 H         1 UNK         0.3000 
    190 H190        1.3373  -25.5917  -46.7505 H         1 UNK         0.3000 
    191 H191        0.4431  -25.4786  -44.0036 H         1 UNK         0.0600 
    192 H192        1.0369  -27.6267  -45.1108 H         1 UNK         0.0600 
    193 H193       -0.6427  -27.6477  -44.5977 H         1 UNK         0.0600 
    194 H194       -0.2508  -27.4006  -46.2947 H         1 UNK         0.0600 
    195 H195       -1.4614  -24.7347  -43.2370 H         1 UNK         0.3000 
    196 H196       -3.1892  -23.0949  -44.7192 H         1 UNK         0.0600 
    197 H197       -4.5267  -23.0620  -42.6077 H         1 UNK         0.0600 
    198 H198       -2.8139  -22.8651  -42.2859 H         1 UNK         0.0600 
    199 H199       -3.5956  -24.4197  -41.9849 H         1 UNK         0.0600 
    200 H200       -3.2639  -26.5257  -44.4190 H         1 UNK         0.3000 
    201 H201       -5.9940  -27.1294  -44.8569 H         1 UNK         0.0600 
    202 H202       -4.3161  -28.7917  -44.0918 H         1 UNK         0.0600 
    203 H203       -3.4529  -28.6677  -45.6257 H         1 UNK         0.0600 
    204 H204       -5.0751  -29.3476  -45.5742 H         1 UNK         0.0600 
    205 H205       -3.5948  -25.8532  -47.0895 H         1 UNK         0.3000 
    206 H206       -4.9316  -26.6000  -49.5440 H         1 UNK         0.0600 
    207 H207       -2.8886  -24.4229  -48.8778 H         1 UNK         0.0600 
    208 H208       -2.5610  -26.0055  -49.5691 H         1 UNK         0.0600 
    209 H209       -3.4359  -24.8038  -50.5074 H         1 UNK         0.0600 
    210 H210       -5.3502  -24.0802  -47.1795 H         1 UNK         0.3000 
    211 H211       -6.8016  -22.5654  -46.7056 H         1 UNK         0.0600 
    212 H212       -8.6795  -24.1642  -48.5138 H         1 UNK         0.0600 
    213 H213       -9.1824  -22.9740  -47.3206 H         1 UNK         0.0600 
    214 H214       -8.3663  -24.4411  -46.8031 H         1 UNK         0.0600 
    215 H215       -7.4676  -22.9695  -50.1993 H         1 UNK         0.3000 
    216 H216       -8.2697  -20.1951  -50.5350 H         1 UNK         0.0600 
    217 H217       -9.3528  -22.0190  -51.8268 H         1 UNK         0.0600 
    218 H218       -7.8096  -22.4507  -52.5635 H         1 UNK         0.0600 
    219 H219       -8.5568  -20.8981  -52.9218 H         1 UNK         0.0600 
    220 H220       -7.1241  -18.5318  -51.4326 H         1 UNK         0.3000 
    221 H221       -4.3118  -18.5215  -51.2481 H         1 UNK         0.0600 
    222 H222       -6.2025  -16.5036  -52.5555 H         1 UNK         0.0600 
    223 H223       -5.7077  -16.5212  -50.8621 H         1 UNK         0.0600 
    224 H224       -4.5248  -16.2027  -52.1198 H         1 UNK         0.0600 
    225 H225       -2.7421  -19.0233  -52.6428 H         1 UNK         0.3000 
    226 H226       -3.2787  -19.7431  -55.4424 H         1 UNK         0.0600 
    227 H227       -1.7092  -21.0792  -53.9489 H         1 UNK         0.0600 
    228 H228       -0.9282  -20.4752  -55.3993 H         1 UNK         0.0600 
    229 H229       -0.6451  -19.6795  -53.8599 H         1 UNK         0.0600 
    230 H230       -1.6070  -18.8378  -57.0595 H         1 UNK         0.3000 
    231 H231       -1.9825  -16.0979  -57.4504 H         1 UNK         0.0600 
    232 H232       -0.3611  -16.4165  -59.3321 H         1 UNK         0.0600 
    233 H233       -1.5319  -17.7225  -59.2667 H         1 UNK         0.0600 
    234 H234        0.1094  -17.9779  -58.6714 H         1 UNK         0.0600 
    235 H235        0.4423  -17.6034  -55.5053 H         1 UNK         0.3000 
    236 H236        2.3850  -15.4675  -55.4663 H         1 UNK         0.0600 
    237 H237        3.3042  -16.7800  -53.5438 H         1 UNK         0.0600 
    238 H238        1.8832  -17.8158  -53.5569 H         1 UNK         0.0600 
    239 H239        2.9887  -17.8096  -54.9296 H         1 UNK         0.0600 
    240 H240       -0.7682  -15.7517  -53.9980 H         1 UNK         0.3000 
    241 H241       -0.2394  -13.3669  -52.3842 H         1 UNK         0.0600 
    242 H242       -2.6419  -15.2535  -54.1840 H         1 UNK         0.3800 
    243 H243       -3.8599  -14.0184  -53.9764 H         1 UNK         0.3800 
    244 H244        0.3121  -15.1022  -50.7679 H         1 UNK         0.0800 
    245 H245       -1.1302  -14.2670  -50.2969 H         1 UNK         0.0800 
    246 H246       -0.3212  -17.7403  -52.4858 H         1 UNK         0.0800 
    247 H247        0.6087  -17.4177  -51.0470 H         1 UNK         0.0800 
@<TRIPOS>BOND
     1    1    2 1    
     2    1  127 1    
     3    1  128 1    
     4    1  129 1    
     5    2    3 2    
     6    2    4 am   BACKBONE|DICT|INTERRES
     7    4    5 1    
     8    4  130 1    
     9    5    6 1    
    10    5   65 1    
    11    5  131 1    
    12    6    7 1    
    13    6  132 1    
    14    6  133 1    
    15    7    8 1    
    16    8    9 1    
    17    8  134 1    
    18    8  135 1    
    19    9   10 ar   
    20    9   14 ar   
    21   10   11 ar   
    22   10  136 1    
    23   11   12 ar   
    24   11  126 1    
    25   12   13 ar   
    26   12  137 1    
    27   13   14 ar   
    28   13   15 1    
    29   14  138 1    
    30   15   16 1    
    31   15  139 1    
    32   15  140 1    
    33   16   17 1    
    34   17   18 1    
    35   17  141 1    
    36   17  142 1    
    37   18   19 1    
    38   18   67 1    
    39   18  143 1    
    40   19   20 am   BACKBONE|DICT|INTERRES
    41   19  144 1    
    42   20   21 2    
    43   20   22 1    
    44   22   23 1    
    45   22   24 1    
    46   22  145 1    
    47   23  146 1    
    48   23  147 1    
    49   23  148 1    
    50   24   25 am   BACKBONE|DICT|INTERRES
    51   24  149 1    
    52   25   26 2    
    53   25   27 1    
    54   27   28 1    
    55   27   29 1    
    56   27  150 1    
    57   28  151 1    
    58   28  152 1    
    59   28  153 1    
    60   29   30 am   BACKBONE|DICT|INTERRES
    61   29  154 1    
    62   30   31 2    
    63   30   32 1    
    64   32   33 1    
    65   32   34 1    
    66   32  155 1    
    67   33  156 1    
    68   33  157 1    
    69   33  158 1    
    70   34   35 am   BACKBONE|DICT|INTERRES
    71   34  159 1    
    72   35   36 2    
    73   35   37 1    
    74   37   38 1    
    75   37   39 1    
    76   37  160 1    
    77   38  161 1    
    78   38  162 1    
    79   38  163 1    
    80   39   40 am   BACKBONE|DICT|INTERRES
    81   39  164 1    
    82   40   41 2    
    83   40   42 1    
    84   42   43 1    
    85   42   44 1    
    86   42  165 1    
    87   43  166 1    
    88   43  167 1    
    89   43  168 1    
    90   44   45 am   BACKBONE|DICT|INTERRES
    91   44  169 1    
    92   45   46 2    
    93   45   47 1    
    94   47   48 1    
    95   47   49 1    
    96   47  170 1    
    97   48  171 1    
    98   48  172 1    
    99   48  173 1    
   100   49   50 am   BACKBONE|DICT|INTERRES
   101   49  174 1    
   102   50   51 2    
   103   50   52 1    
   104   52   53 1    
   105   52   54 1    
   106   52  175 1    
   107   53  176 1    
   108   53  177 1    
   109   53  178 1    
   110   54   55 am   BACKBONE|DICT|INTERRES
   111   54  179 1    
   112   55   56 2    
   113   55   57 1    
   114   57   58 1    
   115   57   59 1    
   116   57  180 1    
   117   58  181 1    
   118   58  182 1    
   119   58  183 1    
   120   59   60 am   BACKBONE|DICT|INTERRES
   121   59  184 1    
   122   60   61 2    
   123   60   62 1    
   124   62   63 1    
   125   62   64 1    
   126   62  185 1    
   127   63  186 1    
   128   63  187 1    
   129   63  188 1    
   130   64   65 am   BACKBONE|DICT|INTERRES
   131   64  189 1    
   132   65   66 2    
   133   67   68 2    
   134   67   69 am   BACKBONE|DICT|INTERRES
   135   69   70 1    
   136   69  190 1    
   137   70   71 1    
   138   70   72 1    
   139   70  191 1    
   140   71  192 1    
   141   71  193 1    
   142   71  194 1    
   143   72   73 2    
   144   72   74 am   BACKBONE|DICT|INTERRES
   145   74   75 1    
   146   74  195 1    
   147   75   76 1    
   148   75   77 1    
   149   75  196 1    
   150   76  197 1    
   151   76  198 1    
   152   76  199 1    
   153   77   78 2    
   154   77   79 am   BACKBONE|DICT|INTERRES
   155   79   80 1    
   156   79  200 1    
   157   80   81 1    
   158   80   82 1    
   159   80  201 1    
   160   81  202 1    
   161   81  203 1    
   162   81  204 1    
   163   82   83 2    
   164   82   84 am   BACKBONE|DICT|INTERRES
   165   84   85 1    
   166   84  205 1    
   167   85   86 1    
   168   85   87 1    
   169   85  206 1    
   170   86  207 1    
   171   86  208 1    
   172   86  209 1    
   173   87   88 2    
   174   87   89 am   BACKBONE|DICT|INTERRES
   175   89   90 1    
   176   89  210 1    
   177   90   91 1    
   178   90   92 1    
   179   90  211 1    
   180   91  212 1    
   181   91  213 1    
   182   91  214 1    
   183   92   93 2    
   184   92   94 am   BACKBONE|DICT|INTERRES
   185   94   95 1    
   186   94  215 1    
   187   95   96 1    
   188   95   97 1    
   189   95  216 1    
   190   96  217 1    
   191   96  218 1    
   192   96  219 1    
   193   97   98 2    
   194   97   99 am   BACKBONE|DICT|INTERRES
   195   99  100 1    
   196   99  220 1    
   197  100  101 1    
   198  100  102 1    
   199  100  221 1    
   200  101  222 1    
   201  101  223 1    
   202  101  224 1    
   203  102  103 2    
   204  102  104 am   BACKBONE|DICT|INTERRES
   205  104  105 1    
   206  104  225 1    
   207  105  106 1    
   208  105  107 1    
   209  105  226 1    
   210  106  227 1    
   211  106  228 1    
   212  106  229 1    
   213  107  108 2    
   214  107  109 am   BACKBONE|DICT|INTERRES
   215  109  110 1    
   216  109  230 1    
   217  110  111 1    
   218  110  112 1    
   219  110  231 1    
   220  111  232 1    
   221  111  233 1    
   222  111  234 1    
   223  112  113 2    
   224  112  114 am   BACKBONE|DICT|INTERRES
   225  114  115 1    
   226  114  235 1    
   227  115  116 1    
   228  115  117 1    
   229  115  236 1    
   230  116  237 1    
   231  116  238 1    
   232  116  239 1    
   233  117  118 2    
   234  117  119 am   BACKBONE|DICT|INTERRES
   235  119  120 1    
   236  119  240 1    
   237  120  121 1    
   238  120  124 1    
   239  120  241 1    
   240  121  122 am   BACKBONE|DICT|INTERRES
   241  121  123 2    
   242  122  242 1    
   243  122  243 1    
   244  124  125 1    
   245  124  244 1    
   246  124  245 1    
   247  125  126 1    
   248  126  246 1    
   249  126  247 1    
@<TRIPOS>SUBSTRUCTURE
     1 UNK         1 GROUP             0       ****    0 ROOT    
