@<TRIPOS>MOLECULE
3R540
247   249    1
SMALL
USER_CHARGES


@<TRIPOS>ATOM
      1 CA         -3.5035  -10.9035  -41.4279 C.3       0 UNK        -0.1800 
      2 C          -3.0003  -11.6445  -42.6578 C.2       0 UNK         0.5000 
      3 O          -1.7941  -11.8427  -42.7965 O.2       0 UNK        -0.5000 
      4 N          -3.9218  -12.0658  -43.5373 N.am      1 UNK        -0.5000 
      5 CA         -3.6726  -12.7819  -44.7987 C.3       1 UNK         0.1400 
      6 C6         -5.0116  -13.0301  -45.5547 C.3       23 UNK        -0.0398 
      7 S7         -4.9890  -14.2165  -46.9454 S.3       23 UNK        -0.2404 
      8 C8         -4.4276  -13.1823  -48.3330 C.3       23 UNK        -0.0205 
      9 C9         -3.4289  -13.9417  -49.1927 C.ar      23 UNK        -0.0193 
     10 C10        -3.7890  -14.4638  -50.4393 C.ar      23 UNK        -0.1150 
     11 C11        -2.8515  -15.1612  -51.2104 C.ar      23 UNK        -0.0193 
     12 C12        -1.5539  -15.3460  -50.7200 C.ar      23 UNK        -0.1150 
     13 C13        -1.1906  -14.8429  -49.4685 C.ar      23 UNK        -0.0193 
     14 C14        -2.1283  -14.1272  -48.7235 C.ar      23 UNK        -0.1150 
     15 C15         0.2101  -15.0610  -48.9144 C.3       23 UNK        -0.0205 
     16 S16         0.4950  -16.7709  -48.3521 S.3       23 UNK        -0.2404 
     17 C17        -0.8527  -17.0527  -47.1506 C.3       23 UNK        -0.0398 
     18 CA         -1.8592  -18.1005  -47.6758 C.3       11 UNK         0.1400 
     19 N          -1.2344  -19.4165  -47.8588 N.am      11 UNK        -0.5000 
     20 C          -1.8243  -20.4571  -48.4578 C.2       10 UNK         0.5000 
     21 O          -2.9583  -20.4112  -48.9268 O.2       10 UNK        -0.5000 
     22 CA         -1.0639  -21.7924  -48.4625 C.3       10 UNK         0.1400 
     23 CB         -0.0041  -21.8421  -49.5703 C.3       10 UNK        -0.1800 
     24 N          -0.4390  -22.0559  -47.1693 N.am      10 UNK        -0.5000 
     25 C          -1.1167  -22.4092  -46.0697 C.2       9 UNK         0.5000 
     26 O          -2.3339  -22.5855  -46.0455 O.2       9 UNK        -0.5000 
     27 CA         -0.3040  -22.5505  -44.7704 C.3       9 UNK         0.1400 
     28 CB          0.3530  -23.9364  -44.6927 C.3       9 UNK        -0.1800 
     29 N           0.7195  -21.5133  -44.6207 N.am      9 UNK        -0.5000 
     30 C           0.4503  -20.2076  -44.4797 C.2       8 UNK         0.5000 
     31 O          -0.6880  -19.7448  -44.4646 O.2       8 UNK        -0.5000 
     32 CA          1.6519  -19.2528  -44.3882 C.3       8 UNK         0.1400 
     33 CB          2.2155  -19.2244  -42.9597 C.3       8 UNK        -0.1800 
     34 N           2.7400  -19.5442  -45.3223 N.am      8 UNK        -0.5000 
     35 C           2.6428  -19.6826  -46.6509 C.2       7 UNK         0.5000 
     36 O           1.5699  -19.7696  -47.2483 O.2       7 UNK        -0.5000 
     37 CA          3.9737  -19.7010  -47.4360 C.3       7 UNK         0.1400 
     38 CB          3.7568  -19.6582  -48.9600 C.3       7 UNK        -0.1800 
     39 N           4.8431  -18.5828  -47.0561 N.am      7 UNK        -0.5000 
     40 C           5.5934  -18.5118  -45.9475 C.2       6 UNK         0.5000 
     41 O           5.6782  -19.4283  -45.1291 O.2       6 UNK        -0.5000 
     42 CA          6.3358  -17.1879  -45.6798 C.3       6 UNK         0.1400 
     43 CB          7.7904  -17.2819  -46.1650 C.3       6 UNK        -0.1800 
     44 N           5.7020  -16.0162  -46.2922 N.am      6 UNK        -0.5000 
     45 C           4.5079  -15.5156  -45.9469 C.2       5 UNK         0.5000 
     46 O           3.7834  -15.9972  -45.0713 O.2       5 UNK        -0.5000 
     47 CA          4.0528  -14.2734  -46.7263 C.3       5 UNK         0.1400 
     48 CB          3.7633  -14.6102  -48.2002 C.3       5 UNK        -0.1800 
     49 N           2.8612  -13.7175  -46.0925 N.am      5 UNK        -0.5000 
     50 C           2.5054  -12.4284  -46.1132 C.2       4 UNK         0.5000 
     51 O           3.1130  -11.5690  -46.7537 O.2       4 UNK        -0.5000 
     52 CA          1.2777  -12.0079  -45.2791 C.3       4 UNK         0.1400 
     53 CB          0.0882  -11.6694  -46.1884 C.3       4 UNK        -0.1800 
     54 N           0.8543  -12.9933  -44.2789 N.am      4 UNK        -0.5000 
     55 C           1.5084  -13.2287  -43.1311 C.2       3 UNK         0.5000 
     56 O           2.5873  -12.7015  -42.8552 O.2       3 UNK        -0.5000 
     57 CA          0.8622  -14.1856  -42.1090 C.3       3 UNK         0.1400 
     58 CB          0.8015  -13.5438  -40.7118 C.3       3 UNK        -0.1800 
     59 N          -0.4964  -14.5710  -42.4906 N.am      3 UNK        -0.5000 
     60 C          -0.8913  -15.8160  -42.7873 C.2       2 UNK         0.5000 
     61 O          -0.1365  -16.7864  -42.7757 O.2       2 UNK        -0.5000 
     62 CA         -2.3774  -16.0336  -43.1510 C.3       2 UNK         0.1400 
     63 CB         -3.1210  -16.6884  -41.9766 C.3       2 UNK        -0.1800 
     64 N          -3.1071  -14.8241  -43.5431 N.am      2 UNK        -0.5000 
     65 C          -2.8080  -14.0492  -44.5943 C.2       1 UNK         0.5000 
     66 O          -1.8392  -14.2504  -45.3246 O.2       1 UNK        -0.5000 
     67 C          -3.1295  -18.1752  -46.7952 C.2       11 UNK         0.5000 
     68 O          -4.1206  -17.5155  -47.1013 O.2       11 UNK        -0.5000 
     69 N          -3.1114  -19.0307  -45.7626 N.am      12 UNK        -0.5000 
     70 CA         -4.2692  -19.3717  -44.9304 C.3       12 UNK         0.1400 
     71 CB         -3.7669  -20.0300  -43.6355 C.3       12 UNK        -0.1800 
     72 C          -5.2882  -20.3028  -45.6246 C.2       12 UNK         0.5000 
     73 O          -6.3888  -20.4765  -45.0998 O.2       12 UNK        -0.5000 
     74 N          -4.9028  -20.9004  -46.7620 N.am      13 UNK        -0.5000 
     75 CA         -5.6329  -21.8919  -47.5584 C.3       13 UNK         0.1400 
     76 CB         -6.9000  -21.2736  -48.1836 C.3       13 UNK        -0.1800 
     77 C          -5.9074  -23.2089  -46.8018 C.2       13 UNK         0.5000 
     78 O          -6.9216  -23.8655  -47.0491 O.2       13 UNK        -0.5000 
     79 N          -4.9886  -23.5881  -45.9041 N.am      14 UNK        -0.5000 
     80 CA         -5.0291  -24.8340  -45.1440 C.3       14 UNK         0.1400 
     81 CB         -3.9873  -24.7725  -44.0167 C.3       14 UNK        -0.1800 
     82 C          -4.7646  -26.0356  -46.0654 C.2       14 UNK         0.5000 
     83 O          -3.8724  -25.9656  -46.9130 O.2       14 UNK        -0.5000 
     84 N          -5.5610  -27.1020  -45.9027 N.am      15 UNK        -0.5000 
     85 CA         -5.5020  -28.3699  -46.6485 C.3       15 UNK         0.1400 
     86 CB         -4.2351  -29.1564  -46.2511 C.3       15 UNK        -0.1800 
     87 C          -5.6370  -28.2190  -48.1834 C.2       15 UNK         0.5000 
     88 O          -5.1889  -29.0954  -48.9244 O.2       15 UNK        -0.5000 
     89 N          -6.2350  -27.1020  -48.6289 N.am      16 UNK        -0.5000 
     90 CA         -6.3616  -26.6518  -50.0194 C.3       16 UNK         0.1400 
     91 CB         -7.2830  -27.5931  -50.8232 C.3       16 UNK        -0.1800 
     92 C          -5.0030  -26.3999  -50.7157 C.2       16 UNK         0.5000 
     93 O          -4.9143  -26.5010  -51.9402 O.2       16 UNK        -0.5000 
     94 N          -3.9686  -26.0446  -49.9370 N.am      17 UNK        -0.5000 
     95 CA         -2.6041  -25.7868  -50.4134 C.3       17 UNK         0.1400 
     96 CB         -1.6367  -25.8858  -49.2220 C.3       17 UNK        -0.1800 
     97 C          -2.4257  -24.4337  -51.1336 C.2       17 UNK         0.5000 
     98 O          -1.3160  -24.1363  -51.5764 O.2       17 UNK        -0.5000 
     99 N          -3.4987  -23.6329  -51.2251 N.am      18 UNK        -0.5000 
    100 CA        -3.5312  -22.2521  -51.7172 C.3       18 UNK         0.1400 
    101 CB        -4.9816  -21.7491  -51.7364 C.3       18 UNK        -0.1800 
    102 C         -2.8577  -22.0032  -53.0741 C.2       18 UNK         0.5000 
    103 O         -2.2570  -20.9456  -53.2547 O.2       18 UNK        -0.5000 
    104 N         -2.9071  -22.9910  -53.9770 N.am      19 UNK        -0.5000 
    105 CA        -2.2592  -22.9650  -55.2911 C.3       19 UNK         0.1400 
    106 CB        -2.5863  -24.2702  -56.0315 C.3       19 UNK        -0.1800 
    107 C         -0.7323  -22.7380  -55.2488 C.2       19 UNK         0.5000 
    108 O         -0.1790  -22.2138  -56.2159 O.2       19 UNK        -0.5000 
    109 N         -0.0817  -23.0999  -54.1327 N.am      20 UNK        -0.5000 
    110 CA         1.3488  -22.8898  -53.9070 C.3       20 UNK         0.1400 
    111 CB         1.8026  -23.7530  -52.7201 C.3       20 UNK        -0.1800 
    112 C          1.7323  -21.4133  -53.6764 C.2       20 UNK         0.5000 
    113 O          2.8906  -21.0624  -53.9059 O.2       20 UNK        -0.5000 
    114 N          0.7782  -20.5831  -53.2310 N.am      21 UNK        -0.5000 
    115 CA         0.9798  -19.1559  -52.9685 C.3       21 UNK         0.1400 
    116 CB         0.5718  -18.8375  -51.5211 C.3       21 UNK        -0.1800 
    117 C          0.1845  -18.2795  -53.9471 C.2       21 UNK         0.5000 
    118 O          0.7108  -17.2729  -54.4232 O.2       21 UNK        -0.5000 
    119 N         -1.0662  -18.6656  -54.2177 N.am      22 UNK        -0.5000 
    120 CA        -2.0447  -17.8916  -54.9946 C.3       22 UNK         0.1400 
    121 C         -2.1334  -18.3067  -56.4910 C.2       22 UNK         0.5000 
    122 N         -1.4005  -19.3124  -56.9537 N.am      22 UNK        -0.7600 
    123 O         -2.8736  -17.6937  -57.2553 O.2       22 UNK        -0.5000 
    124 C124       -3.4482  -17.9075  -54.3248 C.3       23 UNK        -0.0398 
    125 S125       -3.4251  -17.5139  -52.5388 S.3       23 UNK        -0.2404 
    126 C126       -3.2247  -15.7069  -52.5797 C.3       23 UNK        -0.0205 
    127 H127       -3.0757   -9.9017  -41.3940 H         1 UNK         0.0600 
    128 H128       -3.2045  -11.4336  -40.5236 H         1 UNK         0.0600 
    129 H129       -4.5898  -10.8105  -41.4250 H         1 UNK         0.0600 
    130 H130       -4.8920  -11.8628  -43.3424 H         1 UNK         0.3000 
    131 H131       -3.0768  -12.1114  -45.4208 H         1 UNK         0.0600 
    132 H132       -5.4155  -12.0812  -45.9106 H         1 UNK         0.0800 
    133 H133       -5.7530  -13.4146  -44.8526 H         1 UNK         0.0800 
    134 H134       -3.9562  -12.2715  -47.9608 H         1 UNK         0.0800 
    135 H135       -5.2905  -12.8676  -48.9217 H         1 UNK         0.0800 
    136 H136       -4.7952  -14.3256  -50.8092 H         1 UNK         0.1150 
    137 H137       -0.8314  -15.8931  -51.3087 H         1 UNK         0.1150 
    138 H138       -1.8569  -13.7285  -47.7595 H         1 UNK         0.1150 
    139 H139        0.9418  -14.8183  -49.6859 H         1 UNK         0.0800 
    140 H140        0.4093  -14.3837  -48.0835 H         1 UNK         0.0800 
    141 H141       -1.3558  -16.1098  -46.9476 H         1 UNK         0.0800 
    142 H142       -0.4177  -17.3751  -46.2036 H         1 UNK         0.0800 
    143 H143       -2.1919  -17.7682  -48.6624 H         1 UNK         0.0600 
    144 H144       -0.2761  -19.5163  -47.5314 H         1 UNK         0.3000 
    145 H145       -1.7901  -22.5833  -48.6619 H         1 UNK         0.0600 
    146 H146        0.4462  -22.8326  -49.6302 H         1 UNK         0.0600 
    147 H147       -0.4422  -21.6247  -50.5450 H         1 UNK         0.0600 
    148 H148        0.7945  -21.1233  -49.3970 H         1 UNK         0.0600 
    149 H149        0.5423  -21.8290  -47.0859 H         1 UNK         0.3000 
    150 H150       -1.0014  -22.4576  -43.9350 H         1 UNK         0.0600 
    151 H151       -0.3916  -24.7275  -44.7926 H         1 UNK         0.0600 
    152 H152        0.8540  -24.0821  -43.7356 H         1 UNK         0.0600 
    153 H153        1.0903  -24.0786  -45.4838 H         1 UNK         0.0600 
    154 H154        1.6844  -21.8084  -44.6422 H         1 UNK         0.3000 
    155 H155        1.2897  -18.2516  -44.6284 H         1 UNK         0.0600 
    156 H156        2.6720  -20.1764  -42.6864 H         1 UNK         0.0600 
    157 H157        1.4297  -19.0149  -42.2327 H         1 UNK         0.0600 
    158 H158        2.9702  -18.4448  -42.8524 H         1 UNK         0.0600 
    159 H159        3.6783  -19.5034  -44.9399 H         1 UNK         0.3000 
    160 H160        4.4782  -20.6390  -47.1959 H         1 UNK         0.0600 
    161 H161        3.2199  -18.7583  -49.2640 H         1 UNK         0.0600 
    162 H162        3.1771  -20.5175  -49.2982 H         1 UNK         0.0600 
    163 H163        4.7059  -19.6803  -49.4956 H         1 UNK         0.0600 
    164 H164        4.8030  -17.7677  -47.6492 H         1 UNK         0.3000 
    165 H165        6.3463  -17.0349  -44.5985 H         1 UNK         0.0600 
    166 H166        8.3529  -16.3854  -45.9035 H         1 UNK         0.0600 
    167 H167        8.3017  -18.1292  -45.7060 H         1 UNK         0.0600 
    168 H168        7.8465  -17.4115  -47.2466 H         1 UNK         0.0600 
    169 H169        6.2299  -15.5564  -47.0202 H         1 UNK         0.3000 
    170 H170        4.8590  -13.5385  -46.6750 H         1 UNK         0.0600 
    171 H171        4.6756  -14.8931  -48.7257 H         1 UNK         0.0600 
    172 H172        3.0672  -15.4426  -48.2892 H         1 UNK         0.0600 
    173 H173        3.3388  -13.7576  -48.7305 H         1 UNK         0.0600 
    174 H174        2.3610  -14.3636  -45.4953 H         1 UNK         0.3000 
    175 H175        1.5545  -11.0936  -44.7497 H         1 UNK         0.0600 
    176 H176       -0.2438  -12.5415  -46.7471 H         1 UNK         0.0600 
    177 H177       -0.7561  -11.2965  -45.6088 H         1 UNK         0.0600 
    178 H178        0.3524  -10.8972  -46.9118 H         1 UNK         0.0600 
    179 H179       -0.0232  -13.4691  -44.4542 H         1 UNK         0.3000 
    180 H180        1.5118  -15.0612  -42.0519 H         1 UNK         0.0600 
    181 H181        0.3678  -14.2288  -39.9831 H         1 UNK         0.0600 
    182 H182        0.1999  -12.6338  -40.7157 H         1 UNK         0.0600 
    183 H183        1.7971  -13.2800  -40.3531 H         1 UNK         0.0600 
    184 H184       -1.1626  -13.8088  -42.5595 H         1 UNK         0.3000 
    185 H185       -2.3984  -16.7228  -43.9976 H         1 UNK         0.0600 
    186 H186       -2.6016  -17.5827  -41.6302 H         1 UNK         0.0600 
    187 H187       -3.2018  -16.0107  -41.1258 H         1 UNK         0.0600 
    188 H188       -4.1279  -16.9900  -42.2656 H         1 UNK         0.0600 
    189 H189       -3.8890  -14.5614  -42.9612 H         1 UNK         0.3000 
    190 H190       -2.2364  -19.4887  -45.5182 H         1 UNK         0.3000 
    191 H191       -4.7884  -18.4478  -44.6673 H         1 UNK         0.0600 
    192 H192       -4.5907  -20.2256  -42.9480 H         1 UNK         0.0600 
    193 H193       -3.0544  -19.3916  -43.1154 H         1 UNK         0.0600 
    194 H194       -3.2734  -20.9818  -43.8365 H         1 UNK         0.0600 
    195 H195       -3.9859  -20.6680  -47.1237 H         1 UNK         0.3000 
    196 H196       -4.9647  -22.1635  -48.3759 H         1 UNK         0.0600 
    197 H197       -7.6475  -21.0297  -47.4284 H         1 UNK         0.0600 
    198 H198       -6.6623  -20.3603  -48.7292 H         1 UNK         0.0600 
    199 H199       -7.3635  -21.9614  -48.8917 H         1 UNK         0.0600 
    200 H200       -4.1209  -23.0593  -45.8481 H         1 UNK         0.3000 
    201 H201       -6.0204  -24.9301  -44.6964 H         1 UNK         0.0600 
    202 H202       -2.9725  -24.7052  -44.4102 H         1 UNK         0.0600 
    203 H203       -4.0371  -25.6644  -43.3911 H         1 UNK         0.0600 
    204 H204       -4.1537  -23.9100  -43.3711 H         1 UNK         0.0600 
    205 H205       -6.2840  -27.0536  -45.1979 H         1 UNK         0.3000 
    206 H206       -6.3667  -28.9529  -46.3287 H         1 UNK         0.0600 
    207 H207       -4.1622  -29.2664  -45.1692 H         1 UNK         0.0600 
    208 H208       -4.2445  -30.1606  -46.6765 H         1 UNK         0.0600 
    209 H209       -3.3278  -28.6617  -46.5998 H         1 UNK         0.0600 
    210 H210       -6.5621  -26.4459  -47.9323 H         1 UNK         0.3000 
    211 H211       -6.8532  -25.6791  -49.9722 H         1 UNK         0.0600 
    212 H212       -7.5094  -27.1752  -51.8048 H         1 UNK         0.0600 
    213 H213       -8.2332  -27.7465  -50.3116 H         1 UNK         0.0600 
    214 H214       -6.8262  -28.5700  -50.9833 H         1 UNK         0.0600 
    215 H215       -4.1000  -26.0007  -48.9305 H         1 UNK         0.3000 
    216 H216       -2.3380  -26.5671  -51.1293 H         1 UNK         0.0600 
    217 H217       -1.8264  -25.1052  -48.4841 H         1 UNK         0.0600 
    218 H218       -0.5999  -25.7844  -49.5452 H         1 UNK         0.0600 
    219 H219       -1.7262  -26.8492  -48.7195 H         1 UNK         0.0600 
    220 H220       -4.3642  -23.9901  -50.8518 H         1 UNK         0.3000 
    221 H221       -2.9695  -21.6569  -51.0040 H         1 UNK         0.0600 
    222 H222       -5.4253  -21.7829  -50.7425 H         1 UNK         0.0600 
    223 H223       -5.6047  -22.3439  -52.4052 H         1 UNK         0.0600 
    224 H224       -5.0304  -20.7124  -52.0735 H         1 UNK         0.0600 
    225 H225       -3.3964  -23.8385  -53.7286 H         1 UNK         0.3000 
    226 H226       -2.6925  -22.1341  -55.8518 H         1 UNK         0.0600 
    227 H227       -2.2058  -25.1410  -55.4959 H         1 UNK         0.0600 
    228 H228       -3.6621  -24.3951  -56.1562 H         1 UNK         0.0600 
    229 H229       -2.1424  -24.2771  -57.0279 H         1 UNK         0.0600 
    230 H230       -0.6057  -23.5043  -53.3619 H         1 UNK         0.3000 
    231 H231        1.8846  -23.2315  -54.7950 H         1 UNK         0.0600 
    232 H232        1.3164  -23.4475  -51.7940 H         1 UNK         0.0600 
    233 H233        2.8794  -23.6723  -52.5666 H         1 UNK         0.0600 
    234 H234        1.5749  -24.8060  -52.8862 H         1 UNK         0.0600 
    235 H235       -0.1622  -20.9404  -53.1131 H         1 UNK         0.3000 
    236 H236        2.0322  -18.8867  -53.0787 H         1 UNK         0.0600 
    237 H237        1.2131  -19.3572  -50.8113 H         1 UNK         0.0600 
    238 H238        0.6703  -17.7718  -51.3138 H         1 UNK         0.0600 
    239 H239       -0.4623  -19.1178  -51.3151 H         1 UNK         0.0600 
    240 H240       -1.4412  -19.5080  -53.7848 H         1 UNK         0.3000 
    241 H241       -1.7180  -16.8511  -55.0156 H         1 UNK         0.0600 
    242 H242       -1.4630  -19.5632  -57.9276 H         1 UNK         0.3800 
    243 H243       -0.7858  -19.8306  -56.3445 H         1 UNK         0.3800 
    244 H244       -3.8999  -18.8953  -54.4317 H         1 UNK         0.0800 
    245 H245       -4.1220  -17.2107  -54.8263 H         1 UNK         0.0800 
    246 H246       -4.1461  -15.2495  -52.9432 H         1 UNK         0.0800 
    247 H247       -2.4424  -15.4358  -53.2892 H         1 UNK         0.0800 
@<TRIPOS>BOND
     1    1    2 1    
     2    1  127 1    
     3    1  128 1    
     4    1  129 1    
     5    2    3 2    
     6    2    4 am   BACKBONE|DICT|INTERRES
     7    4    5 1    
     8    4  130 1    
     9    5    6 1    
    10    5   65 1    
    11    5  131 1    
    12    6    7 1    
    13    6  132 1    
    14    6  133 1    
    15    7    8 1    
    16    8    9 1    
    17    8  134 1    
    18    8  135 1    
    19    9   10 ar   
    20    9   14 ar   
    21   10   11 ar   
    22   10  136 1    
    23   11   12 ar   
    24   11  126 1    
    25   12   13 ar   
    26   12  137 1    
    27   13   14 ar   
    28   13   15 1    
    29   14  138 1    
    30   15   16 1    
    31   15  139 1    
    32   15  140 1    
    33   16   17 1    
    34   17   18 1    
    35   17  141 1    
    36   17  142 1    
    37   18   19 1    
    38   18   67 1    
    39   18  143 1    
    40   19   20 am   BACKBONE|DICT|INTERRES
    41   19  144 1    
    42   20   21 2    
    43   20   22 1    
    44   22   23 1    
    45   22   24 1    
    46   22  145 1    
    47   23  146 1    
    48   23  147 1    
    49   23  148 1    
    50   24   25 am   BACKBONE|DICT|INTERRES
    51   24  149 1    
    52   25   26 2    
    53   25   27 1    
    54   27   28 1    
    55   27   29 1    
    56   27  150 1    
    57   28  151 1    
    58   28  152 1    
    59   28  153 1    
    60   29   30 am   BACKBONE|DICT|INTERRES
    61   29  154 1    
    62   30   31 2    
    63   30   32 1    
    64   32   33 1    
    65   32   34 1    
    66   32  155 1    
    67   33  156 1    
    68   33  157 1    
    69   33  158 1    
    70   34   35 am   BACKBONE|DICT|INTERRES
    71   34  159 1    
    72   35   36 2    
    73   35   37 1    
    74   37   38 1    
    75   37   39 1    
    76   37  160 1    
    77   38  161 1    
    78   38  162 1    
    79   38  163 1    
    80   39   40 am   BACKBONE|DICT|INTERRES
    81   39  164 1    
    82   40   41 2    
    83   40   42 1    
    84   42   43 1    
    85   42   44 1    
    86   42  165 1    
    87   43  166 1    
    88   43  167 1    
    89   43  168 1    
    90   44   45 am   BACKBONE|DICT|INTERRES
    91   44  169 1    
    92   45   46 2    
    93   45   47 1    
    94   47   48 1    
    95   47   49 1    
    96   47  170 1    
    97   48  171 1    
    98   48  172 1    
    99   48  173 1    
   100   49   50 am   BACKBONE|DICT|INTERRES
   101   49  174 1    
   102   50   51 2    
   103   50   52 1    
   104   52   53 1    
   105   52   54 1    
   106   52  175 1    
   107   53  176 1    
   108   53  177 1    
   109   53  178 1    
   110   54   55 am   BACKBONE|DICT|INTERRES
   111   54  179 1    
   112   55   56 2    
   113   55   57 1    
   114   57   58 1    
   115   57   59 1    
   116   57  180 1    
   117   58  181 1    
   118   58  182 1    
   119   58  183 1    
   120   59   60 am   BACKBONE|DICT|INTERRES
   121   59  184 1    
   122   60   61 2    
   123   60   62 1    
   124   62   63 1    
   125   62   64 1    
   126   62  185 1    
   127   63  186 1    
   128   63  187 1    
   129   63  188 1    
   130   64   65 am   BACKBONE|DICT|INTERRES
   131   64  189 1    
   132   65   66 2    
   133   67   68 2    
   134   67   69 am   BACKBONE|DICT|INTERRES
   135   69   70 1    
   136   69  190 1    
   137   70   71 1    
   138   70   72 1    
   139   70  191 1    
   140   71  192 1    
   141   71  193 1    
   142   71  194 1    
   143   72   73 2    
   144   72   74 am   BACKBONE|DICT|INTERRES
   145   74   75 1    
   146   74  195 1    
   147   75   76 1    
   148   75   77 1    
   149   75  196 1    
   150   76  197 1    
   151   76  198 1    
   152   76  199 1    
   153   77   78 2    
   154   77   79 am   BACKBONE|DICT|INTERRES
   155   79   80 1    
   156   79  200 1    
   157   80   81 1    
   158   80   82 1    
   159   80  201 1    
   160   81  202 1    
   161   81  203 1    
   162   81  204 1    
   163   82   83 2    
   164   82   84 am   BACKBONE|DICT|INTERRES
   165   84   85 1    
   166   84  205 1    
   167   85   86 1    
   168   85   87 1    
   169   85  206 1    
   170   86  207 1    
   171   86  208 1    
   172   86  209 1    
   173   87   88 2    
   174   87   89 am   BACKBONE|DICT|INTERRES
   175   89   90 1    
   176   89  210 1    
   177   90   91 1    
   178   90   92 1    
   179   90  211 1    
   180   91  212 1    
   181   91  213 1    
   182   91  214 1    
   183   92   93 2    
   184   92   94 am   BACKBONE|DICT|INTERRES
   185   94   95 1    
   186   94  215 1    
   187   95   96 1    
   188   95   97 1    
   189   95  216 1    
   190   96  217 1    
   191   96  218 1    
   192   96  219 1    
   193   97   98 2    
   194   97   99 am   BACKBONE|DICT|INTERRES
   195   99  100 1    
   196   99  220 1    
   197  100  101 1    
   198  100  102 1    
   199  100  221 1    
   200  101  222 1    
   201  101  223 1    
   202  101  224 1    
   203  102  103 2    
   204  102  104 am   BACKBONE|DICT|INTERRES
   205  104  105 1    
   206  104  225 1    
   207  105  106 1    
   208  105  107 1    
   209  105  226 1    
   210  106  227 1    
   211  106  228 1    
   212  106  229 1    
   213  107  108 2    
   214  107  109 am   BACKBONE|DICT|INTERRES
   215  109  110 1    
   216  109  230 1    
   217  110  111 1    
   218  110  112 1    
   219  110  231 1    
   220  111  232 1    
   221  111  233 1    
   222  111  234 1    
   223  112  113 2    
   224  112  114 am   BACKBONE|DICT|INTERRES
   225  114  115 1    
   226  114  235 1    
   227  115  116 1    
   228  115  117 1    
   229  115  236 1    
   230  116  237 1    
   231  116  238 1    
   232  116  239 1    
   233  117  118 2    
   234  117  119 am   BACKBONE|DICT|INTERRES
   235  119  120 1    
   236  119  240 1    
   237  120  121 1    
   238  120  124 1    
   239  120  241 1    
   240  121  122 am   BACKBONE|DICT|INTERRES
   241  121  123 2    
   242  122  242 1    
   243  122  243 1    
   244  124  125 1    
   245  124  244 1    
   246  124  245 1    
   247  125  126 1    
   248  126  246 1    
   249  126  247 1    
@<TRIPOS>SUBSTRUCTURE
     1 UNK         1 GROUP             0       ****    0 ROOT    
