@<TRIPOS>MOLECULE
3R540
247   249    1
SMALL
USER_CHARGES


@<TRIPOS>ATOM
      1 CA         -2.1214  -13.8387  -46.3550 C.3       0 UNK        -0.1800 
      2 C          -1.7089  -13.9850  -47.8128 C.2       0 UNK         0.5000 
      3 O          -2.5666  -14.1659  -48.6768 O.2       0 UNK        -0.5000 
      4 N          -0.4028  -13.9037  -48.0826 N.am      1 UNK        -0.5000 
      5 CA          0.1762  -13.8913  -49.4304 C.3       1 UNK         0.1400 
      6 C6          1.5847  -14.5390  -49.4729 C.3       23 UNK        -0.0398 
      7 S7          1.5893  -16.2688  -48.8997 S.3       23 UNK        -0.2404 
      8 C8          1.0539  -17.1185  -50.4159 C.3       23 UNK        -0.0205 
      9 C9          0.0783  -18.2392  -50.1029 C.ar      23 UNK        -0.0193 
     10 C10        -1.1856  -17.9406  -49.5887 C.ar      23 UNK        -0.1150 
     11 C11        -2.1032  -18.9588  -49.3211 C.ar      23 UNK        -0.0193 
     12 C12        -1.7381  -20.2888  -49.5536 C.ar      23 UNK        -0.1150 
     13 C13        -0.4757  -20.6013  -50.0675 C.ar      23 UNK        -0.0193 
     14 C14         0.4256  -19.5694  -50.3462 C.ar      23 UNK        -0.1150 
     15 C15        -0.0876  -22.0546  -50.3114 C.3       23 UNK        -0.0205 
     16 S16         1.4947  -22.5189  -49.5238 S.3       23 UNK        -0.2404 
     17 C17         1.2294  -22.0156  -47.7870 C.3       23 UNK        -0.0398 
     18 CA          0.8131  -23.1791  -46.8621 C.3       11 UNK         0.1400 
     19 N           0.9516  -22.8134  -45.4528 N.am      11 UNK        -0.5000 
     20 C           0.8180  -23.6574  -44.4216 C.2       10 UNK         0.5000 
     21 O           0.6140  -24.8648  -44.5466 O.2       10 UNK        -0.5000 
     22 CA          0.8571  -23.0322  -43.0158 C.3       10 UNK         0.1400 
     23 CB          2.3004  -22.7352  -42.5829 C.3       10 UNK        -0.1800 
     24 N           0.0521  -21.8118  -42.9331 N.am      10 UNK        -0.5000 
     25 C          -1.2777  -21.7774  -43.1047 C.2       9 UNK         0.5000 
     26 O          -1.9674  -22.7810  -43.2879 O.2       9 UNK        -0.5000 
     27 CA         -1.9461  -20.3913  -43.1085 C.3       9 UNK         0.1400 
     28 CB         -2.1736  -19.8967  -41.6725 C.3       9 UNK        -0.1800 
     29 N          -1.1867  -19.3932  -43.8638 N.am      9 UNK        -0.5000 
     30 C          -0.9626  -19.4431  -45.1854 C.2       8 UNK         0.5000 
     31 O          -1.4018  -20.3270  -45.9162 O.2       8 UNK        -0.5000 
     32 CA         -0.0540  -18.3567  -45.7872 C.3       8 UNK         0.1400 
     33 CB         -0.8243  -17.0450  -45.9781 C.3       8 UNK        -0.1800 
     34 N           1.1347  -18.1115  -44.9727 N.am      8 UNK        -0.5000 
     35 C           2.0753  -19.0278  -44.7049 C.2       7 UNK         0.5000 
     36 O           2.0686  -20.1733  -45.1550 O.2       7 UNK        -0.5000 
     37 CA          3.1778  -18.6096  -43.7198 C.3       7 UNK         0.1400 
     38 CB          4.2687  -17.7929  -44.4286 C.3       7 UNK        -0.1800 
     39 N           2.6327  -17.8455  -42.5976 N.am      7 UNK        -0.5000 
     40 C           1.8680  -18.3711  -41.6299 C.2       6 UNK         0.5000 
     41 O           1.5735  -19.5649  -41.5632 O.2       6 UNK        -0.5000 
     42 CA          1.3069  -17.3887  -40.5848 C.3       6 UNK         0.1400 
     43 CB          2.3559  -17.0863  -39.5044 C.3       6 UNK        -0.1800 
     44 N           0.8458  -16.1331  -41.1813 N.am      6 UNK        -0.5000 
     45 C          -0.2037  -16.0360  -42.0091 C.2       5 UNK         0.5000 
     46 O          -0.9094  -16.9908  -42.3274 O.2       5 UNK        -0.5000 
     47 CA         -0.4955  -14.6532  -42.6196 C.3       5 UNK         0.1400 
     48 CB         -1.4416  -13.8511  -41.7147 C.3       5 UNK        -0.1800 
     49 N           0.6969  -13.8509  -42.9047 N.am      5 UNK        -0.5000 
     50 C           1.7107  -14.2173  -43.7022 C.2       4 UNK         0.5000 
     51 O           1.7924  -15.3253  -44.2354 O.2       4 UNK        -0.5000 
     52 CA          2.7950  -13.1444  -43.9398 C.3       4 UNK         0.1400 
     53 CB          3.8399  -13.5676  -44.9944 C.3       4 UNK        -0.1800 
     54 N           2.2141  -11.8337  -44.2673 N.am      4 UNK        -0.5000 
     55 C           1.4447  -11.5505  -45.3286 C.2       3 UNK         0.5000 
     56 O           1.1490  -12.3792  -46.1967 O.2       3 UNK        -0.5000 
     57 CA          0.8792  -10.1149  -45.4417 C.3       3 UNK         0.1400 
     58 CB          1.7606   -9.0292  -44.7842 C.3       3 UNK        -0.1800 
     59 N           0.5644   -9.8148  -46.8438 N.am      3 UNK        -0.5000 
     60 C           1.4484   -9.6692  -47.8428 C.2       2 UNK         0.5000 
     61 O           2.6350   -9.3736  -47.6922 O.2       2 UNK        -0.5000 
     62 CA          0.9317  -10.1148  -49.2177 C.3       2 UNK         0.1400 
     63 CB          1.9278   -9.8113  -50.3580 C.3       2 UNK        -0.1800 
     64 N           0.7127  -11.5501  -49.0598 N.am      2 UNK        -0.5000 
     65 C           0.2499  -12.4400  -49.9433 C.2       1 UNK         0.5000 
     66 O          -0.1123  -12.1633  -51.0866 O.2       1 UNK        -0.5000 
     67 C          -0.6056  -23.6932  -47.1811 C.2       11 UNK         0.5000 
     68 O          -0.7337  -24.7329  -47.8239 O.2       11 UNK        -0.5000 
     69 N          -1.6412  -22.9971  -46.6912 N.am      12 UNK        -0.5000 
     70 CA         -3.0452  -23.3779  -46.8446 C.3       12 UNK         0.1400 
     71 CB         -3.9535  -22.2847  -46.2663 C.3       12 UNK        -0.1800 
     72 C          -3.3814  -24.7466  -46.2268 C.2       12 UNK         0.5000 
     73 O          -4.1840  -25.4844  -46.7966 O.2       12 UNK        -0.5000 
     74 N          -2.7480  -25.0761  -45.0946 N.am      13 UNK        -0.5000 
     75 CA         -2.8480  -26.3872  -44.4587 C.3       13 UNK         0.1400 
     76 CB         -2.3355  -26.2938  -43.0131 C.3       13 UNK        -0.1800 
     77 C          -2.0928  -27.4784  -45.2423 C.2       13 UNK         0.5000 
     78 O          -2.6251  -28.5746  -45.4204 O.2       13 UNK        -0.5000 
     79 N          -0.8654  -27.1682  -45.6797 N.am      14 UNK        -0.5000 
     80 CA          0.0474  -28.1182  -46.3156 C.3       14 UNK         0.1400 
     81 CB          1.4856  -27.5926  -46.1852 C.3       14 UNK        -0.1800 
     82 C          -0.2736  -28.4169  -47.7916 C.2       14 UNK         0.5000 
     83 O          -0.1785  -29.5739  -48.2037 O.2       14 UNK        -0.5000 
     84 N          -0.5983  -27.3757  -48.5666 N.am      15 UNK        -0.5000 
     85 CA         -0.6552  -27.4022  -50.0312 C.3       15 UNK         0.1400 
     86 CB          0.5132  -26.5569  -50.5715 C.3       15 UNK        -0.1800 
     87 C          -2.0036  -26.9140  -50.5944 C.2       15 UNK         0.5000 
     88 O          -2.1038  -26.7210  -51.8072 O.2       15 UNK        -0.5000 
     89 N          -3.0065  -26.7461  -49.7197 N.am      16 UNK        -0.5000 
     90 CA         -4.3518  -26.2085  -49.9623 C.3       16 UNK         0.1400 
     91 CB         -5.0748  -26.9319  -51.1173 C.3       16 UNK        -0.1800 
     92 C          -4.3606  -24.6794  -50.1600 C.2       16 UNK         0.5000 
     93 O          -3.3662  -24.0803  -50.5772 O.2       16 UNK        -0.5000 
     94 N          -5.5037  -24.0621  -49.8381 N.am      17 UNK        -0.5000 
     95 CA         -5.7491  -22.6246  -49.9523 C.3       17 UNK         0.1400 
     96 CB         -6.8982  -22.2418  -49.0024 C.3       17 UNK        -0.1800 
     97 C          -6.0414  -22.2326  -51.4136 C.2       17 UNK         0.5000 
     98 O          -7.1924  -21.9696  -51.7684 O.2       17 UNK        -0.5000 
     99 N          -4.9953  -22.2509  -52.2472 N.am      18 UNK        -0.5000 
    100 CA        -5.0336  -21.8759  -53.6579 C.3       18 UNK         0.1400 
    101 CB        -3.6746  -22.1985  -54.2989 C.3       18 UNK        -0.1800 
    102 C         -5.3819  -20.3874  -53.8323 C.2       18 UNK         0.5000 
    103 O         -4.6170  -19.5285  -53.3913 O.2       18 UNK        -0.5000 
    104 N         -6.5109  -20.1038  -54.4943 N.am      19 UNK        -0.5000 
    105 CA        -7.0485  -18.7540  -54.7060 C.3       19 UNK         0.1400 
    106 CB        -8.4402  -18.8690  -55.3467 C.3       19 UNK        -0.1800 
    107 C         -6.1429  -17.8274  -55.5436 C.2       19 UNK         0.5000 
    108 O         -6.2742  -16.6074  -55.4513 O.2       19 UNK        -0.5000 
    109 N         -5.2371  -18.4172  -56.3344 N.am      20 UNK        -0.5000 
    110 CA        -4.1958  -17.7083  -57.0763 C.3       20 UNK         0.1400 
    111 CB        -3.6870  -18.6203  -58.2038 C.3       20 UNK        -0.1800 
    112 C         -3.0223  -17.2543  -56.1834 C.2       20 UNK         0.5000 
    113 O         -2.3056  -16.3294  -56.5682 O.2       20 UNK        -0.5000 
    114 N         -2.8299  -17.9133  -55.0319 N.am      21 UNK        -0.5000 
    115 CA        -1.7540  -17.6344  -54.0835 C.3       21 UNK         0.1400 
    116 CB        -1.1768  -18.9615  -53.5656 C.3       21 UNK        -0.1800 
    117 C         -2.2536  -16.7610  -52.9223 C.2       21 UNK         0.5000 
    118 O         -1.5905  -15.7814  -52.5806 O.2       21 UNK        -0.5000 
    119 N         -3.4057  -17.1239  -52.3427 N.am      22 UNK        -0.5000 
    120 CA        -4.0448  -16.3992  -51.2358 C.3       22 UNK         0.1400 
    121 C         -4.5558  -14.9953  -51.6633 C.2       22 UNK         0.5000 
    122 N         -4.2650  -13.9555  -50.8948 N.am      22 UNK        -0.7600 
    123 O         -5.2570  -14.8482  -52.6609 O.2       22 UNK        -0.5000 
    124 C124       -5.1959  -17.2110  -50.5860 C.3       23 UNK        -0.0398 
    125 S125       -4.7725  -18.9020  -50.0350 S.3       23 UNK        -0.2404 
    126 C126       -3.4851  -18.6315  -48.7756 C.3       23 UNK        -0.0205 
    127 H127       -1.2550  -13.7499  -45.6997 H         1 UNK         0.0600 
    128 H128       -2.7030  -14.7042  -46.0386 H         1 UNK         0.0600 
    129 H129       -2.7366  -12.9483  -46.2279 H         1 UNK         0.0600 
    130 H130        0.2436  -13.7123  -47.3230 H         1 UNK         0.3000 
    131 H131       -0.4734  -14.4486  -50.1092 H         1 UNK         0.0600 
    132 H132        1.9982  -14.5022  -50.4826 H         1 UNK         0.0800 
    133 H133        2.2811  -13.9850  -48.8405 H         1 UNK         0.0800 
    134 H134        1.9327  -17.4959  -50.9405 H         1 UNK         0.0800 
    135 H135        0.5677  -16.4197  -51.0966 H         1 UNK         0.0800 
    136 H136       -1.4454  -16.9096  -49.3967 H         1 UNK         0.1150 
    137 H137       -2.4423  -21.0797  -49.3365 H         1 UNK         0.1150 
    138 H138        1.4009  -19.8061  -50.7472 H         1 UNK         0.1150 
    139 H139       -0.8704  -22.7290  -49.9604 H         1 UNK         0.0800 
    140 H140       -0.0068  -22.2190  -51.3864 H         1 UNK         0.0800 
    141 H141        0.5218  -21.1896  -47.7147 H         1 UNK         0.0800 
    142 H142        2.1808  -21.6074  -47.4440 H         1 UNK         0.0800 
    143 H143        1.5038  -24.0070  -47.0368 H         1 UNK         0.0600 
    144 H144        1.1553  -21.8358  -45.2598 H         1 UNK         0.3000 
    145 H145        0.4364  -23.7590  -42.3177 H         1 UNK         0.0600 
    146 H146        2.9123  -23.6372  -42.6205 H         1 UNK         0.0600 
    147 H147        2.7712  -21.9913  -43.2257 H         1 UNK         0.0600 
    148 H148        2.3346  -22.3607  -41.5597 H         1 UNK         0.0600 
    149 H149        0.5473  -20.9477  -42.7413 H         1 UNK         0.3000 
    150 H150       -2.9220  -20.4952  -43.5861 H         1 UNK         0.0600 
    151 H151       -2.7346  -20.6288  -41.0902 H         1 UNK         0.0600 
    152 H152       -2.7445  -18.9682  -41.6624 H         1 UNK         0.0600 
    153 H153       -1.2312  -19.7156  -41.1546 H         1 UNK         0.0600 
    154 H154       -0.8412  -18.5960  -43.3361 H         1 UNK         0.3000 
    155 H155        0.2808  -18.7002  -46.7686 H         1 UNK         0.0600 
    156 H156       -1.2401  -16.6800  -45.0400 H         1 UNK         0.0600 
    157 H157       -0.1768  -16.2678  -46.3828 H         1 UNK         0.0600 
    158 H158       -1.6523  -17.1780  -46.6743 H         1 UNK         0.0600 
    159 H159        1.2489  -17.1756  -44.5944 H         1 UNK         0.3000 
    160 H160        3.6379  -19.5174  -43.3239 H         1 UNK         0.0600 
    161 H161        3.8681  -16.8848  -44.8792 H         1 UNK         0.0600 
    162 H162        4.7299  -18.3753  -45.2272 H         1 UNK         0.0600 
    163 H163        5.0603  -17.5050  -43.7368 H         1 UNK         0.0600 
    164 H164        2.7642  -16.8448  -42.6254 H         1 UNK         0.3000 
    165 H165        0.4523  -17.8693  -40.1037 H         1 UNK         0.0600 
    166 H166        1.9407  -16.4563  -38.7175 H         1 UNK         0.0600 
    167 H167        2.7053  -18.0057  -39.0326 H         1 UNK         0.0600 
    168 H168        3.2276  -16.5775  -39.9177 H         1 UNK         0.0600 
    169 H169        1.3750  -15.2999  -40.9710 H         1 UNK         0.3000 
    170 H170       -1.0047  -14.8235  -43.5687 H         1 UNK         0.0600 
    171 H171       -2.3506  -14.4155  -41.5019 H         1 UNK         0.0600 
    172 H172       -0.9750  -13.6072  -40.7595 H         1 UNK         0.0600 
    173 H173       -1.7451  -12.9179  -42.1897 H         1 UNK         0.0600 
    174 H174        0.7135  -12.9213  -42.5120 H         1 UNK         0.3000 
    175 H175        3.3191  -13.0231  -42.9908 H         1 UNK         0.0600 
    176 H176        3.3810  -13.7985  -45.9563 H         1 UNK         0.0600 
    177 H177        4.5786  -12.7825  -45.1552 H         1 UNK         0.0600 
    178 H178        4.3792  -14.4580  -44.6704 H         1 UNK         0.0600 
    179 H179        2.4075  -11.0920  -43.6091 H         1 UNK         0.3000 
    180 H180       -0.0770  -10.1238  -44.9169 H         1 UNK         0.0600 
    181 H181        2.7983   -9.0841  -45.1146 H         1 UNK         0.0600 
    182 H182        1.7582   -9.1263  -43.6982 H         1 UNK         0.0600 
    183 H183        1.3897   -8.0305  -45.0148 H         1 UNK         0.0600 
    184 H184       -0.3772  -10.0659  -47.1113 H         1 UNK         0.3000 
    185 H185       -0.0191   -9.6183  -49.4192 H         1 UNK         0.0600 
    186 H186        2.1713   -8.7487  -50.3881 H         1 UNK         0.0600 
    187 H187        2.8618  -10.3607  -50.2346 H         1 UNK         0.0600 
    188 H188        1.5142  -10.0702  -51.3322 H         1 UNK         0.0600 
    189 H189        0.9465  -11.8926  -48.1316 H         1 UNK         0.3000 
    190 H190       -1.4655  -22.1095  -46.2237 H         1 UNK         0.3000 
    191 H191       -3.2401  -23.4409  -47.9137 H         1 UNK         0.0600 
    192 H192       -3.7405  -22.1003  -45.2143 H         1 UNK         0.0600 
    193 H193       -5.0033  -22.5673  -46.3391 H         1 UNK         0.0600 
    194 H194       -3.8301  -21.3461  -46.8046 H         1 UNK         0.0600 
    195 H195       -2.1486  -24.3890  -44.6507 H         1 UNK         0.3000 
    196 H196       -3.9018  -26.6715  -44.4215 H         1 UNK         0.0600 
    197 H197       -2.4221  -27.2551  -42.5053 H         1 UNK         0.0600 
    198 H198       -2.9113  -25.5681  -42.4384 H         1 UNK         0.0600 
    199 H199       -1.2882  -25.9936  -42.9724 H         1 UNK         0.0600 
    200 H200       -0.4852  -26.2522  -45.4612 H         1 UNK         0.3000 
    201 H201       -0.0092  -29.0627  -45.7700 H         1 UNK         0.0600 
    202 H202        1.7661  -27.4683  -45.1391 H         1 UNK         0.0600 
    203 H203        1.6070  -26.6279  -46.6799 H         1 UNK         0.0600 
    204 H204        2.1994  -28.2850  -46.6334 H         1 UNK         0.0600 
    205 H205       -0.6604  -26.4452  -48.1504 H         1 UNK         0.3000 
    206 H206       -0.5285  -28.4224  -50.3982 H         1 UNK         0.0600 
    207 H207        1.4695  -26.9161  -50.1911 H         1 UNK         0.0600 
    208 H208        0.5630  -26.5980  -51.6601 H         1 UNK         0.0600 
    209 H209        0.4122  -25.5088  -50.2863 H         1 UNK         0.0600 
    210 H210       -2.7876  -26.9146  -48.7477 H         1 UNK         0.3000 
    211 H211       -4.9156  -26.4246  -49.0549 H         1 UNK         0.0600 
    212 H212       -4.6634  -26.6659  -52.0912 H         1 UNK         0.0600 
    213 H213       -6.1327  -26.6683  -51.1368 H         1 UNK         0.0600 
    214 H214       -5.0132  -28.0146  -51.0079 H         1 UNK         0.0600 
    215 H215       -6.2848  -24.6189  -49.5227 H         1 UNK         0.3000 
    216 H216       -4.8577  -22.0816  -49.6303 H         1 UNK         0.0600 
    217 H217       -7.0879  -21.1681  -49.0372 H         1 UNK         0.0600 
    218 H218       -6.6619  -22.4955  -47.9701 H         1 UNK         0.0600 
    219 H219       -7.8275  -22.7495  -49.2637 H         1 UNK         0.0600 
    220 H220       -4.0981  -22.5371  -51.8735 H         1 UNK         0.3000 
    221 H221       -5.7963  -22.4829  -54.1498 H         1 UNK         0.0600 
    222 H222       -2.8608  -21.6590  -53.8128 H         1 UNK         0.0600 
    223 H223       -3.4523  -23.2639  -54.2345 H         1 UNK         0.0600 
    224 H224       -3.6645  -21.9268  -55.3552 H         1 UNK         0.0600 
    225 H225       -7.0872  -20.8667  -54.8195 H         1 UNK         0.3000 
    226 H226       -7.1612  -18.2883  -53.7246 H         1 UNK         0.0600 
    227 H227       -9.1193  -19.4427  -54.7157 H         1 UNK         0.0600 
    228 H228       -8.8877  -17.8846  -55.4907 H         1 UNK         0.0600 
    229 H229       -8.3944  -19.3547  -56.3222 H         1 UNK         0.0600 
    230 H230       -5.2162  -19.4254  -56.3684 H         1 UNK         0.3000 
    231 H231       -4.6321  -16.8160  -57.5304 H         1 UNK         0.0600 
    232 H232       -2.9267  -18.1155  -58.8014 H         1 UNK         0.0600 
    233 H233       -4.4952  -18.9014  -58.8792 H         1 UNK         0.0600 
    234 H234       -3.2418  -19.5356  -57.8116 H         1 UNK         0.0600 
    235 H235       -3.5076  -18.6080  -54.7387 H         1 UNK         0.3000 
    236 H236       -0.9449  -17.0992  -54.5850 H         1 UNK         0.0600 
    237 H237       -0.8897  -19.6176  -54.3871 H         1 UNK         0.0600 
    238 H238       -0.2829  -18.7808  -52.9698 H         1 UNK         0.0600 
    239 H239       -1.8865  -19.5007  -52.9366 H         1 UNK         0.0600 
    240 H240       -3.8826  -17.9613  -52.6662 H         1 UNK         0.3000 
    241 H241       -3.2821  -16.2449  -50.4741 H         1 UNK         0.0600 
    242 H242       -3.6691  -14.0528  -50.0718 H         1 UNK         0.3800 
    243 H243       -4.6044  -13.0431  -51.1529 H         1 UNK         0.3800 
    244 H244       -5.5942  -16.6717  -49.7248 H         1 UNK         0.0800 
    245 H245       -6.0246  -17.3055  -51.2902 H         1 UNK         0.0800 
    246 H246       -3.5295  -17.6073  -48.4026 H         1 UNK         0.0800 
    247 H247       -3.6877  -19.2734  -47.9182 H         1 UNK         0.0800 
@<TRIPOS>BOND
     1    1    2 1    
     2    1  127 1    
     3    1  128 1    
     4    1  129 1    
     5    2    3 2    
     6    2    4 am   BACKBONE|DICT|INTERRES
     7    4    5 1    
     8    4  130 1    
     9    5    6 1    
    10    5   65 1    
    11    5  131 1    
    12    6    7 1    
    13    6  132 1    
    14    6  133 1    
    15    7    8 1    
    16    8    9 1    
    17    8  134 1    
    18    8  135 1    
    19    9   10 ar   
    20    9   14 ar   
    21   10   11 ar   
    22   10  136 1    
    23   11   12 ar   
    24   11  126 1    
    25   12   13 ar   
    26   12  137 1    
    27   13   14 ar   
    28   13   15 1    
    29   14  138 1    
    30   15   16 1    
    31   15  139 1    
    32   15  140 1    
    33   16   17 1    
    34   17   18 1    
    35   17  141 1    
    36   17  142 1    
    37   18   19 1    
    38   18   67 1    
    39   18  143 1    
    40   19   20 am   BACKBONE|DICT|INTERRES
    41   19  144 1    
    42   20   21 2    
    43   20   22 1    
    44   22   23 1    
    45   22   24 1    
    46   22  145 1    
    47   23  146 1    
    48   23  147 1    
    49   23  148 1    
    50   24   25 am   BACKBONE|DICT|INTERRES
    51   24  149 1    
    52   25   26 2    
    53   25   27 1    
    54   27   28 1    
    55   27   29 1    
    56   27  150 1    
    57   28  151 1    
    58   28  152 1    
    59   28  153 1    
    60   29   30 am   BACKBONE|DICT|INTERRES
    61   29  154 1    
    62   30   31 2    
    63   30   32 1    
    64   32   33 1    
    65   32   34 1    
    66   32  155 1    
    67   33  156 1    
    68   33  157 1    
    69   33  158 1    
    70   34   35 am   BACKBONE|DICT|INTERRES
    71   34  159 1    
    72   35   36 2    
    73   35   37 1    
    74   37   38 1    
    75   37   39 1    
    76   37  160 1    
    77   38  161 1    
    78   38  162 1    
    79   38  163 1    
    80   39   40 am   BACKBONE|DICT|INTERRES
    81   39  164 1    
    82   40   41 2    
    83   40   42 1    
    84   42   43 1    
    85   42   44 1    
    86   42  165 1    
    87   43  166 1    
    88   43  167 1    
    89   43  168 1    
    90   44   45 am   BACKBONE|DICT|INTERRES
    91   44  169 1    
    92   45   46 2    
    93   45   47 1    
    94   47   48 1    
    95   47   49 1    
    96   47  170 1    
    97   48  171 1    
    98   48  172 1    
    99   48  173 1    
   100   49   50 am   BACKBONE|DICT|INTERRES
   101   49  174 1    
   102   50   51 2    
   103   50   52 1    
   104   52   53 1    
   105   52   54 1    
   106   52  175 1    
   107   53  176 1    
   108   53  177 1    
   109   53  178 1    
   110   54   55 am   BACKBONE|DICT|INTERRES
   111   54  179 1    
   112   55   56 2    
   113   55   57 1    
   114   57   58 1    
   115   57   59 1    
   116   57  180 1    
   117   58  181 1    
   118   58  182 1    
   119   58  183 1    
   120   59   60 am   BACKBONE|DICT|INTERRES
   121   59  184 1    
   122   60   61 2    
   123   60   62 1    
   124   62   63 1    
   125   62   64 1    
   126   62  185 1    
   127   63  186 1    
   128   63  187 1    
   129   63  188 1    
   130   64   65 am   BACKBONE|DICT|INTERRES
   131   64  189 1    
   132   65   66 2    
   133   67   68 2    
   134   67   69 am   BACKBONE|DICT|INTERRES
   135   69   70 1    
   136   69  190 1    
   137   70   71 1    
   138   70   72 1    
   139   70  191 1    
   140   71  192 1    
   141   71  193 1    
   142   71  194 1    
   143   72   73 2    
   144   72   74 am   BACKBONE|DICT|INTERRES
   145   74   75 1    
   146   74  195 1    
   147   75   76 1    
   148   75   77 1    
   149   75  196 1    
   150   76  197 1    
   151   76  198 1    
   152   76  199 1    
   153   77   78 2    
   154   77   79 am   BACKBONE|DICT|INTERRES
   155   79   80 1    
   156   79  200 1    
   157   80   81 1    
   158   80   82 1    
   159   80  201 1    
   160   81  202 1    
   161   81  203 1    
   162   81  204 1    
   163   82   83 2    
   164   82   84 am   BACKBONE|DICT|INTERRES
   165   84   85 1    
   166   84  205 1    
   167   85   86 1    
   168   85   87 1    
   169   85  206 1    
   170   86  207 1    
   171   86  208 1    
   172   86  209 1    
   173   87   88 2    
   174   87   89 am   BACKBONE|DICT|INTERRES
   175   89   90 1    
   176   89  210 1    
   177   90   91 1    
   178   90   92 1    
   179   90  211 1    
   180   91  212 1    
   181   91  213 1    
   182   91  214 1    
   183   92   93 2    
   184   92   94 am   BACKBONE|DICT|INTERRES
   185   94   95 1    
   186   94  215 1    
   187   95   96 1    
   188   95   97 1    
   189   95  216 1    
   190   96  217 1    
   191   96  218 1    
   192   96  219 1    
   193   97   98 2    
   194   97   99 am   BACKBONE|DICT|INTERRES
   195   99  100 1    
   196   99  220 1    
   197  100  101 1    
   198  100  102 1    
   199  100  221 1    
   200  101  222 1    
   201  101  223 1    
   202  101  224 1    
   203  102  103 2    
   204  102  104 am   BACKBONE|DICT|INTERRES
   205  104  105 1    
   206  104  225 1    
   207  105  106 1    
   208  105  107 1    
   209  105  226 1    
   210  106  227 1    
   211  106  228 1    
   212  106  229 1    
   213  107  108 2    
   214  107  109 am   BACKBONE|DICT|INTERRES
   215  109  110 1    
   216  109  230 1    
   217  110  111 1    
   218  110  112 1    
   219  110  231 1    
   220  111  232 1    
   221  111  233 1    
   222  111  234 1    
   223  112  113 2    
   224  112  114 am   BACKBONE|DICT|INTERRES
   225  114  115 1    
   226  114  235 1    
   227  115  116 1    
   228  115  117 1    
   229  115  236 1    
   230  116  237 1    
   231  116  238 1    
   232  116  239 1    
   233  117  118 2    
   234  117  119 am   BACKBONE|DICT|INTERRES
   235  119  120 1    
   236  119  240 1    
   237  120  121 1    
   238  120  124 1    
   239  120  241 1    
   240  121  122 am   BACKBONE|DICT|INTERRES
   241  121  123 2    
   242  122  242 1    
   243  122  243 1    
   244  124  125 1    
   245  124  244 1    
   246  124  245 1    
   247  125  126 1    
   248  126  246 1    
   249  126  247 1    
@<TRIPOS>SUBSTRUCTURE
     1 UNK         1 GROUP             0       ****    0 ROOT    
