@<TRIPOS>MOLECULE
3R540
247   249    1
SMALL
USER_CHARGES


@<TRIPOS>ATOM
      1 CA          3.6811  -10.3621  -49.7906 C.3       0 UNK        -0.1800 
      2 C           2.3768  -11.1007  -50.0887 C.2       0 UNK         0.5000 
      3 O           1.3714  -10.4524  -50.3721 O.2       0 UNK        -0.5000 
      4 N           2.3356  -12.4401  -50.0570 N.am      1 UNK        -0.5000 
      5 CA          3.4072  -13.3625  -49.6627 C.3       1 UNK         0.1400 
      6 C6          3.0438  -14.8349  -49.9754 C.3       23 UNK        -0.0398 
      7 S7          2.7058  -15.1373  -51.7427 S.3       23 UNK        -0.2404 
      8 C8          0.8820  -15.2957  -51.7530 C.3       23 UNK        -0.0205 
      9 C9          0.2944  -16.5114  -51.0291 C.ar      23 UNK        -0.0193 
     10 C10        -1.0883  -16.5524  -50.8211 C.ar      23 UNK        -0.1150 
     11 C11        -1.6919  -17.6491  -50.1975 C.ar      23 UNK        -0.0193 
     12 C12        -0.8997  -18.7122  -49.7603 C.ar      23 UNK        -0.1150 
     13 C13         0.4846  -18.6813  -49.9453 C.ar      23 UNK        -0.0193 
     14 C14         1.0729  -17.5904  -50.5900 C.ar      23 UNK        -0.1150 
     15 C15         1.3508  -19.8348  -49.4738 C.3       23 UNK        -0.0205 
     16 S16         2.0892  -19.5202  -47.8407 S.3       23 UNK        -0.2404 
     17 C17         0.6787  -19.7217  -46.7008 C.3       23 UNK        -0.0398 
     18 CA          0.4581  -21.2013  -46.2894 C.3       11 UNK         0.1400 
     19 N           0.0531  -21.3354  -44.8894 N.am      11 UNK        -0.5000 
     20 C           0.0449  -22.4946  -44.2159 C.2       10 UNK         0.5000 
     21 O           0.4511  -23.5603  -44.6792 O.2       10 UNK        -0.5000 
     22 CA         -0.5547  -22.4654  -42.8005 C.3       10 UNK         0.1400 
     23 CB          0.4949  -22.0182  -41.7735 C.3       10 UNK        -0.1800 
     24 N          -1.7307  -21.5972  -42.7218 N.am      10 UNK        -0.5000 
     25 C          -2.9117  -21.8853  -43.2873 C.2       9 UNK         0.5000 
     26 O          -3.1330  -22.9199  -43.9149 O.2       9 UNK        -0.5000 
     27 CA         -4.0240  -20.8291  -43.1582 C.3       9 UNK         0.1400 
     28 CB         -4.7746  -20.9943  -41.8287 C.3       9 UNK        -0.1800 
     29 N          -3.5338  -19.4553  -43.2693 N.am      9 UNK        -0.5000 
     30 C          -2.9654  -18.9355  -44.3662 C.2       8 UNK         0.5000 
     31 O          -2.7605  -19.5656  -45.4013 O.2       8 UNK        -0.5000 
     32 CA         -2.4829  -17.4818  -44.2607 C.3       8 UNK         0.1400 
     33 CB         -3.6653  -16.5092  -44.3833 C.3       8 UNK        -0.1800 
     34 N          -1.7401  -17.2036  -43.0265 N.am      8 UNK        -0.5000 
     35 C          -0.6471  -17.8579  -42.6106 C.2       7 UNK         0.5000 
     36 O          -0.1426  -18.8043  -43.2193 O.2       7 UNK        -0.5000 
     37 CA         -0.0281  -17.3709  -41.2922 C.3       7 UNK         0.1400 
     38 CB          0.5830  -18.5251  -40.4747 C.3       7 UNK        -0.1800 
     39 N           0.9889  -16.3606  -41.5682 N.am      7 UNK        -0.5000 
     40 C           1.4047  -15.4419  -40.6859 C.2       6 UNK         0.5000 
     41 O           0.9364  -15.3245  -39.5523 O.2       6 UNK        -0.5000 
     42 CA          2.5271  -14.4879  -41.1359 C.3       6 UNK         0.1400 
     43 CB          3.8813  -15.2123  -41.1973 C.3       6 UNK        -0.1800 
     44 N           2.2435  -13.8609  -42.4246 N.am      6 UNK        -0.5000 
     45 C           1.3173  -12.9114  -42.6218 C.2       5 UNK         0.5000 
     46 O           0.6487  -12.4073  -41.7186 O.2       5 UNK        -0.5000 
     47 CA          1.0799  -12.4660  -44.0782 C.3       5 UNK         0.1400 
     48 CB          2.0613  -11.3562  -44.4847 C.3       5 UNK        -0.1800 
     49 N           1.1840  -13.5809  -45.0189 N.am      5 UNK        -0.5000 
     50 C           0.3322  -14.6140  -45.0575 C.2       4 UNK         0.5000 
     51 O          -0.6938  -14.6686  -44.3828 O.2       4 UNK        -0.5000 
     52 CA          0.7031  -15.7960  -45.9697 C.3       4 UNK         0.1400 
     53 CB          0.1065  -15.6160  -47.3710 C.3       4 UNK        -0.1800 
     54 N           2.1496  -16.0003  -46.0596 N.am      4 UNK        -0.5000 
     55 C           2.8886  -16.5274  -45.0730 C.2       3 UNK         0.5000 
     56 O           2.4197  -16.9055  -44.0007 O.2       3 UNK        -0.5000 
     57 CA          4.4104  -16.5978  -45.2974 C.3       3 UNK         0.1400 
     58 CB          4.7973  -17.8625  -46.0759 C.3       3 UNK        -0.1800 
     59 N           4.9317  -15.4225  -45.9944 N.am      3 UNK        -0.5000 
     60 C           4.9704  -14.1911  -45.4679 C.2       2 UNK         0.5000 
     61 O           4.6034  -13.9263  -44.3235 O.2       2 UNK        -0.5000 
     62 CA          5.4501  -13.0605  -46.3981 C.3       2 UNK         0.1400 
     63 CB          6.9817  -12.9507  -46.3722 C.3       2 UNK        -0.1800 
     64 N           4.9948  -13.2129  -47.7855 N.am      2 UNK        -0.5000 
     65 C           3.7080  -13.2208  -48.1583 C.2       1 UNK         0.5000 
     66 O           2.7702  -13.1507  -47.3629 O.2       1 UNK        -0.5000 
     67 C          -0.5420  -21.9199  -47.2193 C.2       11 UNK         0.5000 
     68 O          -0.1351  -22.7280  -48.0555 O.2       11 UNK        -0.5000 
     69 N          -1.8403  -21.6520  -47.0251 N.am      12 UNK        -0.5000 
     70 CA         -2.9461  -22.2445  -47.7758 C.3       12 UNK         0.1400 
     71 CB         -4.2620  -21.5990  -47.3343 C.3       12 UNK        -0.1800 
     72 C          -3.0384  -23.7733  -47.6527 C.2       12 UNK         0.5000 
     73 O          -3.4232  -24.4217  -48.6220 O.2       12 UNK        -0.5000 
     74 N          -2.6511  -24.3315  -46.4983 N.am      13 UNK        -0.5000 
     75 CA         -2.5615  -25.7762  -46.2743 C.3       13 UNK         0.1400 
     76 CB         -2.2700  -26.0477  -44.7907 C.3       13 UNK        -0.1800 
     77 C          -1.5161  -26.4740  -47.1690 C.2       13 UNK         0.5000 
     78 O          -1.6849  -27.6542  -47.4788 O.2       13 UNK        -0.5000 
     79 N          -0.4710  -25.7402  -47.5751 N.am      14 UNK        -0.5000 
     80 CA          0.5573  -26.2109  -48.4982 C.3       14 UNK         0.1400 
     81 CB          1.9093  -25.5864  -48.1160 C.3       14 UNK        -0.1800 
     82 C           0.1943  -25.8842  -49.9569 C.2       14 UNK         0.5000 
     83 O           0.2896  -26.7629  -50.8146 O.2       14 UNK        -0.5000 
     84 N          -0.1909  -24.6270  -50.2187 N.am      15 UNK        -0.5000 
     85 CA         -0.4232  -24.1061  -51.5683 C.3       15 UNK         0.1400 
     86 CB         -0.3061  -22.5773  -51.5442 C.3       15 UNK        -0.1800 
     87 C          -1.7620  -24.5363  -52.1947 C.2       15 UNK         0.5000 
     88 O          -1.8333  -24.6751  -53.4163 O.2       15 UNK        -0.5000 
     89 N          -2.7902  -24.7414  -51.3609 N.am      16 UNK        -0.5000 
     90 CA         -4.1525  -25.1394  -51.7207 C.3       16 UNK         0.1400 
     91 CB         -4.1632  -26.6039  -52.2156 C.3       16 UNK        -0.1800 
     92 C          -4.8422  -24.1429  -52.6807 C.2       16 UNK         0.5000 
     93 O          -4.6110  -22.9319  -52.5953 O.2       16 UNK        -0.5000 
     94 N          -5.6950  -24.6683  -53.5705 N.am      17 UNK        -0.5000 
     95 CA         -6.5069  -23.9210  -54.5326 C.3       17 UNK         0.1400 
     96 CB         -7.4734  -24.8912  -55.2276 C.3       17 UNK        -0.1800 
     97 C          -5.6960  -23.1283  -55.5754 C.2       17 UNK         0.5000 
     98 O          -6.2286  -22.1734  -56.1407 O.2       17 UNK        -0.5000 
     99 N          -4.4196  -23.4866  -55.7810 N.am      18 UNK        -0.5000 
    100 CA        -3.4817  -22.7648  -56.6470 C.3       18 UNK         0.1400 
    101 CB        -2.1928  -23.5854  -56.8007 C.3       18 UNK        -0.1800 
    102 C         -3.1636  -21.3387  -56.1503 C.2       18 UNK         0.5000 
    103 O         -2.8183  -20.4827  -56.9654 O.2       18 UNK        -0.5000 
    104 N         -3.3217  -21.1023  -54.8404 N.am      19 UNK        -0.5000 
    105 CA        -3.2380  -19.7871  -54.2034 C.3       19 UNK         0.1400 
    106 CB        -2.1813  -19.8415  -53.0904 C.3       19 UNK        -0.1800 
    107 C         -4.6135  -19.3356  -53.6696 C.2       19 UNK         0.5000 
    108 O         -4.6735  -18.4621  -52.8056 O.2       19 UNK        -0.5000 
    109 N         -5.6963  -19.9467  -54.1753 N.am      20 UNK        -0.5000 
    110 CA        -7.1049  -19.7076  -53.8368 C.3       20 UNK         0.1400 
    111 CB        -7.5210  -18.2663  -54.1990 C.3       20 UNK        -0.1800 
    112 C         -7.5005  -20.0875  -52.3918 C.2       20 UNK         0.5000 
    113 O         -8.5943  -19.7204  -51.9606 O.2       20 UNK        -0.5000 
    114 N         -6.6353  -20.8389  -51.6902 N.am      21 UNK        -0.5000 
    115 CA        -6.8048  -21.3747  -50.3353 C.3       21 UNK         0.1400 
    116 CB        -7.7828  -22.5667  -50.3633 C.3       21 UNK        -0.1800 
    117 C         -7.1925  -20.2996  -49.2928 C.2       21 UNK         0.5000 
    118 O         -8.2566  -20.3856  -48.6781 O.2       21 UNK        -0.5000 
    119 N         -6.3233  -19.2928  -49.1342 N.am      22 UNK        -0.5000 
    120 CA        -6.5241  -18.0997  -48.2873 C.3       22 UNK         0.1400 
    121 C         -6.6473  -18.3108  -46.7443 C.2       22 UNK         0.5000 
    122 N         -6.5383  -19.5200  -46.2124 N.am      22 UNK        -0.7600 
    123 O         -6.8770  -17.3523  -46.0120 O.2       22 UNK        -0.5000 
    124 C124       -5.5225  -16.9699  -48.6477 C.3       23 UNK        -0.0398 
    125 S125       -3.7592  -17.3724  -48.3594 S.3       23 UNK        -0.2404 
    126 C126       -3.2040  -17.7114  -50.0570 C.3       23 UNK        -0.0205 
    127 H127        3.8636  -10.3252  -48.7167 H         1 UNK         0.0600 
    128 H128        3.6251   -9.3356  -50.1532 H         1 UNK         0.0600 
    129 H129        4.5340  -10.8322  -50.2786 H         1 UNK         0.0600 
    130 H130        1.4521  -12.8849  -50.2510 H         1 UNK         0.3000 
    131 H131        4.3046  -13.1104  -50.2301 H         1 UNK         0.0600 
    132 H132        3.8642  -15.4960  -49.6900 H         1 UNK         0.0800 
    133 H133        2.1846  -15.1555  -49.3864 H         1 UNK         0.0800 
    134 H134        0.4509  -14.3857  -51.3343 H         1 UNK         0.0800 
    135 H135        0.5568  -15.3352  -52.7934 H         1 UNK         0.0800 
    136 H136       -1.7030  -15.7333  -51.1676 H         1 UNK         0.1150 
    137 H137       -1.3644  -19.5638  -49.2838 H         1 UNK         0.1150 
    138 H138        2.1418  -17.5960  -50.7417 H         1 UNK         0.1150 
    139 H139        0.7771  -20.7578  -49.4547 H         1 UNK         0.0800 
    140 H140        2.1550  -20.0007  -50.1920 H         1 UNK         0.0800 
    141 H141        0.9311  -19.1300  -45.8194 H         1 UNK         0.0800 
    142 H142       -0.2215  -19.2556  -47.1037 H         1 UNK         0.0800 
    143 H143        1.4112  -21.7277  -46.3790 H         1 UNK         0.0600 
    144 H144       -0.2619  -20.4945  -44.4165 H         1 UNK         0.3000 
    145 H145       -0.8649  -23.4815  -42.5464 H         1 UNK         0.0600 
    146 H146        0.0776  -21.9822  -40.7671 H         1 UNK         0.0600 
    147 H147        1.3359  -22.7122  -41.7529 H         1 UNK         0.0600 
    148 H148        0.8941  -21.0327  -42.0115 H         1 UNK         0.0600 
    149 H149       -1.6098  -20.7014  -42.2735 H         1 UNK         0.3000 
    150 H150       -4.7335  -20.9958  -43.9708 H         1 UNK         0.0600 
    151 H151       -5.1697  -22.0061  -41.7271 H         1 UNK         0.0600 
    152 H152       -5.6201  -20.3091  -41.7652 H         1 UNK         0.0600 
    153 H153       -4.1252  -20.8078  -40.9724 H         1 UNK         0.0600 
    154 H154       -3.6416  -18.8651  -42.4577 H         1 UNK         0.3000 
    155 H155       -1.8177  -17.3037  -45.1048 H         1 UNK         0.0600 
    156 H156       -3.3254  -15.4741  -44.4089 H         1 UNK         0.0600 
    157 H157       -4.3655  -16.6132  -43.5538 H         1 UNK         0.0600 
    158 H158       -4.2202  -16.6876  -45.3051 H         1 UNK         0.0600 
    159 H159       -2.0554  -16.4062  -42.4935 H         1 UNK         0.3000 
    160 H160       -0.8279  -16.9230  -40.6984 H         1 UNK         0.0600 
    161 H161        1.4573  -18.9470  -40.9715 H         1 UNK         0.0600 
    162 H162       -0.1396  -19.3287  -40.3293 H         1 UNK         0.0600 
    163 H163        0.8942  -18.1892  -39.4857 H         1 UNK         0.0600 
    164 H164        1.4374  -16.4262  -42.4809 H         1 UNK         0.3000 
    165 H165        2.6104  -13.6971  -40.3873 H         1 UNK         0.0600 
    166 H166        3.8853  -16.0070  -41.9428 H         1 UNK         0.0600 
    167 H167        4.6863  -14.5201  -41.4450 H         1 UNK         0.0600 
    168 H168        4.1249  -15.6645  -40.2352 H         1 UNK         0.0600 
    169 H169        2.7947  -14.1727  -43.2153 H         1 UNK         0.3000 
    170 H170        0.0670  -12.0633  -44.1440 H         1 UNK         0.0600 
    171 H171        1.8763  -11.0201  -45.5052 H         1 UNK         0.0600 
    172 H172        1.9597  -10.4889  -43.8315 H         1 UNK         0.0600 
    173 H173        3.0967  -11.6907  -44.4256 H         1 UNK         0.0600 
    174 H174        1.9534  -13.5553  -45.6816 H         1 UNK         0.3000 
    175 H175        0.2735  -16.6994  -45.5363 H         1 UNK         0.0600 
    176 H176        0.3658  -16.4548  -48.0151 H         1 UNK         0.0600 
    177 H177       -0.9824  -15.5697  -47.3267 H         1 UNK         0.0600 
    178 H178        0.4535  -14.6980  -47.8455 H         1 UNK         0.0600 
    179 H179        2.6105  -15.6602  -46.8886 H         1 UNK         0.3000 
    180 H180        4.8840  -16.6493  -44.3145 H         1 UNK         0.0600 
    181 H181        4.4365  -17.8275  -47.1041 H         1 UNK         0.0600 
    182 H182        4.3784  -18.7549  -45.6087 H         1 UNK         0.0600 
    183 H183        5.8795  -17.9895  -46.1063 H         1 UNK         0.0600 
    184 H184        5.2623  -15.5562  -46.9382 H         1 UNK         0.3000 
    185 H185        5.0372  -12.1250  -46.0151 H         1 UNK         0.0600 
    186 H186        7.3256  -12.0941  -46.9523 H         1 UNK         0.0600 
    187 H187        7.3461  -12.8178  -45.3526 H         1 UNK         0.0600 
    188 H188        7.4578  -13.8445  -46.7772 H         1 UNK         0.0600 
    189 H189        5.7172  -13.2825  -48.4883 H         1 UNK         0.3000 
    190 H190       -2.1030  -20.9547  -46.3292 H         1 UNK         0.3000 
    191 H191       -2.7896  -22.0118  -48.8312 H         1 UNK         0.0600 
    192 H192       -5.1141  -22.0537  -47.8380 H         1 UNK         0.0600 
    193 H193       -4.2621  -20.5334  -47.5628 H         1 UNK         0.0600 
    194 H194       -4.4198  -21.7145  -46.2621 H         1 UNK         0.0600 
    195 H195       -2.4249  -23.7315  -45.7129 H         1 UNK         0.3000 
    196 H196       -3.5349  -26.2099  -46.5126 H         1 UNK         0.0600 
    197 H197       -2.2058  -27.1186  -44.5937 H         1 UNK         0.0600 
    198 H198       -3.0599  -25.6492  -44.1541 H         1 UNK         0.0600 
    199 H199       -1.3273  -25.5992  -44.4771 H         1 UNK         0.0600 
    200 H200       -0.4212  -24.7669  -47.3004 H         1 UNK         0.3000 
    201 H201        0.6611  -27.2948  -48.4128 H         1 UNK         0.0600 
    202 H202        2.1935  -25.8588  -47.0994 H         1 UNK         0.0600 
    203 H203        1.8891  -24.4978  -48.1745 H         1 UNK         0.0600 
    204 H204        2.7010  -25.9356  -48.7800 H         1 UNK         0.0600 
    205 H205       -0.2214  -23.9549  -49.4557 H         1 UNK         0.3000 
    206 H206        0.3688  -24.4839  -52.2186 H         1 UNK         0.0600 
    207 H207        0.6899  -22.2701  -51.2275 H         1 UNK         0.0600 
    208 H208       -0.4663  -22.1650  -52.5400 H         1 UNK         0.0600 
    209 H209       -1.0348  -22.1236  -50.8713 H         1 UNK         0.0600 
    210 H210       -2.6546  -24.5844  -50.3670 H         1 UNK         0.3000 
    211 H211       -4.7331  -25.1038  -50.7987 H         1 UNK         0.0600 
    212 H212       -3.6852  -26.7089  -53.1904 H         1 UNK         0.0600 
    213 H213       -5.1785  -26.9936  -52.2950 H         1 UNK         0.0600 
    214 H214       -3.6325  -27.2524  -51.5181 H         1 UNK         0.0600 
    215 H215       -5.8135  -25.6711  -53.5770 H         1 UNK         0.3000 
    216 H216       -7.0981  -23.1963  -53.9687 H         1 UNK         0.0600 
    217 H217       -6.9383  -25.6603  -55.7861 H         1 UNK         0.0600 
    218 H218       -8.1213  -25.3884  -54.5055 H         1 UNK         0.0600 
    219 H219       -8.1195  -24.3642  -55.9311 H         1 UNK         0.0600 
    220 H220       -4.0446  -24.2639  -55.2557 H         1 UNK         0.3000 
    221 H221       -3.9440  -22.6723  -57.6320 H         1 UNK         0.0600 
    222 H222       -2.4020  -24.5866  -57.1778 H         1 UNK         0.0600 
    223 H223       -1.5105  -23.1088  -57.5057 H         1 UNK         0.0600 
    224 H224       -1.6637  -23.6852  -55.8532 H         1 UNK         0.0600 
    225 H225       -3.6113  -21.8661  -54.2392 H         1 UNK         0.3000 
    226 H226       -2.9240  -19.0302  -54.9244 H         1 UNK         0.0600 
    227 H227       -1.2178  -20.1661  -53.4815 H         1 UNK         0.0600 
    228 H228       -2.0272  -18.8546  -52.6566 H         1 UNK         0.0600 
    229 H229       -2.4734  -20.5193  -52.2875 H         1 UNK         0.0600 
    230 H230       -5.5507  -20.6452  -54.8951 H         1 UNK         0.3000 
    231 H231       -7.6766  -20.3782  -54.4797 H         1 UNK         0.0600 
    232 H232       -8.6010  -18.1378  -54.1190 H         1 UNK         0.0600 
    233 H233       -7.2434  -18.0214  -55.2242 H         1 UNK         0.0600 
    234 H234       -7.0575  -17.5317  -53.5401 H         1 UNK         0.0600 
    235 H235       -5.7783  -21.1170  -52.1530 H         1 UNK         0.3000 
    236 H236       -5.8285  -21.7620  -50.0424 H         1 UNK         0.0600 
    237 H237       -7.4481  -23.3347  -51.0605 H         1 UNK         0.0600 
    238 H238       -7.8595  -23.0325  -49.3802 H         1 UNK         0.0600 
    239 H239       -8.7859  -22.2597  -50.6613 H         1 UNK         0.0600 
    240 H240       -5.4793  -19.2944  -49.6859 H         1 UNK         0.3000 
    241 H241       -7.5085  -17.7208  -48.5686 H         1 UNK         0.0600 
    242 H242       -6.6480  -19.6281  -45.2179 H         1 UNK         0.3800 
    243 H243       -6.4146  -20.3250  -46.8013 H         1 UNK         0.3800 
    244 H244       -5.6656  -16.6854  -49.6906 H         1 UNK         0.0800 
    245 H245       -5.7525  -16.0662  -48.0809 H         1 UNK         0.0800 
    246 H246       -3.6621  -16.9992  -50.7447 H         1 UNK         0.0800 
    247 H247       -3.5542  -18.6988  -50.3585 H         1 UNK         0.0800 
@<TRIPOS>BOND
     1    1    2 1    
     2    1  127 1    
     3    1  128 1    
     4    1  129 1    
     5    2    3 2    
     6    2    4 am   BACKBONE|DICT|INTERRES
     7    4    5 1    
     8    4  130 1    
     9    5    6 1    
    10    5   65 1    
    11    5  131 1    
    12    6    7 1    
    13    6  132 1    
    14    6  133 1    
    15    7    8 1    
    16    8    9 1    
    17    8  134 1    
    18    8  135 1    
    19    9   10 ar   
    20    9   14 ar   
    21   10   11 ar   
    22   10  136 1    
    23   11   12 ar   
    24   11  126 1    
    25   12   13 ar   
    26   12  137 1    
    27   13   14 ar   
    28   13   15 1    
    29   14  138 1    
    30   15   16 1    
    31   15  139 1    
    32   15  140 1    
    33   16   17 1    
    34   17   18 1    
    35   17  141 1    
    36   17  142 1    
    37   18   19 1    
    38   18   67 1    
    39   18  143 1    
    40   19   20 am   BACKBONE|DICT|INTERRES
    41   19  144 1    
    42   20   21 2    
    43   20   22 1    
    44   22   23 1    
    45   22   24 1    
    46   22  145 1    
    47   23  146 1    
    48   23  147 1    
    49   23  148 1    
    50   24   25 am   BACKBONE|DICT|INTERRES
    51   24  149 1    
    52   25   26 2    
    53   25   27 1    
    54   27   28 1    
    55   27   29 1    
    56   27  150 1    
    57   28  151 1    
    58   28  152 1    
    59   28  153 1    
    60   29   30 am   BACKBONE|DICT|INTERRES
    61   29  154 1    
    62   30   31 2    
    63   30   32 1    
    64   32   33 1    
    65   32   34 1    
    66   32  155 1    
    67   33  156 1    
    68   33  157 1    
    69   33  158 1    
    70   34   35 am   BACKBONE|DICT|INTERRES
    71   34  159 1    
    72   35   36 2    
    73   35   37 1    
    74   37   38 1    
    75   37   39 1    
    76   37  160 1    
    77   38  161 1    
    78   38  162 1    
    79   38  163 1    
    80   39   40 am   BACKBONE|DICT|INTERRES
    81   39  164 1    
    82   40   41 2    
    83   40   42 1    
    84   42   43 1    
    85   42   44 1    
    86   42  165 1    
    87   43  166 1    
    88   43  167 1    
    89   43  168 1    
    90   44   45 am   BACKBONE|DICT|INTERRES
    91   44  169 1    
    92   45   46 2    
    93   45   47 1    
    94   47   48 1    
    95   47   49 1    
    96   47  170 1    
    97   48  171 1    
    98   48  172 1    
    99   48  173 1    
   100   49   50 am   BACKBONE|DICT|INTERRES
   101   49  174 1    
   102   50   51 2    
   103   50   52 1    
   104   52   53 1    
   105   52   54 1    
   106   52  175 1    
   107   53  176 1    
   108   53  177 1    
   109   53  178 1    
   110   54   55 am   BACKBONE|DICT|INTERRES
   111   54  179 1    
   112   55   56 2    
   113   55   57 1    
   114   57   58 1    
   115   57   59 1    
   116   57  180 1    
   117   58  181 1    
   118   58  182 1    
   119   58  183 1    
   120   59   60 am   BACKBONE|DICT|INTERRES
   121   59  184 1    
   122   60   61 2    
   123   60   62 1    
   124   62   63 1    
   125   62   64 1    
   126   62  185 1    
   127   63  186 1    
   128   63  187 1    
   129   63  188 1    
   130   64   65 am   BACKBONE|DICT|INTERRES
   131   64  189 1    
   132   65   66 2    
   133   67   68 2    
   134   67   69 am   BACKBONE|DICT|INTERRES
   135   69   70 1    
   136   69  190 1    
   137   70   71 1    
   138   70   72 1    
   139   70  191 1    
   140   71  192 1    
   141   71  193 1    
   142   71  194 1    
   143   72   73 2    
   144   72   74 am   BACKBONE|DICT|INTERRES
   145   74   75 1    
   146   74  195 1    
   147   75   76 1    
   148   75   77 1    
   149   75  196 1    
   150   76  197 1    
   151   76  198 1    
   152   76  199 1    
   153   77   78 2    
   154   77   79 am   BACKBONE|DICT|INTERRES
   155   79   80 1    
   156   79  200 1    
   157   80   81 1    
   158   80   82 1    
   159   80  201 1    
   160   81  202 1    
   161   81  203 1    
   162   81  204 1    
   163   82   83 2    
   164   82   84 am   BACKBONE|DICT|INTERRES
   165   84   85 1    
   166   84  205 1    
   167   85   86 1    
   168   85   87 1    
   169   85  206 1    
   170   86  207 1    
   171   86  208 1    
   172   86  209 1    
   173   87   88 2    
   174   87   89 am   BACKBONE|DICT|INTERRES
   175   89   90 1    
   176   89  210 1    
   177   90   91 1    
   178   90   92 1    
   179   90  211 1    
   180   91  212 1    
   181   91  213 1    
   182   91  214 1    
   183   92   93 2    
   184   92   94 am   BACKBONE|DICT|INTERRES
   185   94   95 1    
   186   94  215 1    
   187   95   96 1    
   188   95   97 1    
   189   95  216 1    
   190   96  217 1    
   191   96  218 1    
   192   96  219 1    
   193   97   98 2    
   194   97   99 am   BACKBONE|DICT|INTERRES
   195   99  100 1    
   196   99  220 1    
   197  100  101 1    
   198  100  102 1    
   199  100  221 1    
   200  101  222 1    
   201  101  223 1    
   202  101  224 1    
   203  102  103 2    
   204  102  104 am   BACKBONE|DICT|INTERRES
   205  104  105 1    
   206  104  225 1    
   207  105  106 1    
   208  105  107 1    
   209  105  226 1    
   210  106  227 1    
   211  106  228 1    
   212  106  229 1    
   213  107  108 2    
   214  107  109 am   BACKBONE|DICT|INTERRES
   215  109  110 1    
   216  109  230 1    
   217  110  111 1    
   218  110  112 1    
   219  110  231 1    
   220  111  232 1    
   221  111  233 1    
   222  111  234 1    
   223  112  113 2    
   224  112  114 am   BACKBONE|DICT|INTERRES
   225  114  115 1    
   226  114  235 1    
   227  115  116 1    
   228  115  117 1    
   229  115  236 1    
   230  116  237 1    
   231  116  238 1    
   232  116  239 1    
   233  117  118 2    
   234  117  119 am   BACKBONE|DICT|INTERRES
   235  119  120 1    
   236  119  240 1    
   237  120  121 1    
   238  120  124 1    
   239  120  241 1    
   240  121  122 am   BACKBONE|DICT|INTERRES
   241  121  123 2    
   242  122  242 1    
   243  122  243 1    
   244  124  125 1    
   245  124  244 1    
   246  124  245 1    
   247  125  126 1    
   248  126  246 1    
   249  126  247 1    
@<TRIPOS>SUBSTRUCTURE
     1 UNK         1 GROUP             0       ****    0 ROOT    
