@<TRIPOS>MOLECULE
3R540
247   249    1
SMALL
USER_CHARGES


@<TRIPOS>ATOM
      1 CA         -0.3268  -15.5921  -51.6053 C.3       0 UNK        -0.1800 
      2 C          -0.1842  -15.6900  -50.0941 C.2       0 UNK         0.5000 
      3 O          -0.8032  -16.5581  -49.4838 O.2       0 UNK        -0.5000 
      4 N           0.6131  -14.7855  -49.5037 N.am      1 UNK        -0.5000 
      5 CA          1.0033  -14.6779  -48.0841 C.3       1 UNK         0.1400 
      6 C6          2.2128  -15.5785  -47.6848 C.3       23 UNK        -0.0398 
      7 S7          1.9662  -17.3849  -47.7985 S.3       23 UNK        -0.2404 
      8 C8          2.8248  -17.7644  -49.3600 C.3       23 UNK        -0.0205 
      9 C9          2.4242  -19.1163  -49.9402 C.ar      23 UNK        -0.0193 
     10 C10         1.2038  -19.2536  -50.6060 C.ar      23 UNK        -0.1150 
     11 C11         0.8483  -20.4564  -51.2260 C.ar      23 UNK        -0.0193 
     12 C12         1.7271  -21.5399  -51.1534 C.ar      23 UNK        -0.1150 
     13 C13         2.9449  -21.4281  -50.4752 C.ar      23 UNK        -0.0193 
     14 C14         3.2880  -20.2134  -49.8694 C.ar      23 UNK        -0.1150 
     15 C15         3.9049  -22.6104  -50.4310 C.3       23 UNK        -0.0205 
     16 S16         3.2255  -24.0469  -49.5373 S.3       23 UNK        -0.2404 
     17 C17         3.0995  -23.3945  -47.8383 C.3       23 UNK        -0.0398 
     18 CA          1.7801  -23.7709  -47.1219 C.3       11 UNK         0.1400 
     19 N           1.8877  -23.4873  -45.6906 N.am      11 UNK        -0.5000 
     20 C           0.9304  -23.6356  -44.7665 C.2       10 UNK         0.5000 
     21 O          -0.1399  -24.2038  -44.9810 O.2       10 UNK        -0.5000 
     22 CA          1.1825  -22.9847  -43.3905 C.3       10 UNK         0.1400 
     23 CB          1.4347  -24.0598  -42.3236 C.3       10 UNK        -0.1800 
     24 N           2.2827  -22.0117  -43.3517 N.am      10 UNK        -0.5000 
     25 C           2.4018  -20.9013  -44.0940 C.2       9 UNK         0.5000 
     26 O           1.6090  -20.5849  -44.9832 O.2       9 UNK        -0.5000 
     27 CA          3.6245  -20.0172  -43.7843 C.3       9 UNK         0.1400 
     28 CB          3.8141  -18.8831  -44.8081 C.3       9 UNK        -0.1800 
     29 N           3.5190  -19.4394  -42.4469 N.am      9 UNK        -0.5000 
     30 C           3.7904  -20.0665  -41.2945 C.2       8 UNK         0.5000 
     31 O           4.2059  -21.2246  -41.2311 O.2       8 UNK        -0.5000 
     32 CA          3.5118  -19.2813  -40.0032 C.3       8 UNK         0.1400 
     33 CB          4.5804  -18.1996  -39.7787 C.3       8 UNK        -0.1800 
     34 N           2.1933  -18.6542  -40.0709 N.am      8 UNK        -0.5000 
     35 C           1.0765  -19.1550  -39.5250 C.2       7 UNK         0.5000 
     36 O           1.0526  -20.1568  -38.8091 O.2       7 UNK        -0.5000 
     37 CA         -0.2444  -18.4228  -39.8416 C.3       7 UNK         0.1400 
     38 CB         -0.5428  -17.3642  -38.7698 C.3       7 UNK        -0.1800 
     39 N          -0.2387  -17.7881  -41.1615 N.am      7 UNK        -0.5000 
     40 C          -0.2208  -18.4653  -42.3202 C.2       6 UNK         0.5000 
     41 O          -0.3417  -19.6885  -42.3845 O.2       6 UNK        -0.5000 
     42 CA         -0.0189  -17.6630  -43.6240 C.3       6 UNK         0.1400 
     43 CB         -1.3535  -17.5286  -44.3745 C.3       6 UNK        -0.1800 
     44 N           0.5649  -16.3287  -43.4556 N.am      6 UNK        -0.5000 
     45 C           1.7198  -16.0197  -42.8507 C.2       5 UNK         0.5000 
     46 O           2.4835  -16.8543  -42.3670 O.2       5 UNK        -0.5000 
     47 CA          2.0413  -14.5228  -42.6787 C.3       5 UNK         0.1400 
     48 CB          2.8930  -13.9995  -43.8439 C.3       5 UNK        -0.1800 
     49 N           0.8615  -13.6678  -42.5139 N.am      5 UNK        -0.5000 
     50 C          -0.0748  -13.7926  -41.5637 C.2       4 UNK         0.5000 
     51 O          -0.0734  -14.6987  -40.7293 O.2       4 UNK        -0.5000 
     52 CA         -1.2206  -12.7605  -41.5358 C.3       4 UNK         0.1400 
     53 CB         -0.9116  -11.6239  -40.5433 C.3       4 UNK        -0.1800 
     54 N          -1.6290  -12.2290  -42.8443 N.am      4 UNK        -0.5000 
     55 C          -0.9655  -11.4314  -43.6914 C.2       3 UNK         0.5000 
     56 O           0.1928  -11.0523  -43.5115 O.2       3 UNK        -0.5000 
     57 CA         -1.7214  -11.0415  -44.9792 C.3       3 UNK         0.1400 
     58 CB         -1.0265   -9.9050  -45.7502 C.3       3 UNK        -0.1800 
     59 N          -1.8734  -12.1870  -45.8751 N.am      3 UNK        -0.5000 
     60 C          -2.7035  -13.2237  -45.6987 C.2       2 UNK         0.5000 
     61 O          -3.5094  -13.2967  -44.7694 O.2       2 UNK        -0.5000 
     62 CA         -2.6164  -14.3773  -46.7174 C.3       2 UNK         0.1400 
     63 CB         -3.8200  -14.3504  -47.6718 C.3       2 UNK        -0.1800 
     64 N          -1.3868  -14.3860  -47.5146 N.am      2 UNK        -0.5000 
     65 C          -0.1569  -14.6554  -47.0539 C.2       1 UNK         0.5000 
     66 O           0.0804  -14.8148  -45.8574 O.2       1 UNK        -0.5000 
     67 C           0.5475  -23.0932  -47.7691 C.2       11 UNK         0.5000 
     68 O          -0.1320  -23.7324  -48.5706 O.2       11 UNK        -0.5000 
     69 N           0.2289  -21.8542  -47.3608 N.am      12 UNK        -0.5000 
     70 CA         -0.9559  -21.1255  -47.8216 C.3       12 UNK         0.1400 
     71 CB         -0.8803  -19.6645  -47.3664 C.3       12 UNK        -0.1800 
     72 C          -2.2834  -21.7542  -47.3686 C.2       12 UNK         0.5000 
     73 O          -3.2530  -21.7327  -48.1280 O.2       12 UNK        -0.5000 
     74 N          -2.3038  -22.3146  -46.1529 N.am      13 UNK        -0.5000 
     75 CA         -3.4535  -23.0312  -45.6051 C.3       13 UNK         0.1400 
     76 CB         -3.3224  -23.1299  -44.0773 C.3       13 UNK        -0.1800 
     77 C          -3.6047  -24.4225  -46.2434 C.2       13 UNK         0.5000 
     78 O          -4.7249  -24.8279  -46.5526 O.2       13 UNK        -0.5000 
     79 N          -2.4736  -25.1105  -46.4550 N.am      14 UNK        -0.5000 
     80 CA         -2.3964  -26.4241  -47.0940 C.3       14 UNK         0.1400 
     81 CB         -0.9759  -26.9865  -46.9324 C.3       14 UNK        -0.1800 
     82 C          -2.8077  -26.3926  -48.5775 C.2       14 UNK         0.5000 
     83 O          -3.5685  -27.2571  -49.0144 O.2       14 UNK        -0.5000 
     84 N          -2.3142  -25.3914  -49.3193 N.am      15 UNK        -0.5000 
     85 CA         -2.6418  -25.1672  -50.7285 C.3       15 UNK         0.1400 
     86 CB         -1.5864  -24.2381  -51.3498 C.3       15 UNK        -0.1800 
     87 C          -4.0468  -24.5738  -50.9379 C.2       15 UNK         0.5000 
     88 O          -4.6008  -24.7361  -52.0246 O.2       15 UNK        -0.5000 
     89 N          -4.5751  -23.8918  -49.9091 N.am      16 UNK        -0.5000 
     90 CA         -5.7899  -23.0729  -49.9050 C.3       16 UNK         0.1400 
     91 CB         -7.0486  -23.9112  -50.2125 C.3       16 UNK        -0.1800 
     92 C          -5.6154  -21.8683  -50.8467 C.2       16 UNK         0.5000 
     93 O          -6.2003  -21.8333  -51.9296 O.2       16 UNK        -0.5000 
     94 N          -4.7632  -20.9259  -50.4206 N.am      17 UNK        -0.5000 
     95 CA         -4.2464  -19.7799  -51.1782 C.3       17 UNK         0.1400 
     96 CB         -3.4973  -18.8406  -50.2205 C.3       17 UNK        -0.1800 
     97 C          -5.2700  -18.9855  -52.0108 C.2       17 UNK         0.5000 
     98 O          -4.9682  -18.6137  -53.1461 O.2       17 UNK        -0.5000 
     99 N          -6.4678  -18.7739  -51.4500 N.am      18 UNK        -0.5000 
    100 CA        -7.5807  -18.0782  -52.0996 C.3       18 UNK         0.1400 
    101 CB        -8.6806  -17.8157  -51.0598 C.3       18 UNK        -0.1800 
    102 C         -8.1585  -18.8272  -53.3180 C.2       18 UNK         0.5000 
    103 O         -8.6532  -18.1798  -54.2415 O.2       18 UNK        -0.5000 
    104 N         -8.0833  -20.1643  -53.3042 N.am      19 UNK        -0.5000 
    105 CA        -8.4936  -21.0312  -54.4076 C.3       19 UNK         0.1400 
    106 CB        -9.0639  -22.3406  -53.8394 C.3       19 UNK        -0.1800 
    107 C         -7.3173  -21.3188  -55.3558 C.2       19 UNK         0.5000 
    108 O         -7.5237  -21.3978  -56.5673 O.2       19 UNK        -0.5000 
    109 N         -6.1084  -21.4653  -54.7931 N.am      20 UNK        -0.5000 
    110 CA        -4.8690  -21.7324  -55.5258 C.3       20 UNK         0.1400 
    111 CB        -3.7547  -22.0891  -54.5299 C.3       20 UNK        -0.1800 
    112 C         -4.4203  -20.5624  -56.4202 C.2       20 UNK         0.5000 
    113 O         -3.8390  -20.8071  -57.4781 O.2       20 UNK        -0.5000 
    114 N         -4.6897  -19.3252  -55.9735 N.am      21 UNK        -0.5000 
    115 CA        -4.3123  -18.0550  -56.6046 C.3       21 UNK         0.1400 
    116 CB        -5.0410  -17.8658  -57.9514 C.3       21 UNK        -0.1800 
    117 C         -2.7808  -17.8820  -56.7048 C.2       21 UNK         0.5000 
    118 O         -2.2660  -17.3968  -57.7138 O.2       21 UNK        -0.5000 
    119 N         -2.0846  -18.2984  -55.6411 N.am      22 UNK        -0.5000 
    120 CA        -0.6219  -18.2475  -55.4802 C.3       22 UNK         0.1400 
    121 C         -0.0248  -16.8279  -55.2389 C.2       22 UNK         0.5000 
    122 N         -0.8262  -15.7887  -55.0378 N.am      22 UNK        -0.7600 
    123 O          1.1920  -16.6632  -55.2542 O.2       22 UNK        -0.5000 
    124 C124       -0.1405  -19.2713  -54.4155 C.3       23 UNK        -0.0398 
    125 S125       -1.0439  -19.1284  -52.8367 S.3       23 UNK        -0.2404 
    126 C126       -0.4914  -20.6174  -51.9402 C.3       23 UNK        -0.0205 
    127 H127        0.2694  -16.3671  -52.0866 H         1 UNK         0.0600 
    128 H128        0.0026  -14.6241  -51.9828 H         1 UNK         0.0600 
    129 H129       -1.3673  -15.7343  -51.8979 H         1 UNK         0.0600 
    130 H130        1.0483  -14.0944  -50.0987 H         1 UNK         0.3000 
    131 H131        1.3868  -13.6589  -48.0154 H         1 UNK         0.0600 
    132 H132        2.5248  -15.3596  -46.6633 H         1 UNK         0.0800 
    133 H133        3.0727  -15.3089  -48.2988 H         1 UNK         0.0800 
    134 H134        2.6008  -16.9903  -50.0951 H         1 UNK         0.0800 
    135 H135        3.9018  -17.7230  -49.1918 H         1 UNK         0.0800 
    136 H136        0.5295  -18.4134  -50.6462 H         1 UNK         0.1150 
    137 H137        1.4623  -22.4797  -51.6178 H         1 UNK         0.1150 
    138 H138        4.2361  -20.1143  -49.3600 H         1 UNK         0.1150 
    139 H139        4.1362  -22.9123  -51.4533 H         1 UNK         0.0800 
    140 H140        4.8546  -22.3250  -49.9758 H         1 UNK         0.0800 
    141 H141        3.2373  -22.3122  -47.8339 H         1 UNK         0.0800 
    142 H142        3.9473  -23.8022  -47.2860 H         1 UNK         0.0800 
    143 H143        1.6416  -24.8498  -47.2114 H         1 UNK         0.0600 
    144 H144        2.7226  -23.0026  -45.3991 H         1 UNK         0.3000 
    145 H145        0.2698  -22.4473  -43.1252 H         1 UNK         0.0600 
    146 H146        0.6186  -24.7833  -42.2948 H         1 UNK         0.0600 
    147 H147        2.3559  -24.6100  -42.5188 H         1 UNK         0.0600 
    148 H148        1.5103  -23.6184  -41.3296 H         1 UNK         0.0600 
    149 H149        2.9759  -22.1512  -42.6244 H         1 UNK         0.3000 
    150 H150        4.5112  -20.6529  -43.8285 H         1 UNK         0.0600 
    151 H151        4.7122  -18.3042  -44.5930 H         1 UNK         0.0600 
    152 H152        2.9695  -18.1942  -44.8149 H         1 UNK         0.0600 
    153 H153        3.9174  -19.2807  -45.8186 H         1 UNK         0.0600 
    154 H154        3.1622  -18.4863  -42.4075 H         1 UNK         0.3000 
    155 H155        3.5588  -19.9797  -39.1650 H         1 UNK         0.0600 
    156 H156        5.5769  -18.6403  -39.7297 H         1 UNK         0.0600 
    157 H157        4.4117  -17.6716  -38.8401 H         1 UNK         0.0600 
    158 H158        4.5868  -17.4600  -40.5804 H         1 UNK         0.0600 
    159 H159        2.1129  -17.8541  -40.6892 H         1 UNK         0.3000 
    160 H160       -1.0479  -19.1620  -39.8233 H         1 UNK         0.0600 
    161 H161       -0.6085  -17.8184  -37.7803 H         1 UNK         0.0600 
    162 H162       -1.4917  -16.8632  -38.9622 H         1 UNK         0.0600 
    163 H163        0.2364  -16.6020  -38.7300 H         1 UNK         0.0600 
    164 H164       -0.1500  -16.7778  -41.1789 H         1 UNK         0.3000 
    165 H165        0.6630  -18.2370  -44.2510 H         1 UNK         0.0600 
    166 H166       -1.1957  -17.1609  -45.3880 H         1 UNK         0.0600 
    167 H167       -1.8586  -18.4917  -44.4609 H         1 UNK         0.0600 
    168 H168       -2.0340  -16.8443  -43.8666 H         1 UNK         0.0600 
    169 H169        0.0729  -15.5721  -43.9167 H         1 UNK         0.3000 
    170 H170        2.6326  -14.4327  -41.7654 H         1 UNK         0.0600 
    171 H171        3.2814  -13.0041  -43.6278 H         1 UNK         0.0600 
    172 H172        3.7491  -14.6493  -44.0307 H         1 UNK         0.0600 
    173 H173        2.3174  -13.9360  -44.7661 H         1 UNK         0.0600 
    174 H174        0.7895  -12.8623  -43.1269 H         1 UNK         0.3000 
    175 H175       -2.0952  -13.2918  -41.1571 H         1 UNK         0.0600 
    176 H176       -0.0299  -11.0537  -40.8370 H         1 UNK         0.0600 
    177 H177       -1.7493  -10.9310  -40.4634 H         1 UNK         0.0600 
    178 H178       -0.7226  -12.0211  -39.5452 H         1 UNK         0.0600 
    179 H179       -2.5324  -12.5591  -43.1709 H         1 UNK         0.3000 
    180 H180       -2.7128  -10.6887  -44.6872 H         1 UNK         0.0600 
    181 H181       -1.6142   -9.5999  -46.6162 H         1 UNK         0.0600 
    182 H182       -0.0378  -10.2007  -46.1037 H         1 UNK         0.0600 
    183 H183       -0.9005   -9.0249  -45.1184 H         1 UNK         0.0600 
    184 H184       -1.2347  -12.2322  -46.6546 H         1 UNK         0.3000 
    185 H185       -2.6542  -15.3093  -46.1505 H         1 UNK         0.0600 
    186 H186       -3.8280  -13.4473  -48.2833 H         1 UNK         0.0600 
    187 H187       -3.8102  -15.2108  -48.3417 H         1 UNK         0.0600 
    188 H188       -4.7598  -14.3818  -47.1189 H         1 UNK         0.0600 
    189 H189       -1.4974  -14.2823  -48.5124 H         1 UNK         0.3000 
    190 H190        0.8021  -21.3949  -46.6590 H         1 UNK         0.3000 
    191 H191       -0.9545  -21.1389  -48.9118 H         1 UNK         0.0600 
    192 H192       -0.5942  -19.5791  -46.3185 H         1 UNK         0.0600 
    193 H193       -1.8319  -19.1468  -47.4937 H         1 UNK         0.0600 
    194 H194       -0.1506  -19.1267  -47.9646 H         1 UNK         0.0600 
    195 H195       -1.4509  -22.3375  -45.6128 H         1 UNK         0.3000 
    196 H196       -4.3573  -22.4595  -45.8276 H         1 UNK         0.0600 
    197 H197       -4.1975  -23.6155  -43.6441 H         1 UNK         0.0600 
    198 H198       -3.2412  -22.1416  -43.6242 H         1 UNK         0.0600 
    199 H199       -2.4479  -23.7077  -43.7781 H         1 UNK         0.0600 
    200 H200       -1.5998  -24.7173  -46.1163 H         1 UNK         0.3000 
    201 H201       -3.0857  -27.0898  -46.5705 H         1 UNK         0.0600 
    202 H202       -0.6952  -27.0545  -45.8811 H         1 UNK         0.0600 
    203 H203       -0.2370  -26.3632  -47.4359 H         1 UNK         0.0600 
    204 H204       -0.9028  -27.9890  -47.3556 H         1 UNK         0.0600 
    205 H205       -1.6374  -24.7519  -48.9070 H         1 UNK         0.3000 
    206 H206       -2.6030  -26.1250  -51.2515 H         1 UNK         0.0600 
    207 H207       -1.7826  -24.0718  -52.4099 H         1 UNK         0.0600 
    208 H208       -1.5782  -23.2639  -50.8603 H         1 UNK         0.0600 
    209 H209       -0.5858  -24.6625  -51.2654 H         1 UNK         0.0600 
    210 H210       -4.0084  -23.8113  -49.0760 H         1 UNK         0.3000 
    211 H211       -5.8977  -22.6810  -48.8924 H         1 UNK         0.0600 
    212 H212       -7.0451  -24.3103  -51.2269 H         1 UNK         0.0600 
    213 H213       -7.9490  -23.3049  -50.1093 H         1 UNK         0.0600 
    214 H214       -7.1388  -24.7502  -49.5227 H         1 UNK         0.0600 
    215 H215       -4.3030  -21.0970  -49.5288 H         1 UNK         0.3000 
    216 H216       -3.5248  -20.1896  -51.8815 H         1 UNK         0.0600 
    217 H217       -3.1197  -17.9602  -50.7429 H         1 UNK         0.0600 
    218 H218       -2.6356  -19.3377  -49.7777 H         1 UNK         0.0600 
    219 H219       -4.1386  -18.4926  -49.4102 H         1 UNK         0.0600 
    220 H220       -6.6325  -19.1320  -50.5207 H         1 UNK         0.3000 
    221 H221       -7.2102  -17.1141  -52.4546 H         1 UNK         0.0600 
    222 H222       -9.0743  -18.7457  -50.6476 H         1 UNK         0.0600 
    223 H223       -8.3062  -17.2124  -50.2325 H         1 UNK         0.0600 
    224 H224       -9.5166  -17.2733  -51.5035 H         1 UNK         0.0600 
    225 H225       -7.5946  -20.6204  -52.5403 H         1 UNK         0.3000 
    226 H226       -9.2825  -20.5459  -54.9862 H         1 UNK         0.0600 
    227 H227       -9.9186  -22.1485  -53.1907 H         1 UNK         0.0600 
    228 H228       -9.4046  -22.9968  -54.6412 H         1 UNK         0.0600 
    229 H229       -8.3211  -22.8901  -53.2599 H         1 UNK         0.0600 
    230 H230       -6.0471  -21.4551  -53.7788 H         1 UNK         0.3000 
    231 H231       -5.0421  -22.5978  -56.1687 H         1 UNK         0.0600 
    232 H232       -3.5062  -21.2457  -53.8877 H         1 UNK         0.0600 
    233 H233       -4.0452  -22.9235  -53.8929 H         1 UNK         0.0600 
    234 H234       -2.8425  -22.3799  -55.0521 H         1 UNK         0.0600 
    235 H235       -5.1096  -19.2375  -55.0530 H         1 UNK         0.3000 
    236 H236       -4.6613  -17.2703  -55.9318 H         1 UNK         0.0600 
    237 H237       -4.6987  -18.5768  -58.7036 H         1 UNK         0.0600 
    238 H238       -6.1177  -17.9913  -57.8366 H         1 UNK         0.0600 
    239 H239       -4.8717  -16.8644  -58.3487 H         1 UNK         0.0600 
    240 H240       -2.5923  -18.6613  -54.8464 H         1 UNK         0.3000 
    241 H241       -0.1945  -18.5667  -56.4326 H         1 UNK         0.0600 
    242 H242       -0.4268  -14.8745  -54.8993 H         1 UNK         0.3800 
    243 H243       -1.8254  -15.9084  -55.0265 H         1 UNK         0.3800 
    244 H244       -0.2916  -20.2807  -54.8002 H         1 UNK         0.0800 
    245 H245        0.9309  -19.1820  -54.2267 H         1 UNK         0.0800 
    246 H246       -1.2453  -20.8624  -51.1938 H         1 UNK         0.0800 
    247 H247       -0.4631  -21.4609  -52.6316 H         1 UNK         0.0800 
@<TRIPOS>BOND
     1    1    2 1    
     2    1  127 1    
     3    1  128 1    
     4    1  129 1    
     5    2    3 2    
     6    2    4 am   BACKBONE|DICT|INTERRES
     7    4    5 1    
     8    4  130 1    
     9    5    6 1    
    10    5   65 1    
    11    5  131 1    
    12    6    7 1    
    13    6  132 1    
    14    6  133 1    
    15    7    8 1    
    16    8    9 1    
    17    8  134 1    
    18    8  135 1    
    19    9   10 ar   
    20    9   14 ar   
    21   10   11 ar   
    22   10  136 1    
    23   11   12 ar   
    24   11  126 1    
    25   12   13 ar   
    26   12  137 1    
    27   13   14 ar   
    28   13   15 1    
    29   14  138 1    
    30   15   16 1    
    31   15  139 1    
    32   15  140 1    
    33   16   17 1    
    34   17   18 1    
    35   17  141 1    
    36   17  142 1    
    37   18   19 1    
    38   18   67 1    
    39   18  143 1    
    40   19   20 am   BACKBONE|DICT|INTERRES
    41   19  144 1    
    42   20   21 2    
    43   20   22 1    
    44   22   23 1    
    45   22   24 1    
    46   22  145 1    
    47   23  146 1    
    48   23  147 1    
    49   23  148 1    
    50   24   25 am   BACKBONE|DICT|INTERRES
    51   24  149 1    
    52   25   26 2    
    53   25   27 1    
    54   27   28 1    
    55   27   29 1    
    56   27  150 1    
    57   28  151 1    
    58   28  152 1    
    59   28  153 1    
    60   29   30 am   BACKBONE|DICT|INTERRES
    61   29  154 1    
    62   30   31 2    
    63   30   32 1    
    64   32   33 1    
    65   32   34 1    
    66   32  155 1    
    67   33  156 1    
    68   33  157 1    
    69   33  158 1    
    70   34   35 am   BACKBONE|DICT|INTERRES
    71   34  159 1    
    72   35   36 2    
    73   35   37 1    
    74   37   38 1    
    75   37   39 1    
    76   37  160 1    
    77   38  161 1    
    78   38  162 1    
    79   38  163 1    
    80   39   40 am   BACKBONE|DICT|INTERRES
    81   39  164 1    
    82   40   41 2    
    83   40   42 1    
    84   42   43 1    
    85   42   44 1    
    86   42  165 1    
    87   43  166 1    
    88   43  167 1    
    89   43  168 1    
    90   44   45 am   BACKBONE|DICT|INTERRES
    91   44  169 1    
    92   45   46 2    
    93   45   47 1    
    94   47   48 1    
    95   47   49 1    
    96   47  170 1    
    97   48  171 1    
    98   48  172 1    
    99   48  173 1    
   100   49   50 am   BACKBONE|DICT|INTERRES
   101   49  174 1    
   102   50   51 2    
   103   50   52 1    
   104   52   53 1    
   105   52   54 1    
   106   52  175 1    
   107   53  176 1    
   108   53  177 1    
   109   53  178 1    
   110   54   55 am   BACKBONE|DICT|INTERRES
   111   54  179 1    
   112   55   56 2    
   113   55   57 1    
   114   57   58 1    
   115   57   59 1    
   116   57  180 1    
   117   58  181 1    
   118   58  182 1    
   119   58  183 1    
   120   59   60 am   BACKBONE|DICT|INTERRES
   121   59  184 1    
   122   60   61 2    
   123   60   62 1    
   124   62   63 1    
   125   62   64 1    
   126   62  185 1    
   127   63  186 1    
   128   63  187 1    
   129   63  188 1    
   130   64   65 am   BACKBONE|DICT|INTERRES
   131   64  189 1    
   132   65   66 2    
   133   67   68 2    
   134   67   69 am   BACKBONE|DICT|INTERRES
   135   69   70 1    
   136   69  190 1    
   137   70   71 1    
   138   70   72 1    
   139   70  191 1    
   140   71  192 1    
   141   71  193 1    
   142   71  194 1    
   143   72   73 2    
   144   72   74 am   BACKBONE|DICT|INTERRES
   145   74   75 1    
   146   74  195 1    
   147   75   76 1    
   148   75   77 1    
   149   75  196 1    
   150   76  197 1    
   151   76  198 1    
   152   76  199 1    
   153   77   78 2    
   154   77   79 am   BACKBONE|DICT|INTERRES
   155   79   80 1    
   156   79  200 1    
   157   80   81 1    
   158   80   82 1    
   159   80  201 1    
   160   81  202 1    
   161   81  203 1    
   162   81  204 1    
   163   82   83 2    
   164   82   84 am   BACKBONE|DICT|INTERRES
   165   84   85 1    
   166   84  205 1    
   167   85   86 1    
   168   85   87 1    
   169   85  206 1    
   170   86  207 1    
   171   86  208 1    
   172   86  209 1    
   173   87   88 2    
   174   87   89 am   BACKBONE|DICT|INTERRES
   175   89   90 1    
   176   89  210 1    
   177   90   91 1    
   178   90   92 1    
   179   90  211 1    
   180   91  212 1    
   181   91  213 1    
   182   91  214 1    
   183   92   93 2    
   184   92   94 am   BACKBONE|DICT|INTERRES
   185   94   95 1    
   186   94  215 1    
   187   95   96 1    
   188   95   97 1    
   189   95  216 1    
   190   96  217 1    
   191   96  218 1    
   192   96  219 1    
   193   97   98 2    
   194   97   99 am   BACKBONE|DICT|INTERRES
   195   99  100 1    
   196   99  220 1    
   197  100  101 1    
   198  100  102 1    
   199  100  221 1    
   200  101  222 1    
   201  101  223 1    
   202  101  224 1    
   203  102  103 2    
   204  102  104 am   BACKBONE|DICT|INTERRES
   205  104  105 1    
   206  104  225 1    
   207  105  106 1    
   208  105  107 1    
   209  105  226 1    
   210  106  227 1    
   211  106  228 1    
   212  106  229 1    
   213  107  108 2    
   214  107  109 am   BACKBONE|DICT|INTERRES
   215  109  110 1    
   216  109  230 1    
   217  110  111 1    
   218  110  112 1    
   219  110  231 1    
   220  111  232 1    
   221  111  233 1    
   222  111  234 1    
   223  112  113 2    
   224  112  114 am   BACKBONE|DICT|INTERRES
   225  114  115 1    
   226  114  235 1    
   227  115  116 1    
   228  115  117 1    
   229  115  236 1    
   230  116  237 1    
   231  116  238 1    
   232  116  239 1    
   233  117  118 2    
   234  117  119 am   BACKBONE|DICT|INTERRES
   235  119  120 1    
   236  119  240 1    
   237  120  121 1    
   238  120  124 1    
   239  120  241 1    
   240  121  122 am   BACKBONE|DICT|INTERRES
   241  121  123 2    
   242  122  242 1    
   243  122  243 1    
   244  124  125 1    
   245  124  244 1    
   246  124  245 1    
   247  125  126 1    
   248  126  246 1    
   249  126  247 1    
@<TRIPOS>SUBSTRUCTURE
     1 UNK         1 GROUP             0       ****    0 ROOT    
