@<TRIPOS>MOLECULE
3R540
247   249    1
SMALL
USER_CHARGES


@<TRIPOS>ATOM
      1 CA         -2.5259  -18.8482  -47.5628 C.3       0 UNK        -0.1800 
      2 C          -1.4598  -17.7928  -47.3559 C.2       0 UNK         0.5000 
      3 O          -0.3037  -18.0059  -47.7197 O.2       0 UNK        -0.5000 
      4 N          -1.8597  -16.6589  -46.7622 N.am      1 UNK        -0.5000 
      5 CA         -0.9958  -15.5662  -46.3017 C.3       1 UNK         0.1400 
      6 C6         -1.7924  -14.3786  -45.7137 C.3       23 UNK        -0.0398 
      7 S7         -2.6103  -14.8260  -44.1480 S.3       23 UNK        -0.2404 
      8 C8         -4.3796  -14.7116  -44.5543 C.3       23 UNK        -0.0205 
      9 C9         -4.8528  -15.8259  -45.4776 C.ar      23 UNK        -0.0193 
     10 C10        -4.9774  -15.5892  -46.8482 C.ar      23 UNK        -0.1150 
     11 C11        -5.4686  -16.5795  -47.7031 C.ar      23 UNK        -0.0193 
     12 C12        -5.8579  -17.8135  -47.1708 C.ar      23 UNK        -0.1150 
     13 C13        -5.7571  -18.0596  -45.7972 C.ar      23 UNK        -0.0193 
     14 C14        -5.2337  -17.0682  -44.9590 C.ar      23 UNK        -0.1150 
     15 C15        -6.3002  -19.3550  -45.2040 C.3       23 UNK        -0.0205 
     16 S16        -5.0233  -20.6262  -44.9554 S.3       23 UNK        -0.2404 
     17 C17        -4.8874  -21.3490  -46.6274 C.3       23 UNK        -0.0398 
     18 CA         -3.8014  -22.4512  -46.7489 C.3       11 UNK         0.1400 
     19 N          -2.5292  -22.0536  -46.1338 N.am      11 UNK        -0.5000 
     20 C          -1.3658  -22.6899  -46.3084 C.2       10 UNK         0.5000 
     21 O          -1.2302  -23.6555  -47.0549 O.2       10 UNK        -0.5000 
     22 CA         -0.1680  -22.2224  -45.4650 C.3       10 UNK         0.1400 
     23 CB          0.7323  -21.2811  -46.2763 C.3       10 UNK        -0.1800 
     24 N          -0.5218  -21.5970  -44.1839 N.am      10 UNK        -0.5000 
     25 C          -1.1375  -22.2318  -43.1731 C.2       9 UNK         0.5000 
     26 O          -1.6554  -23.3412  -43.2955 O.2       9 UNK        -0.5000 
     27 CA         -1.1630  -21.5559  -41.7896 C.3       9 UNK         0.1400 
     28 CB         -0.0406  -22.1259  -40.9091 C.3       9 UNK        -0.1800 
     29 N          -1.0184  -20.1044  -41.8576 N.am      9 UNK        -0.5000 
     30 C          -2.0299  -19.2630  -42.0998 C.2       8 UNK         0.5000 
     31 O          -3.2028  -19.6227  -42.1918 O.2       8 UNK        -0.5000 
     32 CA         -1.6897  -17.7698  -42.2722 C.3       8 UNK         0.1400 
     33 CB         -2.1126  -16.9703  -41.0303 C.3       8 UNK        -0.1800 
     34 N          -0.2884  -17.4553  -42.5792 N.am      8 UNK        -0.5000 
     35 C           0.3970  -17.8834  -43.6454 C.2       7 UNK         0.5000 
     36 O          -0.0416  -18.7293  -44.4227 O.2       7 UNK        -0.5000 
     37 CA          1.7856  -17.2492  -43.8919 C.3       7 UNK         0.1400 
     38 CB          2.4448  -17.7956  -45.1681 C.3       7 UNK        -0.1800 
     39 N           1.7391  -15.7870  -43.9978 N.am      7 UNK        -0.5000 
     40 C           1.5723  -14.9258  -42.9856 C.2       6 UNK         0.5000 
     41 O           1.4384  -15.2831  -41.8138 O.2       6 UNK        -0.5000 
     42 CA          1.5456  -13.4292  -43.3461 C.3       6 UNK         0.1400 
     43 CB          1.9654  -12.5224  -42.1743 C.3       6 UNK        -0.1800 
     44 N           2.3935  -13.1523  -44.5052 N.am      6 UNK        -0.5000 
     45 C           2.1287  -12.2728  -45.4755 C.2       5 UNK         0.5000 
     46 O           1.0985  -11.5985  -45.5144 O.2       5 UNK        -0.5000 
     47 CA          3.1746  -12.1067  -46.6007 C.3       5 UNK         0.1400 
     48 CB          4.2425  -11.0715  -46.2001 C.3       5 UNK        -0.1800 
     49 N           3.8012  -13.3426  -47.1005 N.am      5 UNK        -0.5000 
     50 C           4.6055  -14.2062  -46.4654 C.2       4 UNK         0.5000 
     51 O           4.8996  -14.1196  -45.2719 O.2       4 UNK        -0.5000 
     52 CA          5.1408  -15.3732  -47.3124 C.3       4 UNK         0.1400 
     53 CB          6.0461  -16.3362  -46.5113 C.3       4 UNK        -0.1800 
     54 N           4.0325  -16.0794  -47.9627 N.am      4 UNK        -0.5000 
     55 C           4.1664  -16.9037  -49.0135 C.2       3 UNK         0.5000 
     56 O           5.2531  -17.1954  -49.5149 O.2       3 UNK        -0.5000 
     57 CA          2.8819  -17.4848  -49.6431 C.3       3 UNK         0.1400 
     58 CB          2.5652  -18.8711  -49.0623 C.3       3 UNK        -0.1800 
     59 N           1.7104  -16.6166  -49.5097 N.am      3 UNK        -0.5000 
     60 C           1.5999  -15.4054  -50.0778 C.2       2 UNK         0.5000 
     61 O           2.4629  -14.9234  -50.8124 O.2       2 UNK        -0.5000 
     62 CA          0.3408  -14.5661  -49.7752 C.3       2 UNK         0.1400 
     63 CB         -0.5931  -14.5452  -50.9903 C.3       2 UNK        -0.1800 
     64 N          -0.4358  -14.9894  -48.6117 N.am      2 UNK        -0.5000 
     65 C           0.0111  -15.0743  -47.3531 C.2       1 UNK         0.5000 
     66 O           1.1718  -14.8477  -47.0114 O.2       1 UNK        -0.5000 
     67 C          -4.3180  -23.8273  -46.2606 C.2       11 UNK         0.5000 
     68 O          -5.1370  -24.4310  -46.9553 O.2       11 UNK        -0.5000 
     69 N          -3.8351  -24.3030  -45.1032 N.am      12 UNK        -0.5000 
     70 CA         -4.1391  -25.6212  -44.5477 C.3       12 UNK         0.1400 
     71 CB         -4.6936  -25.4462  -43.1248 C.3       12 UNK        -0.1800 
     72 C          -2.8964  -26.5292  -44.5305 C.2       12 UNK         0.5000 
     73 O          -3.0130  -27.7185  -44.8278 O.2       12 UNK        -0.5000 
     74 N          -1.7372  -25.9687  -44.1593 N.am      13 UNK        -0.5000 
     75 CA         -0.4826  -26.6956  -43.9611 C.3       13 UNK         0.1400 
     76 CB          0.4381  -25.8601  -43.0570 C.3       13 UNK        -0.1800 
     77 C           0.2449  -27.0636  -45.2669 C.2       13 UNK         0.5000 
     78 O           1.0276  -28.0153  -45.2621 O.2       13 UNK        -0.5000 
     79 N          -0.0043  -26.3134  -46.3459 N.am      14 UNK        -0.5000 
     80 CA          0.5641  -26.5323  -47.6736 C.3       14 UNK         0.1400 
     81 CB          1.4901  -25.3508  -48.0262 C.3       14 UNK        -0.1800 
     82 C          -0.5664  -26.7200  -48.7013 C.2       14 UNK         0.5000 
     83 O          -1.7371  -26.8474  -48.3309 O.2       14 UNK        -0.5000 
     84 N          -0.1862  -26.7768  -49.9830 N.am      15 UNK        -0.5000 
     85 CA         -1.0930  -26.9149  -51.1210 C.3       15 UNK         0.1400 
     86 CB         -0.2548  -27.1799  -52.3825 C.3       15 UNK        -0.1800 
     87 C          -1.9813  -25.6734  -51.3262 C.2       15 UNK         0.5000 
     88 O          -1.6152  -24.5680  -50.9172 O.2       15 UNK        -0.5000 
     89 N          -3.1011  -25.8715  -52.0367 N.am      16 UNK        -0.5000 
     90 CA         -4.0895  -24.8449  -52.3926 C.3       16 UNK         0.1400 
     91 CB         -5.2508  -25.5083  -53.1476 C.3       16 UNK        -0.1800 
     92 C          -3.5271  -23.6621  -53.2073 C.2       16 UNK         0.5000 
     93 O          -4.1423  -22.5967  -53.2244 O.2       16 UNK        -0.5000 
     94 N          -2.3474  -23.8443  -53.8174 N.am      17 UNK        -0.5000 
     95 CA         -1.5491  -22.8067  -54.4696 C.3       17 UNK         0.1400 
     96 CB         -0.2592  -23.4376  -55.0141 C.3       17 UNK        -0.1800 
     97 C          -1.2166  -21.6116  -53.5520 C.2       17 UNK         0.5000 
     98 O          -1.1588  -20.4834  -54.0388 O.2       17 UNK        -0.5000 
     99 N          -1.0499  -21.8638  -52.2435 N.am      18 UNK        -0.5000 
    100 CA        -0.8308  -20.8295  -51.2296 C.3       18 UNK         0.1400 
    101 CB        -0.4349  -21.4912  -49.9011 C.3       18 UNK        -0.1800 
    102 C         -2.0596  -19.9217  -51.0359 C.2       18 UNK         0.5000 
    103 O         -1.9021  -18.7143  -50.8655 O.2       18 UNK        -0.5000 
    104 N         -3.2600  -20.5155  -51.0943 N.am      19 UNK        -0.5000 
    105 CA        -4.5318  -19.7978  -51.0327 C.3       19 UNK         0.1400 
    106 CB        -5.6504  -20.7644  -50.6163 C.3       19 UNK        -0.1800 
    107 C         -4.8617  -19.1060  -52.3665 C.2       19 UNK         0.5000 
    108 O         -5.3758  -17.9892  -52.3567 O.2       19 UNK        -0.5000 
    109 N         -4.5353  -19.7582  -53.4920 N.am      20 UNK        -0.5000 
    110 CA        -4.7025  -19.2169  -54.8438 C.3       20 UNK         0.1400 
    111 CB        -4.3986  -20.3090  -55.8787 C.3       20 UNK        -0.1800 
    112 C         -3.8358  -17.9694  -55.1021 C.2       20 UNK         0.5000 
    113 O         -4.2817  -17.0538  -55.7961 O.2       20 UNK        -0.5000 
    114 N         -2.6392  -17.9289  -54.4956 N.am      21 UNK        -0.5000 
    115 CA        -1.7060  -16.7991  -54.5242 C.3       21 UNK         0.1400 
    116 CB        -0.4048  -17.1917  -53.8063 C.3       21 UNK        -0.1800 
    117 C         -2.2737  -15.4906  -53.9370 C.2       21 UNK         0.5000 
    118 O         -1.7682  -14.4194  -54.2752 O.2       21 UNK        -0.5000 
    119 N         -3.3174  -15.5855  -53.1001 N.am      22 UNK        -0.5000 
    120 CA        -4.0943  -14.4371  -52.6094 C.3       22 UNK         0.1400 
    121 C         -4.9203  -13.7059  -53.7125 C.2       22 UNK         0.5000 
    122 N         -5.1442  -14.2886  -54.8862 N.am      22 UNK        -0.7600 
    123 O         -5.3663  -12.5821  -53.4977 O.2       22 UNK        -0.5000 
    124 C124       -5.0246  -14.8151  -51.4293 C.3       23 UNK        -0.0398 
    125 S125       -4.1950  -15.6040  -50.0059 S.3       23 UNK        -0.2404 
    126 C126       -5.6766  -16.2783  -49.1808 C.3       23 UNK        -0.0205 
    127 H127       -3.2329  -18.5247  -48.3248 H         1 UNK         0.0600 
    128 H128       -3.0605  -19.0134  -46.6288 H         1 UNK         0.0600 
    129 H129       -2.0850  -19.7929  -47.8776 H         1 UNK         0.0600 
    130 H130       -2.8345  -16.5677  -46.5086 H         1 UNK         0.3000 
    131 H131       -0.4010  -15.9902  -45.4990 H         1 UNK         0.0600 
    132 H132       -1.1290  -13.5405  -45.4906 H         1 UNK         0.0800 
    133 H133       -2.5191  -14.0005  -46.4335 H         1 UNK         0.0800 
    134 H134       -4.9498  -14.7506  -43.6250 H         1 UNK         0.0800 
    135 H135       -4.5892  -13.7341  -44.9915 H         1 UNK         0.0800 
    136 H136       -4.7162  -14.6210  -47.2520 H         1 UNK         0.1150 
    137 H137       -6.2785  -18.5692  -47.8192 H         1 UNK         0.1150 
    138 H138       -5.1624  -17.2495  -43.8954 H         1 UNK         0.1150 
    139 H139       -6.7582  -19.1391  -44.2376 H         1 UNK         0.0800 
    140 H140       -7.1007  -19.7555  -45.8278 H         1 UNK         0.0800 
    141 H141       -4.6647  -20.5474  -47.3292 H         1 UNK         0.0800 
    142 H142       -5.8655  -21.7264  -46.9318 H         1 UNK         0.0800 
    143 H143       -3.6029  -22.5792  -47.8156 H         1 UNK         0.0600 
    144 H144       -2.5736  -21.2935  -45.4694 H         1 UNK         0.3000 
    145 H145        0.4176  -23.1144  -45.2338 H         1 UNK         0.0600 
    146 H146        1.6281  -21.0136  -45.7172 H         1 UNK         0.0600 
    147 H147        1.0593  -21.7540  -47.2031 H         1 UNK         0.0600 
    148 H148        0.2139  -20.3606  -46.5427 H         1 UNK         0.0600 
    149 H149       -0.2197  -20.6350  -44.0596 H         1 UNK         0.3000 
    150 H150       -2.1172  -21.8037  -41.3196 H         1 UNK         0.0600 
    151 H151        0.9455  -21.9141  -41.3246 H         1 UNK         0.0600 
    152 H152       -0.1304  -23.2090  -40.8138 H         1 UNK         0.0600 
    153 H153       -0.0784  -21.7085  -39.9027 H         1 UNK         0.0600 
    154 H154       -0.0847  -19.7278  -41.7896 H         1 UNK         0.3000 
    155 H155       -2.2872  -17.4317  -43.1190 H         1 UNK         0.0600 
    156 H156       -1.5278  -17.2530  -40.1543 H         1 UNK         0.0600 
    157 H157       -3.1643  -17.1382  -40.7940 H         1 UNK         0.0600 
    158 H158       -1.9850  -15.8992  -41.1886 H         1 UNK         0.0600 
    159 H159        0.1545  -16.7465  -42.0022 H         1 UNK         0.3000 
    160 H160        2.4197  -17.5168  -43.0444 H         1 UNK         0.0600 
    161 H161        3.4314  -17.3651  -45.3129 H         1 UNK         0.0600 
    162 H162        1.8485  -17.5693  -46.0524 H         1 UNK         0.0600 
    163 H163        2.5686  -18.8774  -45.1184 H         1 UNK         0.0600 
    164 H164        1.8054  -15.4052  -44.9333 H         1 UNK         0.3000 
    165 H165        0.5064  -13.2049  -43.5937 H         1 UNK         0.0600 
    166 H166        1.3178  -12.6693  -41.3091 H         1 UNK         0.0600 
    167 H167        2.9898  -12.7256  -41.8602 H         1 UNK         0.0600 
    168 H168        1.9015  -11.4693  -42.4483 H         1 UNK         0.0600 
    169 H169        3.2801  -13.6510  -44.5565 H         1 UNK         0.3000 
    170 H170        2.6337  -11.6976  -47.4556 H         1 UNK         0.0600 
    171 H171        4.9285  -10.8735  -47.0238 H         1 UNK         0.0600 
    172 H172        4.8315  -11.4039  -45.3448 H         1 UNK         0.0600 
    173 H173        3.7809  -10.1218  -45.9268 H         1 UNK         0.0600 
    174 H174        3.5869  -13.5513  -48.0654 H         1 UNK         0.3000 
    175 H175        5.7532  -14.9198  -48.0946 H         1 UNK         0.0600 
    176 H176        6.4508  -17.1308  -47.1371 H         1 UNK         0.0600 
    177 H177        6.8985  -15.8010  -46.0913 H         1 UNK         0.0600 
    178 H178        5.5206  -16.8018  -45.6801 H         1 UNK         0.0600 
    179 H179        3.1009  -15.8590  -47.6277 H         1 UNK         0.3000 
    180 H180        3.0746  -17.6094  -50.7108 H         1 UNK         0.0600 
    181 H181        2.3421  -18.8234  -47.9968 H         1 UNK         0.0600 
    182 H182        3.4072  -19.5522  -49.1909 H         1 UNK         0.0600 
    183 H183        1.7064  -19.3175  -49.5626 H         1 UNK         0.0600 
    184 H184        0.9587  -16.9574  -48.9163 H         1 UNK         0.3000 
    185 H185        0.6792  -13.5455  -49.5857 H         1 UNK         0.0600 
    186 H186       -0.0646  -14.2392  -51.8941 H         1 UNK         0.0600 
    187 H187       -1.0228  -15.5307  -51.1743 H         1 UNK         0.0600 
    188 H188       -1.4139  -13.8439  -50.8423 H         1 UNK         0.0600 
    189 H189       -1.3887  -15.2716  -48.7937 H         1 UNK         0.3000 
    190 H190       -3.1565  -23.7481  -44.5941 H         1 UNK         0.3000 
    191 H191       -4.9017  -26.1256  -45.1445 H         1 UNK         0.0600 
    192 H192       -5.6124  -24.8596  -43.1318 H         1 UNK         0.0600 
    193 H193       -4.9270  -26.4117  -42.6742 H         1 UNK         0.0600 
    194 H194       -3.9802  -24.9413  -42.4721 H         1 UNK         0.0600 
    195 H195       -1.7289  -24.9884  -43.8839 H         1 UNK         0.3000 
    196 H196       -0.7075  -27.6282  -43.4391 H         1 UNK         0.0600 
    197 H197        1.3612  -26.3972  -42.8352 H         1 UNK         0.0600 
    198 H198       -0.0424  -25.6336  -42.1050 H         1 UNK         0.0600 
    199 H199        0.7138  -24.9152  -43.5261 H         1 UNK         0.0600 
    200 H200       -0.7077  -25.5847  -46.3002 H         1 UNK         0.3000 
    201 H201        1.1574  -27.4485  -47.6885 H         1 UNK         0.0600 
    202 H202        2.0804  -25.5633  -48.9176 H         1 UNK         0.0600 
    203 H203        0.9302  -24.4357  -48.2191 H         1 UNK         0.0600 
    204 H204        2.1943  -25.1467  -47.2195 H         1 UNK         0.0600 
    205 H205        0.7885  -26.6411  -50.2052 H         1 UNK         0.3000 
    206 H206       -1.7386  -27.7765  -50.9385 H         1 UNK         0.0600 
    207 H207        0.3594  -28.0733  -52.2677 H         1 UNK         0.0600 
    208 H208       -0.8908  -27.3381  -53.2544 H         1 UNK         0.0600 
    209 H209        0.4085  -26.3435  -52.6081 H         1 UNK         0.0600 
    210 H210       -3.3095  -26.8077  -52.3536 H         1 UNK         0.3000 
    211 H211       -4.4794  -24.4307  -51.4605 H         1 UNK         0.0600 
    212 H212       -4.9148  -25.9686  -54.0776 H         1 UNK         0.0600 
    213 H213       -6.0205  -24.7781  -53.4021 H         1 UNK         0.0600 
    214 H214       -5.7268  -26.2799  -52.5421 H         1 UNK         0.0600 
    215 H215       -1.9225  -24.7561  -53.7457 H         1 UNK         0.3000 
    216 H216       -2.1273  -22.4317  -55.3145 H         1 UNK         0.0600 
    217 H217        0.3521  -22.6944  -55.5279 H         1 UNK         0.0600 
    218 H218       -0.4782  -24.2284  -55.7318 H         1 UNK         0.0600 
    219 H219        0.3472  -23.8666  -54.2152 H         1 UNK         0.0600 
    220 H220       -1.1405  -22.8173  -51.9068 H         1 UNK         0.3000 
    221 H221       -0.0009  -20.2002  -51.5585 H         1 UNK         0.0600 
    222 H222       -1.2229  -22.1446  -49.5242 H         1 UNK         0.0600 
    223 H223        0.4703  -22.0887  -50.0090 H         1 UNK         0.0600 
    224 H224       -0.2393  -20.7392  -49.1363 H         1 UNK         0.0600 
    225 H225       -3.3038  -21.5023  -51.3046 H         1 UNK         0.3000 
    226 H226       -4.4575  -19.0224  -50.2683 H         1 UNK         0.0600 
    227 H227       -6.5981  -20.2357  -50.5066 H         1 UNK         0.0600 
    228 H228       -5.7997  -21.5544  -51.3529 H         1 UNK         0.0600 
    229 H229       -5.4291  -21.2370  -49.6599 H         1 UNK         0.0600 
    230 H230       -4.1861  -20.7096  -53.4174 H         1 UNK         0.3000 
    231 H231       -5.7487  -18.9247  -54.9543 H         1 UNK         0.0600 
    232 H232       -3.3434  -20.5783  -55.8751 H         1 UNK         0.0600 
    233 H233       -4.6428  -19.9671  -56.8851 H         1 UNK         0.0600 
    234 H234       -4.9803  -21.2115  -55.6897 H         1 UNK         0.0600 
    235 H235       -2.3262  -18.7540  -53.9962 H         1 UNK         0.3000 
    236 H236       -1.4682  -16.6019  -55.5713 H         1 UNK         0.0600 
    237 H237        0.3148  -16.3720  -53.8207 H         1 UNK         0.0600 
    238 H238       -0.5827  -17.4503  -52.7630 H         1 UNK         0.0600 
    239 H239        0.0700  -18.0464  -54.2878 H         1 UNK         0.0600 
    240 H240       -3.6814  -16.4992  -52.8630 H         1 UNK         0.3000 
    241 H241       -3.3786  -13.7031  -52.2362 H         1 UNK         0.0600 
    242 H242       -4.7894  -15.2168  -55.0901 H         1 UNK         0.3800 
    243 H243       -5.6775  -13.7979  -55.5862 H         1 UNK         0.3800 
    244 H244       -5.8160  -15.4779  -51.7825 H         1 UNK         0.0800 
    245 H245       -5.5283  -13.9234  -51.0513 H         1 UNK         0.0800 
    246 H246       -6.4924  -15.5583  -49.2585 H         1 UNK         0.0800 
    247 H247       -6.0021  -17.1693  -49.7189 H         1 UNK         0.0800 
@<TRIPOS>BOND
     1    1    2 1    
     2    1  127 1    
     3    1  128 1    
     4    1  129 1    
     5    2    3 2    
     6    2    4 am   BACKBONE|DICT|INTERRES
     7    4    5 1    
     8    4  130 1    
     9    5    6 1    
    10    5   65 1    
    11    5  131 1    
    12    6    7 1    
    13    6  132 1    
    14    6  133 1    
    15    7    8 1    
    16    8    9 1    
    17    8  134 1    
    18    8  135 1    
    19    9   10 ar   
    20    9   14 ar   
    21   10   11 ar   
    22   10  136 1    
    23   11   12 ar   
    24   11  126 1    
    25   12   13 ar   
    26   12  137 1    
    27   13   14 ar   
    28   13   15 1    
    29   14  138 1    
    30   15   16 1    
    31   15  139 1    
    32   15  140 1    
    33   16   17 1    
    34   17   18 1    
    35   17  141 1    
    36   17  142 1    
    37   18   19 1    
    38   18   67 1    
    39   18  143 1    
    40   19   20 am   BACKBONE|DICT|INTERRES
    41   19  144 1    
    42   20   21 2    
    43   20   22 1    
    44   22   23 1    
    45   22   24 1    
    46   22  145 1    
    47   23  146 1    
    48   23  147 1    
    49   23  148 1    
    50   24   25 am   BACKBONE|DICT|INTERRES
    51   24  149 1    
    52   25   26 2    
    53   25   27 1    
    54   27   28 1    
    55   27   29 1    
    56   27  150 1    
    57   28  151 1    
    58   28  152 1    
    59   28  153 1    
    60   29   30 am   BACKBONE|DICT|INTERRES
    61   29  154 1    
    62   30   31 2    
    63   30   32 1    
    64   32   33 1    
    65   32   34 1    
    66   32  155 1    
    67   33  156 1    
    68   33  157 1    
    69   33  158 1    
    70   34   35 am   BACKBONE|DICT|INTERRES
    71   34  159 1    
    72   35   36 2    
    73   35   37 1    
    74   37   38 1    
    75   37   39 1    
    76   37  160 1    
    77   38  161 1    
    78   38  162 1    
    79   38  163 1    
    80   39   40 am   BACKBONE|DICT|INTERRES
    81   39  164 1    
    82   40   41 2    
    83   40   42 1    
    84   42   43 1    
    85   42   44 1    
    86   42  165 1    
    87   43  166 1    
    88   43  167 1    
    89   43  168 1    
    90   44   45 am   BACKBONE|DICT|INTERRES
    91   44  169 1    
    92   45   46 2    
    93   45   47 1    
    94   47   48 1    
    95   47   49 1    
    96   47  170 1    
    97   48  171 1    
    98   48  172 1    
    99   48  173 1    
   100   49   50 am   BACKBONE|DICT|INTERRES
   101   49  174 1    
   102   50   51 2    
   103   50   52 1    
   104   52   53 1    
   105   52   54 1    
   106   52  175 1    
   107   53  176 1    
   108   53  177 1    
   109   53  178 1    
   110   54   55 am   BACKBONE|DICT|INTERRES
   111   54  179 1    
   112   55   56 2    
   113   55   57 1    
   114   57   58 1    
   115   57   59 1    
   116   57  180 1    
   117   58  181 1    
   118   58  182 1    
   119   58  183 1    
   120   59   60 am   BACKBONE|DICT|INTERRES
   121   59  184 1    
   122   60   61 2    
   123   60   62 1    
   124   62   63 1    
   125   62   64 1    
   126   62  185 1    
   127   63  186 1    
   128   63  187 1    
   129   63  188 1    
   130   64   65 am   BACKBONE|DICT|INTERRES
   131   64  189 1    
   132   65   66 2    
   133   67   68 2    
   134   67   69 am   BACKBONE|DICT|INTERRES
   135   69   70 1    
   136   69  190 1    
   137   70   71 1    
   138   70   72 1    
   139   70  191 1    
   140   71  192 1    
   141   71  193 1    
   142   71  194 1    
   143   72   73 2    
   144   72   74 am   BACKBONE|DICT|INTERRES
   145   74   75 1    
   146   74  195 1    
   147   75   76 1    
   148   75   77 1    
   149   75  196 1    
   150   76  197 1    
   151   76  198 1    
   152   76  199 1    
   153   77   78 2    
   154   77   79 am   BACKBONE|DICT|INTERRES
   155   79   80 1    
   156   79  200 1    
   157   80   81 1    
   158   80   82 1    
   159   80  201 1    
   160   81  202 1    
   161   81  203 1    
   162   81  204 1    
   163   82   83 2    
   164   82   84 am   BACKBONE|DICT|INTERRES
   165   84   85 1    
   166   84  205 1    
   167   85   86 1    
   168   85   87 1    
   169   85  206 1    
   170   86  207 1    
   171   86  208 1    
   172   86  209 1    
   173   87   88 2    
   174   87   89 am   BACKBONE|DICT|INTERRES
   175   89   90 1    
   176   89  210 1    
   177   90   91 1    
   178   90   92 1    
   179   90  211 1    
   180   91  212 1    
   181   91  213 1    
   182   91  214 1    
   183   92   93 2    
   184   92   94 am   BACKBONE|DICT|INTERRES
   185   94   95 1    
   186   94  215 1    
   187   95   96 1    
   188   95   97 1    
   189   95  216 1    
   190   96  217 1    
   191   96  218 1    
   192   96  219 1    
   193   97   98 2    
   194   97   99 am   BACKBONE|DICT|INTERRES
   195   99  100 1    
   196   99  220 1    
   197  100  101 1    
   198  100  102 1    
   199  100  221 1    
   200  101  222 1    
   201  101  223 1    
   202  101  224 1    
   203  102  103 2    
   204  102  104 am   BACKBONE|DICT|INTERRES
   205  104  105 1    
   206  104  225 1    
   207  105  106 1    
   208  105  107 1    
   209  105  226 1    
   210  106  227 1    
   211  106  228 1    
   212  106  229 1    
   213  107  108 2    
   214  107  109 am   BACKBONE|DICT|INTERRES
   215  109  110 1    
   216  109  230 1    
   217  110  111 1    
   218  110  112 1    
   219  110  231 1    
   220  111  232 1    
   221  111  233 1    
   222  111  234 1    
   223  112  113 2    
   224  112  114 am   BACKBONE|DICT|INTERRES
   225  114  115 1    
   226  114  235 1    
   227  115  116 1    
   228  115  117 1    
   229  115  236 1    
   230  116  237 1    
   231  116  238 1    
   232  116  239 1    
   233  117  118 2    
   234  117  119 am   BACKBONE|DICT|INTERRES
   235  119  120 1    
   236  119  240 1    
   237  120  121 1    
   238  120  124 1    
   239  120  241 1    
   240  121  122 am   BACKBONE|DICT|INTERRES
   241  121  123 2    
   242  122  242 1    
   243  122  243 1    
   244  124  125 1    
   245  124  244 1    
   246  124  245 1    
   247  125  126 1    
   248  126  246 1    
   249  126  247 1    
@<TRIPOS>SUBSTRUCTURE
     1 UNK         1 GROUP             0       ****    0 ROOT    
