@<TRIPOS>MOLECULE
3R540
247   249    1
SMALL
USER_CHARGES


@<TRIPOS>ATOM
      1 CA         -3.7568  -15.4458  -49.1908 C.3       0 UNK        -0.1800 
      2 C          -2.9671  -14.1496  -49.3102 C.2       0 UNK         0.5000 
      3 O          -3.5493  -13.0683  -49.2310 O.2       0 UNK        -0.5000 
      4 N          -1.6445  -14.2564  -49.4985 N.am      1 UNK        -0.5000 
      5 CA         -0.7191  -13.1218  -49.6399 C.3       1 UNK         0.1400 
      6 C6          0.6460  -13.5497  -50.2324 C.3       23 UNK        -0.0398 
      7 S7          0.4897  -14.2576  -51.9110 S.3       23 UNK        -0.2404 
      8 C8          1.7786  -15.5489  -51.9021 C.3       23 UNK        -0.0205 
      9 C9          1.2297  -16.9474  -51.6390 C.ar      23 UNK        -0.0193 
     10 C10         1.5289  -17.9923  -52.5208 C.ar      23 UNK        -0.1150 
     11 C11         1.0791  -19.2912  -52.2649 C.ar      23 UNK        -0.0193 
     12 C12         0.2906  -19.5364  -51.1387 C.ar      23 UNK        -0.1150 
     13 C13        -0.0100  -18.5048  -50.2465 C.ar      23 UNK        -0.0193 
     14 C14         0.4702  -17.2174  -50.4962 C.ar      23 UNK        -0.1150 
     15 C15        -0.8402  -18.7814  -49.0047 C.3       23 UNK        -0.0205 
     16 S16         0.1820  -18.8937  -47.5062 S.3       23 UNK        -0.2404 
     17 C17         1.0951  -20.4523  -47.7700 C.3       23 UNK        -0.0398 
     18 CA          0.5266  -21.7033  -47.0583 C.3       11 UNK         0.1400 
     19 N           0.7134  -21.6962  -45.6057 N.am      11 UNK        -0.5000 
     20 C           0.6862  -22.8136  -44.8641 C.2       10 UNK         0.5000 
     21 O           0.4774  -23.9333  -45.3336 O.2       10 UNK        -0.5000 
     22 CA          0.8972  -22.6637  -43.3482 C.3       10 UNK         0.1400 
     23 CB          2.3739  -22.3959  -43.0205 C.3       10 UNK        -0.1800 
     24 N           0.0595  -21.6220  -42.7584 N.am      10 UNK        -0.5000 
     25 C          -1.2804  -21.6546  -42.7276 C.2       9 UNK         0.5000 
     26 O          -1.9560  -22.5749  -43.1905 O.2       9 UNK        -0.5000 
     27 CA         -1.9850  -20.4341  -42.1071 C.3       9 UNK         0.1400 
     28 CB         -1.9386  -20.4942  -40.5730 C.3       9 UNK        -0.1800 
     29 N          -1.4202  -19.1647  -42.5651 N.am      9 UNK        -0.5000 
     30 C          -1.4246  -18.7565  -43.8423 C.2       8 UNK         0.5000 
     31 O          -1.9377  -19.3897  -44.7622 O.2       8 UNK        -0.5000 
     32 CA         -0.6912  -17.4434  -44.1517 C.3       8 UNK         0.1400 
     33 CB         -1.5363  -16.2335  -43.7273 C.3       8 UNK        -0.1800 
     34 N           0.6258  -17.3767  -43.5222 N.am      8 UNK        -0.5000 
     35 C           1.6331  -18.2386  -43.7278 C.2       7 UNK         0.5000 
     36 O           1.5845  -19.1941  -44.5008 O.2       7 UNK        -0.5000 
     37 CA          2.8936  -18.0287  -42.8749 C.3       7 UNK         0.1400 
     38 CB          3.7477  -16.8769  -43.4277 C.3       7 UNK        -0.1800 
     39 N           2.5642  -17.7790  -41.4717 N.am      7 UNK        -0.5000 
     40 C           1.9911  -18.6767  -40.6563 C.2       6 UNK         0.5000 
     41 O           1.7062  -19.8267  -40.9909 O.2       6 UNK        -0.5000 
     42 CA          1.6441  -18.1902  -39.2385 C.3       6 UNK         0.1400 
     43 CB          2.8723  -18.2718  -38.3199 C.3       6 UNK        -0.1800 
     44 N           1.1210  -16.8232  -39.2324 N.am      6 UNK        -0.5000 
     45 C          -0.0661  -16.4694  -39.7443 C.2       5 UNK         0.5000 
     46 O          -0.8556  -17.2632  -40.2577 O.2       5 UNK        -0.5000 
     47 CA         -0.3999  -14.9655  -39.7182 C.3       5 UNK         0.1400 
     48 CB         -0.9160  -14.5464  -38.3334 C.3       5 UNK        -0.1800 
     49 N           0.7317  -14.1113  -40.0999 N.am      5 UNK        -0.5000 
     50 C           1.3163  -14.1421  -41.3036 C.2       4 UNK         0.5000 
     51 O           0.9930  -14.9311  -42.1947 O.2       4 UNK        -0.5000 
     52 CA          2.4596  -13.1536  -41.5660 C.3       4 UNK         0.1400 
     53 CB          3.7865  -13.6806  -40.9894 C.3       4 UNK        -0.1800 
     54 N           2.5493  -13.0006  -43.0128 N.am      4 UNK        -0.5000 
     55 C           3.1976  -12.0558  -43.6993 C.2       3 UNK         0.5000 
     56 O           3.9025  -11.1879  -43.1832 O.2       3 UNK        -0.5000 
     57 CA          2.9938  -12.0742  -45.2292 C.3       3 UNK         0.1400 
     58 CB          4.0219  -13.0000  -45.8978 C.3       3 UNK        -0.1800 
     59 N           1.6433  -12.4907  -45.6277 N.am      3 UNK        -0.5000 
     60 C           0.5254  -11.7964  -45.3678 C.2       2 UNK         0.5000 
     61 O           0.5213  -10.7040  -44.7970 O.2       2 UNK        -0.5000 
     62 CA         -0.8022  -12.4443  -45.8171 C.3       2 UNK         0.1400 
     63 CB         -2.0168  -11.5060  -45.6568 C.3       2 UNK        -0.1800 
     64 N          -0.7654  -13.0010  -47.1754 N.am      2 UNK        -0.5000 
     65 C          -0.5212  -12.3399  -48.3197 C.2       1 UNK         0.5000 
     66 O          -0.1756  -11.1589  -48.3717 O.2       1 UNK        -0.5000 
     67 C          -0.9215  -22.0453  -47.4658 C.2       11 UNK         0.5000 
     68 O          -1.1083  -22.7230  -48.4759 O.2       11 UNK        -0.5000 
     69 N          -1.9155  -21.6274  -46.6654 N.am      12 UNK        -0.5000 
     70 CA         -3.3202  -22.0002  -46.8422 C.3       12 UNK         0.1400 
     71 CB         -4.2177  -21.1917  -45.8956 C.3       12 UNK        -0.1800 
     72 C          -3.5599  -23.5066  -46.6658 C.2       12 UNK         0.5000 
     73 O          -4.3124  -24.0875  -47.4455 O.2       12 UNK        -0.5000 
     74 N          -2.8901  -24.1199  -45.6804 N.am      13 UNK        -0.5000 
     75 CA         -2.9075  -25.5658  -45.4644 C.3       13 UNK         0.1400 
     76 CB         -2.2719  -25.8928  -44.1046 C.3       13 UNK        -0.1800 
     77 C          -2.2107  -26.3373  -46.6014 C.2       13 UNK         0.5000 
     78 O          -2.7279  -27.3652  -47.0395 O.2       13 UNK        -0.5000 
     79 N          -1.0632  -25.8227  -47.0656 N.am      14 UNK        -0.5000 
     80 CA         -0.2551  -26.4221  -48.1277 C.3       14 UNK         0.1400 
     81 CB          1.1281  -25.7540  -48.1586 C.3       14 UNK        -0.1800 
     82 C          -0.9217  -26.3565  -49.5145 C.2       14 UNK         0.5000 
     83 O          -0.9854  -27.3750  -50.2040 O.2       14 UNK        -0.5000 
     84 N          -1.3965  -25.1654  -49.9033 N.am      15 UNK        -0.5000 
     85 CA         -1.9787  -24.8986  -51.2225 C.3       15 UNK         0.1400 
     86 CB         -1.6689  -23.4455  -51.6130 C.3       15 UNK        -0.1800 
     87 C          -3.4935  -25.1776  -51.2924 C.2       15 UNK         0.5000 
     88 O          -4.0717  -25.0798  -52.3748 O.2       15 UNK        -0.5000 
     89 N          -4.1163  -25.4939  -50.1482 N.am      16 UNK        -0.5000 
     90 CA         -5.5292  -25.8248  -49.9113 C.3       16 UNK         0.1400 
     91 CB         -5.9750  -27.0447  -50.7398 C.3       16 UNK        -0.1800 
     92 C          -6.5037  -24.6422  -50.0838 C.2       16 UNK         0.5000 
     93 O          -7.3615  -24.4398  -49.2237 O.2       16 UNK        -0.5000 
     94 N          -6.3522  -23.8774  -51.1708 N.am      17 UNK        -0.5000 
     95 CA         -7.1197  -22.6649  -51.4721 C.3       17 UNK         0.1400 
     96 CB         -7.6460  -22.7488  -52.9146 C.3       17 UNK        -0.1800 
     97 C          -6.2805  -21.3892  -51.2615 C.2       17 UNK         0.5000 
     98 O          -6.7188  -20.3068  -51.6526 O.2       17 UNK        -0.5000 
     99 N          -5.0886  -21.5308  -50.6622 N.am      18 UNK        -0.5000 
    100 CA        -4.0940  -20.4799  -50.4367 C.3       18 UNK         0.1400 
    101 CB        -4.6280  -19.4336  -49.4288 C.3       18 UNK        -0.1800 
    102 C         -3.5908  -19.8827  -51.7685 C.2       18 UNK         0.5000 
    103 O         -3.3735  -20.6288  -52.7261 O.2       18 UNK        -0.5000 
    104 N         -3.4294  -18.5542  -51.8212 N.am      19 UNK        -0.5000 
    105 CA        -2.9320  -17.8137  -52.9826 C.3       19 UNK         0.1400 
    106 CB        -2.7352  -16.3415  -52.5947 C.3       19 UNK        -0.1800 
    107 C         -3.8173  -17.9311  -54.2409 C.2       19 UNK         0.5000 
    108 O         -3.3179  -17.7082  -55.3433 O.2       19 UNK        -0.5000 
    109 N         -5.0946  -18.3082  -54.0749 N.am      20 UNK        -0.5000 
    110 CA        -6.0316  -18.5547  -55.1732 C.3       20 UNK         0.1400 
    111 CB        -7.4569  -18.6870  -54.6169 C.3       20 UNK        -0.1800 
    112 C         -5.6643  -19.7877  -56.0229 C.2       20 UNK         0.5000 
    113 O         -5.9893  -19.8101  -57.2107 O.2       20 UNK        -0.5000 
    114 N         -4.9819  -20.7749  -55.4220 N.am      21 UNK        -0.5000 
    115 CA        -4.4095  -21.9132  -56.1439 C.3       21 UNK         0.1400 
    116 CB        -4.1935  -23.0918  -55.1815 C.3       21 UNK        -0.1800 
    117 C         -3.0861  -21.5366  -56.8318 C.2       21 UNK         0.5000 
    118 O         -2.8243  -21.9971  -57.9439 O.2       21 UNK        -0.5000 
    119 N         -2.2759  -20.7206  -56.1483 N.am      22 UNK        -0.5000 
    120 CA        -0.9449  -20.2894  -56.5996 C.3       22 UNK         0.1400 
    121 C         -0.9749  -19.2276  -57.7328 C.2       22 UNK         0.5000 
    122 N         -1.9288  -18.3060  -57.7421 N.am      22 UNK        -0.7600 
    123 O         -0.1243  -19.2449  -58.6183 O.2       22 UNK        -0.5000 
    124 C124       -0.0725  -19.8052  -55.4170 C.3       23 UNK        -0.0398 
    125 S125        0.0969  -21.0911  -54.1344 S.3       23 UNK        -0.2404 
    126 C126        1.4898  -20.4457  -53.1658 C.3       23 UNK        -0.0205 
    127 H127       -3.1395  -16.3155  -49.4088 H         1 UNK         0.0600 
    128 H128       -4.1533  -15.5522  -48.1811 H         1 UNK         0.0600 
    129 H129       -4.5946  -15.4416  -49.8881 H         1 UNK         0.0600 
    130 H130       -1.2301  -15.1704  -49.5889 H         1 UNK         0.3000 
    131 H131       -1.1738  -12.4203  -50.3431 H         1 UNK         0.0600 
    132 H132        1.1415  -14.2601  -49.5692 H         1 UNK         0.0800 
    133 H133        1.3151  -12.6903  -50.3078 H         1 UNK         0.0800 
    134 H134        2.5474  -15.3166  -51.1643 H         1 UNK         0.0800 
    135 H135        2.2780  -15.5203  -52.8717 H         1 UNK         0.0800 
    136 H136        2.1394  -17.8017  -53.3922 H         1 UNK         0.1150 
    137 H137       -0.0660  -20.5391  -50.9465 H         1 UNK         0.1150 
    138 H138        0.2610  -16.4300  -49.7899 H         1 UNK         0.1150 
    139 H139       -1.5618  -17.9776  -48.8662 H         1 UNK         0.0800 
    140 H140       -1.4180  -19.6970  -49.1221 H         1 UNK         0.0800 
    141 H141        2.1189  -20.2861  -47.4326 H         1 UNK         0.0800 
    142 H142        1.1817  -20.6507  -48.8371 H         1 UNK         0.0800 
    143 H143        1.1331  -22.5321  -47.4290 H         1 UNK         0.0600 
    144 H144        0.8980  -20.7953  -45.1673 H         1 UNK         0.3000 
    145 H145        0.6187  -23.6120  -42.8837 H         1 UNK         0.0600 
    146 H146        2.5421  -22.3883  -41.9435 H         1 UNK         0.0600 
    147 H147        3.0149  -23.1698  -43.4445 H         1 UNK         0.0600 
    148 H148        2.7093  -21.4373  -43.4166 H         1 UNK         0.0600 
    149 H149        0.5428  -20.8357  -42.3362 H         1 UNK         0.3000 
    150 H150       -3.0316  -20.4632  -42.4169 H         1 UNK         0.0600 
    151 H151       -2.3663  -21.4277  -40.2052 H         1 UNK         0.0600 
    152 H152       -2.5090  -19.6775  -40.1301 H         1 UNK         0.0600 
    153 H153       -0.9171  -20.4289  -40.1971 H         1 UNK         0.0600 
    154 H154       -1.0028  -18.5669  -41.8595 H         1 UNK         0.3000 
    155 H155       -0.5444  -17.3816  -45.2294 H         1 UNK         0.0600 
    156 H156       -1.7099  -16.2181  -42.6512 H         1 UNK         0.0600 
    157 H157       -2.5098  -16.2448  -44.2188 H         1 UNK         0.0600 
    158 H158       -1.0453  -15.3001  -43.9968 H         1 UNK         0.0600 
    159 H159        0.7744  -16.5964  -42.8863 H         1 UNK         0.3000 
    160 H160        3.4869  -18.9443  -42.9232 H         1 UNK         0.0600 
    161 H161        4.6652  -16.7539  -42.8523 H         1 UNK         0.0600 
    162 H162        3.2115  -15.9283  -43.4138 H         1 UNK         0.0600 
    163 H163        4.0369  -17.0710  -44.4613 H         1 UNK         0.0600 
    164 H164        2.7246  -16.8465  -41.1243 H         1 UNK         0.3000 
    165 H165        0.8738  -18.8530  -38.8382 H         1 UNK         0.0600 
    166 H166        2.6168  -17.9998  -37.2956 H         1 UNK         0.0600 
    167 H167        3.2735  -19.2859  -38.2953 H         1 UNK         0.0600 
    168 H168        3.6725  -17.6100  -38.6538 H         1 UNK         0.0600 
    169 H169        1.7089  -16.1068  -38.8328 H         1 UNK         0.3000 
    170 H170       -1.2006  -14.7974  -40.4416 H         1 UNK         0.0600 
    171 H171       -1.7672  -15.1588  -38.0325 H         1 UNK         0.0600 
    172 H172       -0.1480  -14.6519  -37.5662 H         1 UNK         0.0600 
    173 H173       -1.2492  -13.5084  -38.3346 H         1 UNK         0.0600 
    174 H174        1.0498  -13.4443  -39.4114 H         1 UNK         0.3000 
    175 H175        2.2087  -12.1905  -41.1174 H         1 UNK         0.0600 
    176 H176        4.0698  -14.6344  -41.4342 H         1 UNK         0.0600 
    177 H177        4.6019  -12.9784  -41.1625 H         1 UNK         0.0600 
    178 H178        3.7144  -13.8286  -39.9114 H         1 UNK         0.0600 
    179 H179        1.9714  -13.6643  -43.5138 H         1 UNK         0.3000 
    180 H180        3.1565  -11.0592  -45.5976 H         1 UNK         0.0600 
    181 H181        3.8946  -14.0373  -45.5850 H         1 UNK         0.0600 
    182 H182        5.0395  -12.7027  -45.6407 H         1 UNK         0.0600 
    183 H183        3.9386  -12.9632  -46.9842 H         1 UNK         0.0600 
    184 H184        1.5635  -13.3695  -46.1174 H         1 UNK         0.3000 
    185 H185       -0.9603  -13.2884  -45.1466 H         1 UNK         0.0600 
    186 H186       -2.1322  -11.1870  -44.6203 H         1 UNK         0.0600 
    187 H187       -1.9181  -10.6079  -46.2673 H         1 UNK         0.0600 
    188 H188       -2.9413  -12.0063  -45.9458 H         1 UNK         0.0600 
    189 H189       -1.0372  -13.9702  -47.2551 H         1 UNK         0.3000 
    190 H190       -1.7031  -21.0172  -45.8811 H         1 UNK         0.3000 
    191 H191       -3.6036  -21.7518  -47.8637 H         1 UNK         0.0600 
    192 H192       -3.9495  -21.3530  -44.8510 H         1 UNK         0.0600 
    193 H193       -5.2650  -21.4723  -46.0143 H         1 UNK         0.0600 
    194 H194       -4.1447  -20.1239  -46.1016 H         1 UNK         0.0600 
    195 H195       -2.3198  -23.5670  -45.0499 H         1 UNK         0.3000 
    196 H196       -3.9502  -25.8894  -45.4340 H         1 UNK         0.0600 
    197 H197       -2.2956  -26.9658  -43.9105 H         1 UNK         0.0600 
    198 H198       -2.8084  -25.4027  -43.2920 H         1 UNK         0.0600 
    199 H199       -1.2309  -25.5730  -44.0559 H         1 UNK         0.0600 
    200 H200       -0.6806  -25.0010  -46.6090 H         1 UNK         0.3000 
    201 H201       -0.1096  -27.4758  -47.8799 H         1 UNK         0.0600 
    202 H202        1.6324  -25.8446  -47.1963 H         1 UNK         0.0600 
    203 H203        1.0582  -24.6939  -48.4016 H         1 UNK         0.0600 
    204 H204        1.7696  -26.2199  -48.9076 H         1 UNK         0.0600 
    205 H205       -1.2968  -24.3614  -49.2857 H         1 UNK         0.3000 
    206 H206       -1.5018  -25.5450  -51.9621 H         1 UNK         0.0600 
    207 H207       -0.5975  -23.2465  -51.5857 H         1 UNK         0.0600 
    208 H208       -2.0104  -23.2257  -52.6245 H         1 UNK         0.0600 
    209 H209       -2.1554  -22.7394  -50.9438 H         1 UNK         0.0600 
    210 H210       -3.5517  -25.4775  -49.3093 H         1 UNK         0.3000 
    211 H211       -5.5808  -26.1162  -48.8610 H         1 UNK         0.0600 
    212 H212       -5.9807  -26.8351  -51.8096 H         1 UNK         0.0600 
    213 H213       -6.9850  -27.3507  -50.4649 H         1 UNK         0.0600 
    214 H214       -5.3187  -27.8978  -50.5680 H         1 UNK         0.0600 
    215 H215       -5.6213  -24.1389  -51.8286 H         1 UNK         0.3000 
    216 H216       -7.9821  -22.5887  -50.8074 H         1 UNK         0.0600 
    217 H217       -8.3434  -21.9366  -53.1227 H         1 UNK         0.0600 
    218 H218       -8.1776  -23.6841  -53.0903 H         1 UNK         0.0600 
    219 H219       -6.8395  -22.6757  -53.6417 H         1 UNK         0.0600 
    220 H220       -4.8155  -22.4659  -50.3995 H         1 UNK         0.3000 
    221 H221       -3.2312  -20.9660  -49.9843 H         1 UNK         0.0600 
    222 H222       -5.4139  -18.8109  -49.8578 H         1 UNK         0.0600 
    223 H223       -5.0480  -19.9175  -48.5475 H         1 UNK         0.0600 
    224 H224       -3.8358  -18.7739  -49.0776 H         1 UNK         0.0600 
    225 H225       -3.6705  -18.0074  -51.0094 H         1 UNK         0.3000 
    226 H226       -1.9542  -18.2281  -53.2344 H         1 UNK         0.0600 
    227 H227       -3.6747  -15.8709  -52.3035 H         1 UNK         0.0600 
    228 H228       -2.0341  -16.2435  -51.7668 H         1 UNK         0.0600 
    229 H229       -2.3251  -15.7690  -53.4279 H         1 UNK         0.0600 
    230 H230       -5.4286  -18.5039  -53.1413 H         1 UNK         0.3000 
    231 H231       -6.0072  -17.6834  -55.8312 H         1 UNK         0.0600 
    232 H232       -7.7292  -17.8240  -54.0093 H         1 UNK         0.0600 
    233 H233       -7.5690  -19.5810  -54.0043 H         1 UNK         0.0600 
    234 H234       -8.1837  -18.7569  -55.4271 H         1 UNK         0.0600 
    235 H235       -4.7231  -20.6752  -54.4474 H         1 UNK         0.3000 
    236 H236       -5.1069  -22.2388  -56.9187 H         1 UNK         0.0600 
    237 H237       -3.6576  -23.9060  -55.6711 H         1 UNK         0.0600 
    238 H238       -3.6128  -22.7999  -54.3072 H         1 UNK         0.0600 
    239 H239       -5.1396  -23.5028  -54.8353 H         1 UNK         0.0600 
    240 H240       -2.5594  -20.4116  -55.2301 H         1 UNK         0.3000 
    241 H241       -0.4499  -21.1676  -57.0199 H         1 UNK         0.0600 
    242 H242       -1.9513  -17.6223  -58.4814 H         1 UNK         0.3800 
    243 H243       -2.5700  -18.2174  -56.9568 H         1 UNK         0.3800 
    244 H244        0.9243  -19.5353  -55.7704 H         1 UNK         0.0800 
    245 H245       -0.4943  -18.9067  -54.9653 H         1 UNK         0.0800 
    246 H246        1.8832  -21.2523  -52.5455 H         1 UNK         0.0800 
    247 H247        2.3022  -20.1551  -53.8336 H         1 UNK         0.0800 
@<TRIPOS>BOND
     1    1    2 1    
     2    1  127 1    
     3    1  128 1    
     4    1  129 1    
     5    2    3 2    
     6    2    4 am   BACKBONE|DICT|INTERRES
     7    4    5 1    
     8    4  130 1    
     9    5    6 1    
    10    5   65 1    
    11    5  131 1    
    12    6    7 1    
    13    6  132 1    
    14    6  133 1    
    15    7    8 1    
    16    8    9 1    
    17    8  134 1    
    18    8  135 1    
    19    9   10 ar   
    20    9   14 ar   
    21   10   11 ar   
    22   10  136 1    
    23   11   12 ar   
    24   11  126 1    
    25   12   13 ar   
    26   12  137 1    
    27   13   14 ar   
    28   13   15 1    
    29   14  138 1    
    30   15   16 1    
    31   15  139 1    
    32   15  140 1    
    33   16   17 1    
    34   17   18 1    
    35   17  141 1    
    36   17  142 1    
    37   18   19 1    
    38   18   67 1    
    39   18  143 1    
    40   19   20 am   BACKBONE|DICT|INTERRES
    41   19  144 1    
    42   20   21 2    
    43   20   22 1    
    44   22   23 1    
    45   22   24 1    
    46   22  145 1    
    47   23  146 1    
    48   23  147 1    
    49   23  148 1    
    50   24   25 am   BACKBONE|DICT|INTERRES
    51   24  149 1    
    52   25   26 2    
    53   25   27 1    
    54   27   28 1    
    55   27   29 1    
    56   27  150 1    
    57   28  151 1    
    58   28  152 1    
    59   28  153 1    
    60   29   30 am   BACKBONE|DICT|INTERRES
    61   29  154 1    
    62   30   31 2    
    63   30   32 1    
    64   32   33 1    
    65   32   34 1    
    66   32  155 1    
    67   33  156 1    
    68   33  157 1    
    69   33  158 1    
    70   34   35 am   BACKBONE|DICT|INTERRES
    71   34  159 1    
    72   35   36 2    
    73   35   37 1    
    74   37   38 1    
    75   37   39 1    
    76   37  160 1    
    77   38  161 1    
    78   38  162 1    
    79   38  163 1    
    80   39   40 am   BACKBONE|DICT|INTERRES
    81   39  164 1    
    82   40   41 2    
    83   40   42 1    
    84   42   43 1    
    85   42   44 1    
    86   42  165 1    
    87   43  166 1    
    88   43  167 1    
    89   43  168 1    
    90   44   45 am   BACKBONE|DICT|INTERRES
    91   44  169 1    
    92   45   46 2    
    93   45   47 1    
    94   47   48 1    
    95   47   49 1    
    96   47  170 1    
    97   48  171 1    
    98   48  172 1    
    99   48  173 1    
   100   49   50 am   BACKBONE|DICT|INTERRES
   101   49  174 1    
   102   50   51 2    
   103   50   52 1    
   104   52   53 1    
   105   52   54 1    
   106   52  175 1    
   107   53  176 1    
   108   53  177 1    
   109   53  178 1    
   110   54   55 am   BACKBONE|DICT|INTERRES
   111   54  179 1    
   112   55   56 2    
   113   55   57 1    
   114   57   58 1    
   115   57   59 1    
   116   57  180 1    
   117   58  181 1    
   118   58  182 1    
   119   58  183 1    
   120   59   60 am   BACKBONE|DICT|INTERRES
   121   59  184 1    
   122   60   61 2    
   123   60   62 1    
   124   62   63 1    
   125   62   64 1    
   126   62  185 1    
   127   63  186 1    
   128   63  187 1    
   129   63  188 1    
   130   64   65 am   BACKBONE|DICT|INTERRES
   131   64  189 1    
   132   65   66 2    
   133   67   68 2    
   134   67   69 am   BACKBONE|DICT|INTERRES
   135   69   70 1    
   136   69  190 1    
   137   70   71 1    
   138   70   72 1    
   139   70  191 1    
   140   71  192 1    
   141   71  193 1    
   142   71  194 1    
   143   72   73 2    
   144   72   74 am   BACKBONE|DICT|INTERRES
   145   74   75 1    
   146   74  195 1    
   147   75   76 1    
   148   75   77 1    
   149   75  196 1    
   150   76  197 1    
   151   76  198 1    
   152   76  199 1    
   153   77   78 2    
   154   77   79 am   BACKBONE|DICT|INTERRES
   155   79   80 1    
   156   79  200 1    
   157   80   81 1    
   158   80   82 1    
   159   80  201 1    
   160   81  202 1    
   161   81  203 1    
   162   81  204 1    
   163   82   83 2    
   164   82   84 am   BACKBONE|DICT|INTERRES
   165   84   85 1    
   166   84  205 1    
   167   85   86 1    
   168   85   87 1    
   169   85  206 1    
   170   86  207 1    
   171   86  208 1    
   172   86  209 1    
   173   87   88 2    
   174   87   89 am   BACKBONE|DICT|INTERRES
   175   89   90 1    
   176   89  210 1    
   177   90   91 1    
   178   90   92 1    
   179   90  211 1    
   180   91  212 1    
   181   91  213 1    
   182   91  214 1    
   183   92   93 2    
   184   92   94 am   BACKBONE|DICT|INTERRES
   185   94   95 1    
   186   94  215 1    
   187   95   96 1    
   188   95   97 1    
   189   95  216 1    
   190   96  217 1    
   191   96  218 1    
   192   96  219 1    
   193   97   98 2    
   194   97   99 am   BACKBONE|DICT|INTERRES
   195   99  100 1    
   196   99  220 1    
   197  100  101 1    
   198  100  102 1    
   199  100  221 1    
   200  101  222 1    
   201  101  223 1    
   202  101  224 1    
   203  102  103 2    
   204  102  104 am   BACKBONE|DICT|INTERRES
   205  104  105 1    
   206  104  225 1    
   207  105  106 1    
   208  105  107 1    
   209  105  226 1    
   210  106  227 1    
   211  106  228 1    
   212  106  229 1    
   213  107  108 2    
   214  107  109 am   BACKBONE|DICT|INTERRES
   215  109  110 1    
   216  109  230 1    
   217  110  111 1    
   218  110  112 1    
   219  110  231 1    
   220  111  232 1    
   221  111  233 1    
   222  111  234 1    
   223  112  113 2    
   224  112  114 am   BACKBONE|DICT|INTERRES
   225  114  115 1    
   226  114  235 1    
   227  115  116 1    
   228  115  117 1    
   229  115  236 1    
   230  116  237 1    
   231  116  238 1    
   232  116  239 1    
   233  117  118 2    
   234  117  119 am   BACKBONE|DICT|INTERRES
   235  119  120 1    
   236  119  240 1    
   237  120  121 1    
   238  120  124 1    
   239  120  241 1    
   240  121  122 am   BACKBONE|DICT|INTERRES
   241  121  123 2    
   242  122  242 1    
   243  122  243 1    
   244  124  125 1    
   245  124  244 1    
   246  124  245 1    
   247  125  126 1    
   248  126  246 1    
   249  126  247 1    
@<TRIPOS>SUBSTRUCTURE
     1 UNK         1 GROUP             0       ****    0 ROOT    
