@<TRIPOS>MOLECULE
3R540
247   249    1
SMALL
USER_CHARGES


@<TRIPOS>ATOM
      1 CA          5.4636  -13.1753  -44.9481 C.3       0 UNK        -0.1800 
      2 C           3.9715  -13.0116  -45.1918 C.2       0 UNK         0.5000 
      3 O           3.2210  -12.7732  -44.2453 O.2       0 UNK        -0.5000 
      4 N           3.5362  -13.1361  -46.4532 N.am      1 UNK        -0.5000 
      5 CA          2.1313  -13.0364  -46.8725 C.3       1 UNK         0.1400 
      6 C6          1.9155  -13.4189  -48.3586 C.3       23 UNK        -0.0398 
      7 S7          2.6251  -15.0349  -48.8251 S.3       23 UNK        -0.2404 
      8 C8          1.1831  -16.1371  -48.6832 C.3       23 UNK        -0.0205 
      9 C9          1.4037  -17.4376  -49.4429 C.ar      23 UNK        -0.0193 
     10 C10         0.6613  -17.7102  -50.5945 C.ar      23 UNK        -0.1150 
     11 C11         0.8533  -18.8986  -51.3054 C.ar      23 UNK        -0.0193 
     12 C12         1.8145  -19.8139  -50.8629 C.ar      23 UNK        -0.1150 
     13 C13         2.5797  -19.5448  -49.7223 C.ar      23 UNK        -0.0193 
     14 C14         2.3560  -18.3633  -49.0075 C.ar      23 UNK        -0.1150 
     15 C15         3.6986  -20.4906  -49.3034 C.3       23 UNK        -0.0205 
     16 S16         3.0992  -22.0374  -48.5547 S.3       23 UNK        -0.2404 
     17 C17         2.3871  -21.4447  -46.9816 C.3       23 UNK        -0.0398 
     18 CA          1.0110  -22.0754  -46.6673 C.3       11 UNK         0.1400 
     19 N           0.5802  -21.7911  -45.2973 N.am      11 UNK        -0.5000 
     20 C          -0.4849  -22.3447  -44.7004 C.2       10 UNK         0.5000 
     21 O          -1.1914  -23.2057  -45.2233 O.2       10 UNK        -0.5000 
     22 CA         -0.8561  -21.8094  -43.3064 C.3       10 UNK         0.1400 
     23 CB          0.0282  -22.4442  -42.2232 C.3       10 UNK        -0.1800 
     24 N          -0.7689  -20.3505  -43.2292 N.am      10 UNK        -0.5000 
     25 C          -1.5294  -19.5082  -43.9446 C.2       9 UNK         0.5000 
     26 O          -2.4331  -19.8752  -44.6960 O.2       9 UNK        -0.5000 
     27 CA         -1.1896  -18.0096  -43.8450 C.3       9 UNK         0.1400 
     28 CB         -1.7778  -17.3938  -42.5669 C.3       9 UNK        -0.1800 
     29 N           0.2506  -17.7572  -43.8910 N.am      9 UNK        -0.5000 
     30 C           1.0437  -18.0437  -44.9320 C.2       8 UNK         0.5000 
     31 O           0.6365  -18.5116  -45.9926 O.2       8 UNK        -0.5000 
     32 CA          2.5525  -17.8263  -44.7371 C.3       8 UNK         0.1400 
     33 CB          2.9329  -16.3529  -44.9303 C.3       8 UNK        -0.1800 
     34 N           3.0002  -18.2849  -43.4237 N.am      8 UNK        -0.5000 
     35 C           3.0631  -19.5725  -43.0579 C.2       7 UNK         0.5000 
     36 O           2.7759  -20.5090  -43.8030 O.2       7 UNK        -0.5000 
     37 CA          3.4821  -19.8570  -41.6045 C.3       7 UNK         0.1400 
     38 CB          5.0123  -19.8607  -41.4729 C.3       7 UNK        -0.1800 
     39 N           2.9151  -18.8943  -40.6591 N.am      7 UNK        -0.5000 
     40 C           1.6087  -18.7962  -40.3766 C.2       6 UNK         0.5000 
     41 O           0.7459  -19.5249  -40.8651 O.2       6 UNK        -0.5000 
     42 CA          1.1929  -17.6580  -39.4274 C.3       6 UNK         0.1400 
     43 CB          1.3736  -18.0814  -37.9621 C.3       6 UNK        -0.1800 
     44 N           1.9114  -16.4016  -39.6658 N.am      6 UNK        -0.5000 
     45 C           1.8767  -15.7151  -40.8153 C.2       5 UNK         0.5000 
     46 O           1.3054  -16.1142  -41.8319 O.2       5 UNK        -0.5000 
     47 CA          2.6323  -14.3749  -40.8477 C.3       5 UNK         0.1400 
     48 CB          4.0491  -14.5719  -41.4080 C.3       5 UNK        -0.1800 
     49 N           1.9321  -13.3857  -41.6658 N.am      5 UNK        -0.5000 
     50 C           0.7276  -12.8700  -41.3796 C.2       4 UNK         0.5000 
     51 O           0.1034  -13.1228  -40.3466 O.2       4 UNK        -0.5000 
     52 CA          0.1442  -11.8953  -42.4231 C.3       4 UNK         0.1400 
     53 CB         -1.1128  -11.1466  -41.9331 C.3       4 UNK        -0.1800 
     54 N           1.1530  -10.9599  -42.9241 N.am      4 UNK        -0.5000 
     55 C           1.8542  -10.0524  -42.2266 C.2       3 UNK         0.5000 
     56 O           1.6722   -9.8065  -41.0336 O.2       3 UNK        -0.5000 
     57 CA          2.9680   -9.3017  -42.9843 C.3       3 UNK         0.1400 
     58 CB          4.3511   -9.7943  -42.5279 C.3       3 UNK        -0.1800 
     59 N           2.8697   -9.4614  -44.4362 N.am      3 UNK        -0.5000 
     60 C           2.0362   -8.7729  -45.2277 C.2       2 UNK         0.5000 
     61 O           1.3082   -7.8634  -44.8293 O.2       2 UNK        -0.5000 
     62 CA          1.9967   -9.1849  -46.7116 C.3       2 UNK         0.1400 
     63 CB          2.9478   -8.3070  -47.5390 C.3       2 UNK        -0.1800 
     64 N           2.3413  -10.5937  -46.9234 N.am      2 UNK        -0.5000 
     65 C           1.5532  -11.6314  -46.6041 C.2       1 UNK         0.5000 
     66 O           0.4414  -11.5146  -46.0892 O.2       1 UNK        -0.5000 
     67 C          -0.0698  -21.6860  -47.6974 C.2       11 UNK         0.5000 
     68 O          -0.4085  -22.5096  -48.5447 O.2       11 UNK        -0.5000 
     69 N          -0.6358  -20.4779  -47.5701 N.am      12 UNK        -0.5000 
     70 CA         -1.7095  -19.9712  -48.4263 C.3       12 UNK         0.1400 
     71 CB         -2.0114  -18.5098  -48.0624 C.3       12 UNK        -0.1800 
     72 C          -2.9953  -20.8175  -48.3632 C.2       12 UNK         0.5000 
     73 O          -3.6606  -20.9867  -49.3845 O.2       12 UNK        -0.5000 
     74 N          -3.3146  -21.3435  -47.1726 N.am      13 UNK        -0.5000 
     75 CA         -4.4276  -22.2645  -46.9517 C.3       13 UNK         0.1400 
     76 CB         -4.7231  -22.3551  -45.4466 C.3       13 UNK        -0.1800 
     77 C          -4.1665  -23.6624  -47.5451 C.2       13 UNK         0.5000 
     78 O          -5.0823  -24.2582  -48.1121 O.2       13 UNK        -0.5000 
     79 N          -2.9334  -24.1654  -47.3961 N.am      14 UNK        -0.5000 
     80 CA         -2.5085  -25.4770  -47.8858 C.3       14 UNK         0.1400 
     81 CB         -1.1969  -25.8770  -47.1930 C.3       14 UNK        -0.1800 
     82 C          -2.3472  -25.5362  -49.4156 C.2       14 UNK         0.5000 
     83 O          -2.6682  -26.5642  -50.0141 O.2       14 UNK        -0.5000 
     84 N          -1.8398  -24.4509  -50.0161 N.am      15 UNK        -0.5000 
     85 CA         -1.5643  -24.3034  -51.4453 C.3       15 UNK         0.1400 
     86 CB         -0.9905  -22.9035  -51.7086 C.3       15 UNK        -0.1800 
     87 C          -2.8034  -24.5698  -52.3207 C.2       15 UNK         0.5000 
     88 O          -3.7914  -23.8423  -52.2199 O.2       15 UNK        -0.5000 
     89 N          -2.7167  -25.6331  -53.1335 N.am      16 UNK        -0.5000 
     90 CA         -3.7481  -26.1796  -54.0256 C.3       16 UNK         0.1400 
     91 CB         -4.1939  -25.1372  -55.0725 C.3       16 UNK        -0.1800 
     92 C          -4.9486  -26.8344  -53.3050 C.2       16 UNK         0.5000 
     93 O          -5.9112  -27.2088  -53.9778 O.2       16 UNK        -0.5000 
     94 N          -4.8688  -26.9967  -51.9738 N.am      17 UNK        -0.5000 
     95 CA         -5.8559  -27.5557  -51.0378 C.3       17 UNK         0.1400 
     96 CB         -6.1381  -29.0407  -51.3363 C.3       17 UNK        -0.1800 
     97 C          -7.1618  -26.7418  -50.9287 C.2       17 UNK         0.5000 
     98 O          -7.5451  -26.3480  -49.8266 O.2       17 UNK        -0.5000 
     99 N          -7.8136  -26.4990  -52.0682 N.am      18 UNK        -0.5000 
    100 CA        -8.9180  -25.5612  -52.2353 C.3       18 UNK         0.1400 
    101 CB        -9.8192  -26.0742  -53.3703 C.3       18 UNK        -0.1800 
    102 C         -8.3643  -24.1676  -52.5789 C.2       18 UNK         0.5000 
    103 O         -7.2021  -24.0415  -52.9721 O.2       18 UNK        -0.5000 
    104 N         -9.2189  -23.1411  -52.4897 N.am      19 UNK        -0.5000 
    105 CA        -8.9121  -21.7419  -52.8146 C.3       19 UNK         0.1400 
    106 CB        -9.9542  -20.8388  -52.1302 C.3       19 UNK        -0.1800 
    107 C         -8.8006  -21.4708  -54.3356 C.2       19 UNK         0.5000 
    108 O         -9.3414  -20.4827  -54.8364 O.2       19 UNK        -0.5000 
    109 N         -8.0924  -22.3494  -55.0532 N.am      20 UNK        -0.5000 
    110 CA        -7.8586  -22.3176  -56.4952 C.3       20 UNK         0.1400 
    111 CB        -7.5908  -23.7546  -56.9766 C.3       20 UNK        -0.1800 
    112 C         -6.7173  -21.3450  -56.8512 C.2       20 UNK         0.5000 
    113 O         -5.6792  -21.7627  -57.3691 O.2       20 UNK        -0.5000 
    114 N         -6.9196  -20.0621  -56.5172 N.am      21 UNK        -0.5000 
    115 CA        -6.0329  -18.9174  -56.7699 C.3       21 UNK         0.1400 
    116 CB        -6.0116  -18.5900  -58.2774 C.3       21 UNK        -0.1800 
    117 C         -4.6119  -19.0714  -56.1799 C.2       21 UNK         0.5000 
    118 O         -3.6610  -18.4959  -56.7122 O.2       21 UNK        -0.5000 
    119 N         -4.4927  -19.8497  -55.0944 N.am      22 UNK        -0.5000 
    120 CA        -3.2273  -20.2445  -54.4506 C.3       22 UNK         0.1400 
    121 C         -2.3562  -21.2235  -55.3021 C.2       22 UNK         0.5000 
    122 N         -2.8983  -21.8836  -56.3203 N.am      22 UNK        -0.7600 
    123 O         -1.1710  -21.4015  -55.0385 O.2       22 UNK        -0.5000 
    124 C124       -2.4329  -19.0152  -53.9130 C.3       23 UNK        -0.0398 
    125 S125       -1.7311  -19.2725  -52.2491 S.3       23 UNK        -0.2404 
    126 C126        0.0562  -19.1543  -52.5779 C.3       23 UNK        -0.0205 
    127 H127        5.6403  -13.9970  -44.2544 H         1 UNK         0.0600 
    128 H128        5.8738  -12.2650  -44.5115 H         1 UNK         0.0600 
    129 H129        6.0042  -13.3860  -45.8710 H         1 UNK         0.0600 
    130 H130        4.1946  -13.3562  -47.1872 H         1 UNK         0.3000 
    131 H131        1.5628  -13.7411  -46.2616 H         1 UNK         0.0600 
    132 H132        2.3743  -12.6737  -49.0111 H         1 UNK         0.0800 
    133 H133        0.8518  -13.4090  -48.6027 H         1 UNK         0.0800 
    134 H134        0.2944  -15.6308  -49.0623 H         1 UNK         0.0800 
    135 H135        0.9883  -16.3534  -47.6328 H         1 UNK         0.0800 
    136 H136       -0.0714  -16.9963  -50.9438 H         1 UNK         0.1150 
    137 H137        1.9874  -20.7252  -51.4181 H         1 UNK         0.1150 
    138 H138        2.9429  -18.1437  -48.1270 H         1 UNK         0.1150 
    139 H139        4.2956  -20.7399  -50.1817 H         1 UNK         0.0800 
    140 H140        4.3805  -19.9987  -48.6078 H         1 UNK         0.0800 
    141 H141        2.3190  -20.3574  -46.9795 H         1 UNK         0.0800 
    142 H142        3.0970  -21.7006  -46.1944 H         1 UNK         0.0800 
    143 H143        1.1309  -23.1593  -46.7285 H         1 UNK         0.0600 
    144 H144        1.1388  -21.1214  -44.7784 H         1 UNK         0.3000 
    145 H145       -1.8918  -22.0925  -43.1076 H         1 UNK         0.0600 
    146 H146       -0.2874  -22.1346  -41.2268 H         1 UNK         0.0600 
    147 H147       -0.0304  -23.5327  -42.2594 H         1 UNK         0.0600 
    148 H148        1.0756  -22.1666  -42.3429 H         1 UNK         0.0600 
    149 H149       -0.0832  -19.9688  -42.5843 H         1 UNK         0.3000 
    150 H150       -1.6415  -17.5086  -44.7035 H         1 UNK         0.0600 
    151 H151       -2.8578  -17.5394  -42.5246 H         1 UNK         0.0600 
    152 H152       -1.5905  -16.3206  -42.5246 H         1 UNK         0.0600 
    153 H153       -1.3495  -17.8420  -41.6700 H         1 UNK         0.0600 
    154 H154        0.6639  -17.3197  -43.0701 H         1 UNK         0.3000 
    155 H155        3.0765  -18.4099  -45.4969 H         1 UNK         0.0600 
    156 H156        2.4058  -15.6981  -44.2359 H         1 UNK         0.0600 
    157 H157        2.6894  -16.0215  -45.9386 H         1 UNK         0.0600 
    158 H158        4.0030  -16.2000  -44.7918 H         1 UNK         0.0600 
    159 H159        3.1895  -17.5742  -42.7334 H         1 UNK         0.3000 
    160 H160        3.1143  -20.8509  -41.3407 H         1 UNK         0.0600 
    161 H161        5.4403  -18.8836  -41.7003 H         1 UNK         0.0600 
    162 H162        5.4604  -20.5829  -42.1567 H         1 UNK         0.0600 
    163 H163        5.3203  -20.1360  -40.4640 H         1 UNK         0.0600 
    164 H164        3.5553  -18.2524  -40.2155 H         1 UNK         0.3000 
    165 H165        0.1313  -17.4653  -39.5954 H         1 UNK         0.0600 
    166 H166        0.9871  -17.3224  -37.2816 H         1 UNK         0.0600 
    167 H167        0.8344  -19.0066  -37.7539 H         1 UNK         0.0600 
    168 H168        2.4228  -18.2504  -37.7166 H         1 UNK         0.0600 
    169 H169        2.4120  -16.0148  -38.8787 H         1 UNK         0.3000 
    170 H170        2.7063  -13.9827  -39.8314 H         1 UNK         0.0600 
    171 H171        4.6200  -15.2717  -40.7966 H         1 UNK         0.0600 
    172 H172        4.0282  -14.9642  -42.4250 H         1 UNK         0.0600 
    173 H173        4.5997  -13.6311  -41.4266 H         1 UNK         0.0600 
    174 H174        2.3685  -13.1393  -42.5504 H         1 UNK         0.3000 
    175 H175       -0.1507  -12.5076  -43.2766 H         1 UNK         0.0600 
    176 H176       -1.9104  -11.8473  -41.6839 H         1 UNK         0.0600 
    177 H177       -0.9117  -10.5513  -41.0422 H         1 UNK         0.0600 
    178 H178       -1.4975  -10.4786  -42.7037 H         1 UNK         0.0600 
    179 H179        1.4140  -11.0966  -43.8912 H         1 UNK         0.3000 
    180 H180        2.8830   -8.2418  -42.7355 H         1 UNK         0.0600 
    181 H181        4.4837  -10.8598  -42.7184 H         1 UNK         0.0600 
    182 H182        4.4877   -9.6357  -41.4574 H         1 UNK         0.0600 
    183 H183        5.1509   -9.2584  -43.0392 H         1 UNK         0.0600 
    184 H184        3.4172  -10.2043  -44.8447 H         1 UNK         0.3000 
    185 H185        0.9791   -9.0215  -47.0731 H         1 UNK         0.0600 
    186 H186        2.7024   -7.2502  -47.4246 H         1 UNK         0.0600 
    187 H187        3.9865   -8.4377  -47.2328 H         1 UNK         0.0600 
    188 H188        2.8779   -8.5419  -48.6012 H         1 UNK         0.0600 
    189 H189        3.2473  -10.7824  -47.3277 H         1 UNK         0.3000 
    190 H190       -0.2710  -19.8330  -46.8720 H         1 UNK         0.3000 
    191 H191       -1.3404  -20.0020  -49.4520 H         1 UNK         0.0600 
    192 H192       -1.1193  -17.8908  -48.1388 H         1 UNK         0.0600 
    193 H193       -2.7587  -18.0882  -48.7355 H         1 UNK         0.0600 
    194 H194       -2.3927  -18.4188  -47.0452 H         1 UNK         0.0600 
    195 H195       -2.7511  -21.0993  -46.3654 H         1 UNK         0.3000 
    196 H196       -5.3122  -21.8541  -47.4433 H         1 UNK         0.0600 
    197 H197       -5.5680  -23.0173  -45.2539 H         1 UNK         0.0600 
    198 H198       -4.9745  -21.3772  -45.0353 H         1 UNK         0.0600 
    199 H199       -3.8692  -22.7410  -44.8894 H         1 UNK         0.0600 
    200 H200       -2.2470  -23.6330  -46.8708 H         1 UNK         0.3000 
    201 H201       -3.2714  -26.2069  -47.6069 H         1 UNK         0.0600 
    202 H202       -1.3221  -25.9263  -46.1112 H         1 UNK         0.0600 
    203 H203       -0.3978  -25.1657  -47.4048 H         1 UNK         0.0600 
    204 H204       -0.8611  -26.8596  -47.5270 H         1 UNK         0.0600 
    205 H205       -1.5518  -23.6704  -49.4300 H         1 UNK         0.3000 
    206 H206       -0.7910  -25.0307  -51.6999 H         1 UNK         0.0600 
    207 H207       -0.0409  -22.7581  -51.1938 H         1 UNK         0.0600 
    208 H208       -0.8071  -22.7480  -52.7713 H         1 UNK         0.0600 
    209 H209       -1.6760  -22.1249  -51.3724 H         1 UNK         0.0600 
    210 H210       -1.8622  -26.1724  -53.1046 H         1 UNK         0.3000 
    211 H211       -3.2603  -26.9898  -54.5691 H         1 UNK         0.0600 
    212 H212       -4.7826  -24.3355  -54.6255 H         1 UNK         0.0600 
    213 H213       -4.8096  -25.5996  -55.8444 H         1 UNK         0.0600 
    214 H214       -3.3364  -24.6869  -55.5717 H         1 UNK         0.0600 
    215 H215       -4.0256  -26.6600  -51.5198 H         1 UNK         0.3000 
    216 H216       -5.3803  -27.5090  -50.0567 H         1 UNK         0.0600 
    217 H217       -6.8015  -29.4676  -50.5833 H         1 UNK         0.0600 
    218 H218       -5.2178  -29.6248  -51.3271 H         1 UNK         0.0600 
    219 H219       -6.6151  -29.1821  -52.3064 H         1 UNK         0.0600 
    220 H220       -7.3473  -26.7950  -52.9230 H         1 UNK         0.3000 
    221 H221       -9.5005  -25.4965  -51.3141 H         1 UNK         0.0600 
    222 H222       -9.2817  -26.1252  -54.3185 H         1 UNK         0.0600 
    223 H223      -10.2009  -27.0711  -53.1490 H         1 UNK         0.0600 
    224 H224      -10.6817  -25.4228  -53.5161 H         1 UNK         0.0600 
    225 H225      -10.1694  -23.3274  -52.2039 H         1 UNK         0.3000 
    226 H226       -7.9377  -21.5001  -52.3849 H         1 UNK         0.0600 
    227 H227       -9.9791  -21.0103  -51.0539 H         1 UNK         0.0600 
    228 H228       -9.7212  -19.7839  -52.2810 H         1 UNK         0.0600 
    229 H229      -10.9568  -21.0142  -52.5221 H         1 UNK         0.0600 
    230 H230       -7.6347  -23.0957  -54.5358 H         1 UNK         0.3000 
    231 H231       -8.7608  -21.9607  -56.9962 H         1 UNK         0.0600 
    232 H232       -8.4366  -24.4068  -56.7583 H         1 UNK         0.0600 
    233 H233       -6.7093  -24.1809  -56.4975 H         1 UNK         0.0600 
    234 H234       -7.4278  -23.7835  -58.0546 H         1 UNK         0.0600 
    235 H235       -7.7924  -19.8477  -56.0448 H         1 UNK         0.3000 
    236 H236       -6.4801  -18.0667  -56.2539 H         1 UNK         0.0600 
    237 H237       -5.4743  -17.6610  -58.4718 H         1 UNK         0.0600 
    238 H238       -5.5243  -19.3773  -58.8536 H         1 UNK         0.0600 
    239 H239       -7.0214  -18.4647  -58.6681 H         1 UNK         0.0600 
    240 H240       -5.3257  -20.2908  -54.7342 H         1 UNK         0.3000 
    241 H241       -3.5422  -20.8421  -53.5941 H         1 UNK         0.0600 
    242 H242       -2.3203  -22.5071  -56.8596 H         1 UNK         0.3800 
    243 H243       -3.8703  -21.7539  -56.5831 H         1 UNK         0.3800 
    244 H244       -1.6613  -18.7030  -54.6185 H         1 UNK         0.0800 
    245 H245       -3.0934  -18.1525  -53.8176 H         1 UNK         0.0800 
    246 H246        0.3870  -20.0698  -53.0709 H         1 UNK         0.0800 
    247 H247        0.2497  -18.3367  -53.2734 H         1 UNK         0.0800 
@<TRIPOS>BOND
     1    1    2 1    
     2    1  127 1    
     3    1  128 1    
     4    1  129 1    
     5    2    3 2    
     6    2    4 am   BACKBONE|DICT|INTERRES
     7    4    5 1    
     8    4  130 1    
     9    5    6 1    
    10    5   65 1    
    11    5  131 1    
    12    6    7 1    
    13    6  132 1    
    14    6  133 1    
    15    7    8 1    
    16    8    9 1    
    17    8  134 1    
    18    8  135 1    
    19    9   10 ar   
    20    9   14 ar   
    21   10   11 ar   
    22   10  136 1    
    23   11   12 ar   
    24   11  126 1    
    25   12   13 ar   
    26   12  137 1    
    27   13   14 ar   
    28   13   15 1    
    29   14  138 1    
    30   15   16 1    
    31   15  139 1    
    32   15  140 1    
    33   16   17 1    
    34   17   18 1    
    35   17  141 1    
    36   17  142 1    
    37   18   19 1    
    38   18   67 1    
    39   18  143 1    
    40   19   20 am   BACKBONE|DICT|INTERRES
    41   19  144 1    
    42   20   21 2    
    43   20   22 1    
    44   22   23 1    
    45   22   24 1    
    46   22  145 1    
    47   23  146 1    
    48   23  147 1    
    49   23  148 1    
    50   24   25 am   BACKBONE|DICT|INTERRES
    51   24  149 1    
    52   25   26 2    
    53   25   27 1    
    54   27   28 1    
    55   27   29 1    
    56   27  150 1    
    57   28  151 1    
    58   28  152 1    
    59   28  153 1    
    60   29   30 am   BACKBONE|DICT|INTERRES
    61   29  154 1    
    62   30   31 2    
    63   30   32 1    
    64   32   33 1    
    65   32   34 1    
    66   32  155 1    
    67   33  156 1    
    68   33  157 1    
    69   33  158 1    
    70   34   35 am   BACKBONE|DICT|INTERRES
    71   34  159 1    
    72   35   36 2    
    73   35   37 1    
    74   37   38 1    
    75   37   39 1    
    76   37  160 1    
    77   38  161 1    
    78   38  162 1    
    79   38  163 1    
    80   39   40 am   BACKBONE|DICT|INTERRES
    81   39  164 1    
    82   40   41 2    
    83   40   42 1    
    84   42   43 1    
    85   42   44 1    
    86   42  165 1    
    87   43  166 1    
    88   43  167 1    
    89   43  168 1    
    90   44   45 am   BACKBONE|DICT|INTERRES
    91   44  169 1    
    92   45   46 2    
    93   45   47 1    
    94   47   48 1    
    95   47   49 1    
    96   47  170 1    
    97   48  171 1    
    98   48  172 1    
    99   48  173 1    
   100   49   50 am   BACKBONE|DICT|INTERRES
   101   49  174 1    
   102   50   51 2    
   103   50   52 1    
   104   52   53 1    
   105   52   54 1    
   106   52  175 1    
   107   53  176 1    
   108   53  177 1    
   109   53  178 1    
   110   54   55 am   BACKBONE|DICT|INTERRES
   111   54  179 1    
   112   55   56 2    
   113   55   57 1    
   114   57   58 1    
   115   57   59 1    
   116   57  180 1    
   117   58  181 1    
   118   58  182 1    
   119   58  183 1    
   120   59   60 am   BACKBONE|DICT|INTERRES
   121   59  184 1    
   122   60   61 2    
   123   60   62 1    
   124   62   63 1    
   125   62   64 1    
   126   62  185 1    
   127   63  186 1    
   128   63  187 1    
   129   63  188 1    
   130   64   65 am   BACKBONE|DICT|INTERRES
   131   64  189 1    
   132   65   66 2    
   133   67   68 2    
   134   67   69 am   BACKBONE|DICT|INTERRES
   135   69   70 1    
   136   69  190 1    
   137   70   71 1    
   138   70   72 1    
   139   70  191 1    
   140   71  192 1    
   141   71  193 1    
   142   71  194 1    
   143   72   73 2    
   144   72   74 am   BACKBONE|DICT|INTERRES
   145   74   75 1    
   146   74  195 1    
   147   75   76 1    
   148   75   77 1    
   149   75  196 1    
   150   76  197 1    
   151   76  198 1    
   152   76  199 1    
   153   77   78 2    
   154   77   79 am   BACKBONE|DICT|INTERRES
   155   79   80 1    
   156   79  200 1    
   157   80   81 1    
   158   80   82 1    
   159   80  201 1    
   160   81  202 1    
   161   81  203 1    
   162   81  204 1    
   163   82   83 2    
   164   82   84 am   BACKBONE|DICT|INTERRES
   165   84   85 1    
   166   84  205 1    
   167   85   86 1    
   168   85   87 1    
   169   85  206 1    
   170   86  207 1    
   171   86  208 1    
   172   86  209 1    
   173   87   88 2    
   174   87   89 am   BACKBONE|DICT|INTERRES
   175   89   90 1    
   176   89  210 1    
   177   90   91 1    
   178   90   92 1    
   179   90  211 1    
   180   91  212 1    
   181   91  213 1    
   182   91  214 1    
   183   92   93 2    
   184   92   94 am   BACKBONE|DICT|INTERRES
   185   94   95 1    
   186   94  215 1    
   187   95   96 1    
   188   95   97 1    
   189   95  216 1    
   190   96  217 1    
   191   96  218 1    
   192   96  219 1    
   193   97   98 2    
   194   97   99 am   BACKBONE|DICT|INTERRES
   195   99  100 1    
   196   99  220 1    
   197  100  101 1    
   198  100  102 1    
   199  100  221 1    
   200  101  222 1    
   201  101  223 1    
   202  101  224 1    
   203  102  103 2    
   204  102  104 am   BACKBONE|DICT|INTERRES
   205  104  105 1    
   206  104  225 1    
   207  105  106 1    
   208  105  107 1    
   209  105  226 1    
   210  106  227 1    
   211  106  228 1    
   212  106  229 1    
   213  107  108 2    
   214  107  109 am   BACKBONE|DICT|INTERRES
   215  109  110 1    
   216  109  230 1    
   217  110  111 1    
   218  110  112 1    
   219  110  231 1    
   220  111  232 1    
   221  111  233 1    
   222  111  234 1    
   223  112  113 2    
   224  112  114 am   BACKBONE|DICT|INTERRES
   225  114  115 1    
   226  114  235 1    
   227  115  116 1    
   228  115  117 1    
   229  115  236 1    
   230  116  237 1    
   231  116  238 1    
   232  116  239 1    
   233  117  118 2    
   234  117  119 am   BACKBONE|DICT|INTERRES
   235  119  120 1    
   236  119  240 1    
   237  120  121 1    
   238  120  124 1    
   239  120  241 1    
   240  121  122 am   BACKBONE|DICT|INTERRES
   241  121  123 2    
   242  122  242 1    
   243  122  243 1    
   244  124  125 1    
   245  124  244 1    
   246  124  245 1    
   247  125  126 1    
   248  126  246 1    
   249  126  247 1    
@<TRIPOS>SUBSTRUCTURE
     1 UNK         1 GROUP             0       ****    0 ROOT    
