@<TRIPOS>MOLECULE
3R540
247   249    1
SMALL
USER_CHARGES


@<TRIPOS>ATOM
      1 CA          6.9844  -11.9997  -48.0958 C.3       0 UNK        -0.1800 
      2 C           5.7995  -12.0456  -49.0590 C.2       0 UNK         0.5000 
      3 O           5.4179  -11.0059  -49.5924 O.2       0 UNK        -0.5000 
      4 N           5.1892  -13.2100  -49.3233 N.am      1 UNK        -0.5000 
      5 CA          5.4973  -14.5322  -48.7574 C.3       1 UNK         0.1400 
      6 C6          4.7751  -15.6637  -49.5248 C.3       23 UNK        -0.0398 
      7 S7          5.3074  -15.7903  -51.2655 S.3       23 UNK        -0.2404 
      8 C8          5.9972  -17.4787  -51.3174 C.3       23 UNK        -0.0205 
      9 C9          4.9753  -18.5414  -50.9297 C.ar      23 UNK        -0.0193 
     10 C10         3.7761  -18.6588  -51.6372 C.ar      23 UNK        -0.1150 
     11 C11         2.8249  -19.6146  -51.2731 C.ar      23 UNK        -0.0193 
     12 C12         3.0856  -20.4738  -50.2018 C.ar      23 UNK        -0.1150 
     13 C13         4.2904  -20.3802  -49.4973 C.ar      23 UNK        -0.0193 
     14 C14         5.2281  -19.4095  -49.8628 C.ar      23 UNK        -0.1150 
     15 C15         4.6052  -21.3577  -48.3744 C.3       23 UNK        -0.0205 
     16 S16         4.3905  -20.6389  -46.7130 S.3       23 UNK        -0.2404 
     17 C17         2.5856  -20.4049  -46.5872 C.3       23 UNK        -0.0398 
     18 CA          1.8394  -21.6571  -46.0493 C.3       11 UNK         0.1400 
     19 N           0.6906  -21.2974  -45.2099 N.am      11 UNK        -0.5000 
     20 C          -0.0268  -22.1624  -44.4782 C.2       10 UNK         0.5000 
     21 O           0.2707  -23.3490  -44.3464 O.2       10 UNK        -0.5000 
     22 CA         -1.3139  -21.6298  -43.8184 C.3       10 UNK         0.1400 
     23 CB         -1.0171  -21.0262  -42.4378 C.3       10 UNK        -0.1800 
     24 N          -2.0097  -20.6485  -44.6539 N.am      10 UNK        -0.5000 
     25 C          -2.6126  -20.9435  -45.8151 C.2       9 UNK         0.5000 
     26 O          -2.7133  -22.0857  -46.2582 O.2       9 UNK        -0.5000 
     27 CA         -3.1623  -19.7674  -46.6426 C.3       9 UNK         0.1400 
     28 CB         -4.5759  -19.3917  -46.1747 C.3       9 UNK        -0.1800 
     29 N          -2.2992  -18.5848  -46.6023 N.am      9 UNK        -0.5000 
     30 C          -1.0365  -18.5370  -47.0506 C.2       8 UNK         0.5000 
     31 O          -0.4808  -19.4767  -47.6165 O.2       8 UNK        -0.5000 
     32 CA         -0.2380  -17.2526  -46.7553 C.3       8 UNK         0.1400 
     33 CB         -0.5696  -16.1487  -47.7696 C.3       8 UNK        -0.1800 
     34 N          -0.4569  -16.7671  -45.3894 N.am      8 UNK        -0.5000 
     35 C          -0.0833  -17.4355  -44.2878 C.2       7 UNK         0.5000 
     36 O           0.5573  -18.4852  -44.3207 O.2       7 UNK        -0.5000 
     37 CA         -0.5538  -16.8845  -42.9283 C.3       7 UNK         0.1400 
     38 CB          0.4153  -15.8405  -42.3571 C.3       7 UNK        -0.1800 
     39 N          -1.8945  -16.3109  -43.0063 N.am      7 UNK        -0.5000 
     40 C          -3.0177  -17.0362  -43.0863 C.2       6 UNK         0.5000 
     41 O          -3.0384  -18.2663  -43.0583 O.2       6 UNK        -0.5000 
     42 CA         -4.3310  -16.2518  -43.2694 C.3       6 UNK         0.1400 
     43 CB         -4.8887  -15.8064  -41.9095 C.3       6 UNK        -0.1800 
     44 N          -4.1736  -15.0807  -44.1354 N.am      6 UNK        -0.5000 
     45 C          -3.8541  -15.1437  -45.4358 C.2       5 UNK         0.5000 
     46 O          -3.6953  -16.1991  -46.0439 O.2       5 UNK        -0.5000 
     47 CA         -3.6110  -13.8099  -46.1641 C.3       5 UNK         0.1400 
     48 CB         -4.9262  -13.2605  -46.7351 C.3       5 UNK        -0.1800 
     49 N          -2.9809  -12.7957  -45.3145 N.am      5 UNK        -0.5000 
     50 C          -1.7659  -12.9114  -44.7626 C.2       4 UNK         0.5000 
     51 O          -1.0358  -13.8969  -44.9033 O.2       4 UNK        -0.5000 
     52 CA         -1.3245  -11.7577  -43.8558 C.3       4 UNK         0.1400 
     53 CB         -1.9765  -11.8825  -42.4666 C.3       4 UNK        -0.1800 
     54 N           0.1275  -11.7763  -43.7161 N.am      4 UNK        -0.5000 
     55 C           0.8881  -10.7087  -43.4481 C.2       3 UNK         0.5000 
     56 O           0.4338   -9.5726  -43.3032 O.2       3 UNK        -0.5000 
     57 CA          2.4063  -10.9304  -43.2921 C.3       3 UNK         0.1400 
     58 CB          2.8077  -10.8349  -41.8112 C.3       3 UNK        -0.1800 
     59 N           2.8872  -12.2089  -43.8217 N.am      3 UNK        -0.5000 
     60 C           3.0644  -12.4789  -45.1199 C.2       2 UNK         0.5000 
     61 O           2.7865  -11.6965  -46.0327 O.2       2 UNK        -0.5000 
     62 CA          3.6515  -13.8595  -45.4422 C.3       2 UNK         0.1400 
     63 CB          2.5967  -14.9669  -45.2851 C.3       2 UNK        -0.1800 
     64 N           4.1562  -13.8630  -46.8084 N.am      2 UNK        -0.5000 
     65 C           5.1438  -14.6426  -47.2604 C.2       1 UNK         0.5000 
     66 O           5.7671  -15.4342  -46.5524 O.2       1 UNK        -0.5000 
     67 C           1.4061  -22.5890  -47.2015 C.2       11 UNK         0.5000 
     68 O           2.0142  -23.6370  -47.4184 O.2       11 UNK        -0.5000 
     69 N           0.3273  -22.2001  -47.8915 N.am      12 UNK        -0.5000 
     70 CA         -0.2665  -22.8980  -49.0298 C.3       12 UNK         0.1400 
     71 CB         -1.1033  -21.8860  -49.8292 C.3       12 UNK        -0.1800 
     72 C          -1.1169  -24.1297  -48.6558 C.2       12 UNK         0.5000 
     73 O          -1.7842  -24.6733  -49.5361 O.2       12 UNK        -0.5000 
     74 N          -1.1196  -24.5547  -47.3831 N.am      13 UNK        -0.5000 
     75 CA         -1.9517  -25.6392  -46.8449 C.3       13 UNK         0.1400 
     76 CB         -1.6757  -25.8022  -45.3446 C.3       13 UNK        -0.1800 
     77 C          -1.7968  -26.9887  -47.5740 C.2       13 UNK         0.5000 
     78 O          -2.7783  -27.7193  -47.7111 O.2       13 UNK        -0.5000 
     79 N          -0.5879  -27.2620  -48.0841 N.am      14 UNK        -0.5000 
     80 CA         -0.2637  -28.4245  -48.9162 C.3       14 UNK         0.1400 
     81 CB          1.2624  -28.5067  -49.0734 C.3       14 UNK        -0.1800 
     82 C          -0.9469  -28.4138  -50.3016 C.2       14 UNK         0.5000 
     83 O          -1.0780  -29.4728  -50.9157 O.2       14 UNK        -0.5000 
     84 N          -1.3813  -27.2329  -50.7595 N.am      15 UNK        -0.5000 
     85 CA         -2.1097  -27.0003  -52.0051 C.3       15 UNK         0.1400 
     86 CB         -1.3718  -25.9138  -52.8094 C.3       15 UNK        -0.1800 
     87 C          -3.5711  -26.6104  -51.7040 C.2       15 UNK         0.5000 
     88 O          -4.1390  -25.7680  -52.4012 O.2       15 UNK        -0.5000 
     89 N          -4.1477  -27.2047  -50.6464 N.am      16 UNK        -0.5000 
     90 CA         -5.5174  -27.0051  -50.1531 C.3       16 UNK         0.1400 
     91 CB         -6.5423  -27.5822  -51.1516 C.3       16 UNK        -0.1800 
     92 C          -5.8090  -25.5377  -49.7742 C.2       16 UNK         0.5000 
     93 O          -6.8760  -25.0086  -50.0928 O.2       16 UNK        -0.5000 
     94 N          -4.8134  -24.8925  -49.1477 N.am      17 UNK        -0.5000 
     95 CA         -4.7783  -23.4823  -48.7375 C.3       17 UNK         0.1400 
     96 CB         -5.8631  -23.1932  -47.6807 C.3       17 UNK        -0.1800 
     97 C          -4.8304  -22.4922  -49.9196 C.2       17 UNK         0.5000 
     98 O          -5.1419  -21.3177  -49.7127 O.2       17 UNK        -0.5000 
     99 N          -4.5618  -22.9906  -51.1394 N.am      18 UNK        -0.5000 
    100 CA        -4.7550  -22.3277  -52.4326 C.3       18 UNK         0.1400 
    101 CB        -3.6757  -21.2526  -52.6554 C.3       18 UNK        -0.1800 
    102 C         -6.1999  -21.8125  -52.6166 C.2       18 UNK         0.5000 
    103 O         -6.4120  -20.7304  -53.1657 O.2       18 UNK        -0.5000 
    104 N         -7.1638  -22.5884  -52.0961 N.am      19 UNK        -0.5000 
    105 CA        -8.6010  -22.3273  -51.9697 C.3       19 UNK         0.1400 
    106 CB        -9.2682  -22.1017  -53.3400 C.3       19 UNK        -0.1800 
    107 C         -8.9491  -21.1987  -50.9782 C.2       19 UNK         0.5000 
    108 O         -9.8183  -21.3974  -50.1284 O.2       19 UNK        -0.5000 
    109 N         -8.2779  -20.0473  -51.0907 N.am      20 UNK        -0.5000 
    110 CA        -8.4978  -18.8561  -50.2739 C.3       20 UNK         0.1400 
    111 CB        -9.7786  -18.1266  -50.7336 C.3       20 UNK        -0.1800 
    112 C         -7.2495  -17.9556  -50.2911 C.2       20 UNK         0.5000 
    113 O         -7.3678  -16.7554  -50.5453 O.2       20 UNK        -0.5000 
    114 N         -6.0834  -18.5592  -50.0137 N.am      21 UNK        -0.5000 
    115 CA        -4.7341  -17.9795  -50.0014 C.3       21 UNK         0.1400 
    116 CB        -4.6538  -16.7000  -49.1441 C.3       21 UNK        -0.1800 
    117 C         -4.1716  -17.7306  -51.4128 C.2       21 UNK         0.5000 
    118 O         -4.9120  -17.4147  -52.3460 O.2       21 UNK        -0.5000 
    119 N         -2.8472  -17.8724  -51.5358 N.am      22 UNK        -0.5000 
    120 CA        -2.0982  -17.6759  -52.7873 C.3       22 UNK         0.1400 
    121 C         -1.7108  -16.1980  -53.0935 C.2       22 UNK         0.5000 
    122 N         -1.9824  -15.2403  -52.2147 N.am      22 UNK        -0.7600 
    123 O         -1.1714  -15.9112  -54.1589 O.2       22 UNK        -0.5000 
    124 C124       -0.8881  -18.6396  -52.8810 C.3       23 UNK        -0.0398 
    125 S125        0.3229  -18.4711  -51.5260 S.3       23 UNK        -0.2404 
    126 C126        1.5298  -19.7229  -52.0584 C.3       23 UNK        -0.0205 
    127 H127        7.7036  -12.7911  -48.3034 H         1 UNK         0.0600 
    128 H128        6.6450  -12.0912  -47.0642 H         1 UNK         0.0600 
    129 H129        7.5108  -11.0495  -48.1886 H         1 UNK         0.0600 
    130 H130        4.4302  -13.2052  -49.9895 H         1 UNK         0.3000 
    131 H131        6.5711  -14.7041  -48.8499 H         1 UNK         0.0600 
    132 H132        4.9470  -16.6206  -49.0291 H         1 UNK         0.0800 
    133 H133        3.6941  -15.5128  -49.5106 H         1 UNK         0.0800 
    134 H134        6.8715  -17.5226  -50.6661 H         1 UNK         0.0800 
    135 H135        6.3545  -17.6840  -52.3273 H         1 UNK         0.0800 
    136 H136        3.5758  -17.9928  -52.4650 H         1 UNK         0.1150 
    137 H137        2.3562  -21.2221  -49.9259 H         1 UNK         0.1150 
    138 H138        6.1579  -19.3358  -49.3159 H         1 UNK         0.1150 
    139 H139        4.0057  -22.2618  -48.4728 H         1 UNK         0.0800 
    140 H140        5.6415  -21.6842  -48.4728 H         1 UNK         0.0800 
    141 H141        2.1797  -20.0481  -47.5349 H         1 UNK         0.0800 
    142 H142        2.4509  -19.5732  -45.8949 H         1 UNK         0.0800 
    143 H143        2.5214  -22.2208  -45.4089 H         1 UNK         0.0600 
    144 H144        0.4159  -20.3211  -45.2068 H         1 UNK         0.3000 
    145 H145       -1.9853  -22.4789  -43.6738 H         1 UNK         0.0600 
    146 H146       -1.9300  -20.6773  -41.9547 H         1 UNK         0.0600 
    147 H147       -0.5638  -21.7684  -41.7797 H         1 UNK         0.0600 
    148 H148       -0.3287  -20.1846  -42.5017 H         1 UNK         0.0600 
    149 H149       -2.0310  -19.6925  -44.3198 H         1 UNK         0.3000 
    150 H150       -3.2260  -20.1007  -47.6800 H         1 UNK         0.0600 
    151 H151       -5.2292  -20.2629  -46.1466 H         1 UNK         0.0600 
    152 H152       -5.0348  -18.6678  -46.8455 H         1 UNK         0.0600 
    153 H153       -4.5678  -18.9610  -45.1741 H         1 UNK         0.0600 
    154 H154       -2.7087  -17.7408  -46.2074 H         1 UNK         0.3000 
    155 H155        0.8226  -17.4922  -46.8579 H         1 UNK         0.0600 
    156 H156       -1.6180  -15.8600  -47.7232 H         1 UNK         0.0600 
    157 H157       -0.3657  -16.4826  -48.7880 H         1 UNK         0.0600 
    158 H158        0.0298  -15.2557  -47.5935 H         1 UNK         0.0600 
    159 H159       -0.9323  -15.8774  -45.2835 H         1 UNK         0.3000 
    160 H160       -0.5782  -17.7234  -42.2296 H         1 UNK         0.0600 
    161 H161        0.4239  -14.9268  -42.9496 H         1 UNK         0.0600 
    162 H162        1.4332  -16.2303  -42.3207 H         1 UNK         0.0600 
    163 H163        0.1379  -15.5686  -41.3386 H         1 UNK         0.0600 
    164 H164       -1.9556  -15.3077  -43.0948 H         1 UNK         0.3000 
    165 H165       -5.0568  -16.9220  -43.7347 H         1 UNK         0.0600 
    166 H166       -5.8571  -15.3184  -42.0213 H         1 UNK         0.0600 
    167 H167       -5.0316  -16.6618  -41.2477 H         1 UNK         0.0600 
    168 H168       -4.2171  -15.1099  -41.4058 H         1 UNK         0.0600 
    169 H169       -4.2885  -14.1739  -43.7081 H         1 UNK         0.3000 
    170 H170       -2.9368  -14.0079  -46.9993 H         1 UNK         0.0600 
    171 H171       -5.4028  -13.9925  -47.3890 H         1 UNK         0.0600 
    172 H172       -5.6372  -13.0129  -45.9459 H         1 UNK         0.0600 
    173 H173       -4.7542  -12.3618  -47.3276 H         1 UNK         0.0600 
    174 H174       -3.5195  -11.9590  -45.1417 H         1 UNK         0.3000 
    175 H175       -1.6346  -10.8217  -44.3253 H         1 UNK         0.0600 
    176 H176       -1.6836  -12.8074  -41.9676 H         1 UNK         0.0600 
    177 H177       -1.6920  -11.0517  -41.8207 H         1 UNK         0.0600 
    178 H178       -3.0648  -11.8759  -42.5372 H         1 UNK         0.0600 
    179 H179        0.5610  -12.6724  -43.8928 H         1 UNK         0.3000 
    180 H180        2.9075  -10.1234  -43.8311 H         1 UNK         0.0600 
    181 H181        2.3430  -11.6229  -41.2170 H         1 UNK         0.0600 
    182 H182        2.5034   -9.8789  -41.3829 H         1 UNK         0.0600 
    183 H183        3.8882  -10.9132  -41.6887 H         1 UNK         0.0600 
    184 H184        3.1350  -12.9083  -43.1367 H         1 UNK         0.3000 
    185 H185        4.4783  -14.0431  -44.7523 H         1 UNK         0.0600 
    186 H186        2.3101  -15.0705  -44.2419 H         1 UNK         0.0600 
    187 H187        1.6953  -14.7504  -45.8593 H         1 UNK         0.0600 
    188 H188        2.9757  -15.9367  -45.6080 H         1 UNK         0.0600 
    189 H189        3.7281  -13.1795  -47.4209 H         1 UNK         0.3000 
    190 H190       -0.0935  -21.3033  -47.6568 H         1 UNK         0.3000 
    191 H191        0.5404  -23.2527  -49.6737 H         1 UNK         0.0600 
    192 H192       -1.9582  -21.5303  -49.2538 H         1 UNK         0.0600 
    193 H193       -1.4844  -22.3293  -50.7491 H         1 UNK         0.0600 
    194 H194       -0.5102  -21.0166  -50.1092 H         1 UNK         0.0600 
    195 H195       -0.5629  -24.0430  -46.7129 H         1 UNK         0.3000 
    196 H196       -2.9926  -25.3318  -46.9553 H         1 UNK         0.0600 
    197 H197       -2.2610  -26.6202  -44.9224 H         1 UNK         0.0600 
    198 H198       -1.9462  -24.8986  -44.7984 H         1 UNK         0.0600 
    199 H199       -0.6236  -26.0129  -45.1492 H         1 UNK         0.0600 
    200 H200        0.1541  -26.5942  -47.9303 H         1 UNK         0.3000 
    201 H201       -0.6037  -29.3199  -48.3918 H         1 UNK         0.0600 
    202 H202        1.7551  -28.5946  -48.1048 H         1 UNK         0.0600 
    203 H203        1.6625  -27.6252  -49.5760 H         1 UNK         0.0600 
    204 H204        1.5491  -29.3791  -49.6622 H         1 UNK         0.0600 
    205 H205       -1.2874  -26.4123  -50.1681 H         1 UNK         0.3000 
    206 H206       -2.1398  -27.9092  -52.6088 H         1 UNK         0.0600 
    207 H207       -0.3366  -26.1985  -52.9973 H         1 UNK         0.0600 
    208 H208       -1.8439  -25.7532  -53.7794 H         1 UNK         0.0600 
    209 H209       -1.3662  -24.9582  -52.2833 H         1 UNK         0.0600 
    210 H210       -3.5821  -27.8445  -50.1046 H         1 UNK         0.3000 
    211 H211       -5.5976  -27.5782  -49.2283 H         1 UNK         0.0600 
    212 H212       -6.5533  -27.0256  -52.0892 H         1 UNK         0.0600 
    213 H213       -7.5515  -27.5480  -50.7397 H         1 UNK         0.0600 
    214 H214       -6.3229  -28.6245  -51.3830 H         1 UNK         0.0600 
    215 H215       -3.9415  -25.3913  -49.0309 H         1 UNK         0.3000 
    216 H216       -3.8140  -23.3226  -48.2610 H         1 UNK         0.0600 
    217 H217       -5.7427  -22.1946  -47.2640 H         1 UNK         0.0600 
    218 H218       -5.8021  -23.8970  -46.8507 H         1 UNK         0.0600 
    219 H219       -6.8679  -23.2491  -48.1000 H         1 UNK         0.0600 
    220 H220       -4.3185  -23.9723  -51.2037 H         1 UNK         0.3000 
    221 H221       -4.6164  -23.0928  -53.1976 H         1 UNK         0.0600 
    222 H222       -3.6696  -20.5218  -51.8499 H         1 UNK         0.0600 
    223 H223       -2.6857  -21.7044  -52.7033 H         1 UNK         0.0600 
    224 H224       -3.8279  -20.7157  -53.5923 H         1 UNK         0.0600 
    225 H225       -6.8612  -23.4285  -51.6152 H         1 UNK         0.3000 
    226 H226       -9.0207  -23.2450  -51.5541 H         1 UNK         0.0600 
    227 H227       -9.0607  -22.9279  -54.0201 H         1 UNK         0.0600 
    228 H228      -10.3514  -22.0312  -53.2348 H         1 UNK         0.0600 
    229 H229       -8.9300  -21.1812  -53.8162 H         1 UNK         0.0600 
    230 H230       -7.5641  -19.9797  -51.8127 H         1 UNK         0.3000 
    231 H231       -8.6355  -19.1652  -49.2356 H         1 UNK         0.0600 
    232 H232      -10.6576  -18.7646  -50.6433 H         1 UNK         0.0600 
    233 H233       -9.7031  -17.8065  -51.7734 H         1 UNK         0.0600 
    234 H234       -9.9651  -17.2398  -50.1268 H         1 UNK         0.0600 
    235 H235       -6.0906  -19.5643  -49.8630 H         1 UNK         0.3000 
    236 H236       -4.1084  -18.7355  -49.5251 H         1 UNK         0.0600 
    237 H237       -3.6182  -16.4592  -48.9064 H         1 UNK         0.0600 
    238 H238       -5.0753  -15.8358  -49.6583 H         1 UNK         0.0600 
    239 H239       -5.1867  -16.8129  -48.2013 H         1 UNK         0.0600 
    240 H240       -2.2876  -18.1182  -50.7321 H         1 UNK         0.3000 
    241 H241       -2.7600  -17.9569  -53.6091 H         1 UNK         0.0600 
    242 H242       -1.7338  -14.2874  -52.4286 H         1 UNK         0.3800 
    243 H243       -2.4358  -15.4584  -51.3435 H         1 UNK         0.3800 
    244 H244       -1.2460  -19.6692  -52.8815 H         1 UNK         0.0800 
    245 H245       -0.3728  -18.5089  -53.8343 H         1 UNK         0.0800 
    246 H246        1.7443  -19.5964  -53.1208 H         1 UNK         0.0800 
    247 H247        1.0959  -20.7178  -51.9492 H         1 UNK         0.0800 
@<TRIPOS>BOND
     1    1    2 1    
     2    1  127 1    
     3    1  128 1    
     4    1  129 1    
     5    2    3 2    
     6    2    4 am   BACKBONE|DICT|INTERRES
     7    4    5 1    
     8    4  130 1    
     9    5    6 1    
    10    5   65 1    
    11    5  131 1    
    12    6    7 1    
    13    6  132 1    
    14    6  133 1    
    15    7    8 1    
    16    8    9 1    
    17    8  134 1    
    18    8  135 1    
    19    9   10 ar   
    20    9   14 ar   
    21   10   11 ar   
    22   10  136 1    
    23   11   12 ar   
    24   11  126 1    
    25   12   13 ar   
    26   12  137 1    
    27   13   14 ar   
    28   13   15 1    
    29   14  138 1    
    30   15   16 1    
    31   15  139 1    
    32   15  140 1    
    33   16   17 1    
    34   17   18 1    
    35   17  141 1    
    36   17  142 1    
    37   18   19 1    
    38   18   67 1    
    39   18  143 1    
    40   19   20 am   BACKBONE|DICT|INTERRES
    41   19  144 1    
    42   20   21 2    
    43   20   22 1    
    44   22   23 1    
    45   22   24 1    
    46   22  145 1    
    47   23  146 1    
    48   23  147 1    
    49   23  148 1    
    50   24   25 am   BACKBONE|DICT|INTERRES
    51   24  149 1    
    52   25   26 2    
    53   25   27 1    
    54   27   28 1    
    55   27   29 1    
    56   27  150 1    
    57   28  151 1    
    58   28  152 1    
    59   28  153 1    
    60   29   30 am   BACKBONE|DICT|INTERRES
    61   29  154 1    
    62   30   31 2    
    63   30   32 1    
    64   32   33 1    
    65   32   34 1    
    66   32  155 1    
    67   33  156 1    
    68   33  157 1    
    69   33  158 1    
    70   34   35 am   BACKBONE|DICT|INTERRES
    71   34  159 1    
    72   35   36 2    
    73   35   37 1    
    74   37   38 1    
    75   37   39 1    
    76   37  160 1    
    77   38  161 1    
    78   38  162 1    
    79   38  163 1    
    80   39   40 am   BACKBONE|DICT|INTERRES
    81   39  164 1    
    82   40   41 2    
    83   40   42 1    
    84   42   43 1    
    85   42   44 1    
    86   42  165 1    
    87   43  166 1    
    88   43  167 1    
    89   43  168 1    
    90   44   45 am   BACKBONE|DICT|INTERRES
    91   44  169 1    
    92   45   46 2    
    93   45   47 1    
    94   47   48 1    
    95   47   49 1    
    96   47  170 1    
    97   48  171 1    
    98   48  172 1    
    99   48  173 1    
   100   49   50 am   BACKBONE|DICT|INTERRES
   101   49  174 1    
   102   50   51 2    
   103   50   52 1    
   104   52   53 1    
   105   52   54 1    
   106   52  175 1    
   107   53  176 1    
   108   53  177 1    
   109   53  178 1    
   110   54   55 am   BACKBONE|DICT|INTERRES
   111   54  179 1    
   112   55   56 2    
   113   55   57 1    
   114   57   58 1    
   115   57   59 1    
   116   57  180 1    
   117   58  181 1    
   118   58  182 1    
   119   58  183 1    
   120   59   60 am   BACKBONE|DICT|INTERRES
   121   59  184 1    
   122   60   61 2    
   123   60   62 1    
   124   62   63 1    
   125   62   64 1    
   126   62  185 1    
   127   63  186 1    
   128   63  187 1    
   129   63  188 1    
   130   64   65 am   BACKBONE|DICT|INTERRES
   131   64  189 1    
   132   65   66 2    
   133   67   68 2    
   134   67   69 am   BACKBONE|DICT|INTERRES
   135   69   70 1    
   136   69  190 1    
   137   70   71 1    
   138   70   72 1    
   139   70  191 1    
   140   71  192 1    
   141   71  193 1    
   142   71  194 1    
   143   72   73 2    
   144   72   74 am   BACKBONE|DICT|INTERRES
   145   74   75 1    
   146   74  195 1    
   147   75   76 1    
   148   75   77 1    
   149   75  196 1    
   150   76  197 1    
   151   76  198 1    
   152   76  199 1    
   153   77   78 2    
   154   77   79 am   BACKBONE|DICT|INTERRES
   155   79   80 1    
   156   79  200 1    
   157   80   81 1    
   158   80   82 1    
   159   80  201 1    
   160   81  202 1    
   161   81  203 1    
   162   81  204 1    
   163   82   83 2    
   164   82   84 am   BACKBONE|DICT|INTERRES
   165   84   85 1    
   166   84  205 1    
   167   85   86 1    
   168   85   87 1    
   169   85  206 1    
   170   86  207 1    
   171   86  208 1    
   172   86  209 1    
   173   87   88 2    
   174   87   89 am   BACKBONE|DICT|INTERRES
   175   89   90 1    
   176   89  210 1    
   177   90   91 1    
   178   90   92 1    
   179   90  211 1    
   180   91  212 1    
   181   91  213 1    
   182   91  214 1    
   183   92   93 2    
   184   92   94 am   BACKBONE|DICT|INTERRES
   185   94   95 1    
   186   94  215 1    
   187   95   96 1    
   188   95   97 1    
   189   95  216 1    
   190   96  217 1    
   191   96  218 1    
   192   96  219 1    
   193   97   98 2    
   194   97   99 am   BACKBONE|DICT|INTERRES
   195   99  100 1    
   196   99  220 1    
   197  100  101 1    
   198  100  102 1    
   199  100  221 1    
   200  101  222 1    
   201  101  223 1    
   202  101  224 1    
   203  102  103 2    
   204  102  104 am   BACKBONE|DICT|INTERRES
   205  104  105 1    
   206  104  225 1    
   207  105  106 1    
   208  105  107 1    
   209  105  226 1    
   210  106  227 1    
   211  106  228 1    
   212  106  229 1    
   213  107  108 2    
   214  107  109 am   BACKBONE|DICT|INTERRES
   215  109  110 1    
   216  109  230 1    
   217  110  111 1    
   218  110  112 1    
   219  110  231 1    
   220  111  232 1    
   221  111  233 1    
   222  111  234 1    
   223  112  113 2    
   224  112  114 am   BACKBONE|DICT|INTERRES
   225  114  115 1    
   226  114  235 1    
   227  115  116 1    
   228  115  117 1    
   229  115  236 1    
   230  116  237 1    
   231  116  238 1    
   232  116  239 1    
   233  117  118 2    
   234  117  119 am   BACKBONE|DICT|INTERRES
   235  119  120 1    
   236  119  240 1    
   237  120  121 1    
   238  120  124 1    
   239  120  241 1    
   240  121  122 am   BACKBONE|DICT|INTERRES
   241  121  123 2    
   242  122  242 1    
   243  122  243 1    
   244  124  125 1    
   245  124  244 1    
   246  124  245 1    
   247  125  126 1    
   248  126  246 1    
   249  126  247 1    
@<TRIPOS>SUBSTRUCTURE
     1 UNK         1 GROUP             0       ****    0 ROOT    
