@<TRIPOS>MOLECULE
3R540
247   249    1
SMALL
USER_CHARGES


@<TRIPOS>ATOM
      1 CA         -0.7906  -11.7236  -48.3630 C.3       0 UNK        -0.1800 
      2 C          -0.2957  -11.9590  -46.9376 C.2       0 UNK         0.5000 
      3 O          -1.0927  -12.3220  -46.0758 O.2       0 UNK        -0.5000 
      4 N           0.9909  -11.7607  -46.6330 N.am      1 UNK        -0.5000 
      5 CA          2.0603  -11.2492  -47.4910 C.3       1 UNK         0.1400 
      6 C6          2.6586  -12.3261  -48.4475 C.3       23 UNK        -0.0398 
      7 S7          3.7946  -13.5388  -47.6807 S.3       23 UNK        -0.2404 
      8 C8          2.6517  -14.8179  -47.0874 C.3       23 UNK        -0.0205 
      9 C9          2.2600  -15.8063  -48.1733 C.ar      23 UNK        -0.0193 
     10 C10         1.1292  -15.5843  -48.9663 C.ar      23 UNK        -0.1150 
     11 C11         0.7397  -16.5254  -49.9228 C.ar      23 UNK        -0.0193 
     12 C12         1.4905  -17.6908  -50.0861 C.ar      23 UNK        -0.1150 
     13 C13         2.6130  -17.9311  -49.2914 C.ar      23 UNK        -0.0193 
     14 C14         3.0001  -16.9805  -48.3433 C.ar      23 UNK        -0.1150 
     15 C15         3.3865  -19.2314  -49.4436 C.3       23 UNK        -0.0205 
     16 S16         2.8902  -20.4650  -48.1991 S.3       23 UNK        -0.2404 
     17 C17         1.1191  -20.6848  -48.5859 C.3       23 UNK        -0.0398 
     18 CA          0.5002  -21.8808  -47.8300 C.3       11 UNK         0.1400 
     19 N           0.4605  -21.6766  -46.3782 N.am      11 UNK        -0.5000 
     20 C           0.1681  -22.6357  -45.4894 C.2       10 UNK         0.5000 
     21 O          -0.0564  -23.8058  -45.8003 O.2       10 UNK        -0.5000 
     22 CA          0.0584  -22.2134  -44.0127 C.3       10 UNK         0.1400 
     23 CB          1.4476  -22.0656  -43.3747 C.3       10 UNK        -0.1800 
     24 N          -0.7068  -20.9781  -43.8363 N.am      10 UNK        -0.5000 
     25 C          -2.0089  -20.8490  -44.1291 C.2       9 UNK         0.5000 
     26 O          -2.7109  -21.7758  -44.5322 O.2       9 UNK        -0.5000 
     27 CA         -2.6245  -19.4435  -43.9926 C.3       9 UNK         0.1400 
     28 CB         -3.0094  -19.1497  -42.5353 C.3       9 UNK        -0.1800 
     29 N          -1.7475  -18.3855  -44.4939 N.am      9 UNK        -0.5000 
     30 C          -1.3321  -18.2810  -45.7645 C.2       8 UNK         0.5000 
     31 O          -1.6752  -19.0478  -46.6619 O.2       8 UNK        -0.5000 
     32 CA         -0.3176  -17.1672  -46.0698 C.3       8 UNK         0.1400 
     33 CB         -1.0312  -15.8124  -46.1958 C.3       8 UNK        -0.1800 
     34 N           0.7507  -17.0949  -45.0673 N.am      8 UNK        -0.5000 
     35 C           1.6023  -18.1014  -44.8120 C.2       7 UNK         0.5000 
     36 O           1.6090  -19.1622  -45.4328 O.2       7 UNK        -0.5000 
     37 CA          2.5465  -17.9389  -43.6083 C.3       7 UNK         0.1400 
     38 CB          3.8170  -17.1547  -43.9714 C.3       7 UNK        -0.1800 
     39 N           1.8718  -17.3106  -42.4740 N.am      7 UNK        -0.5000 
     40 C           0.9170  -17.9090  -41.7464 C.2       6 UNK         0.5000 
     41 O           0.5612  -19.0749  -41.9147 O.2       6 UNK        -0.5000 
     42 CA          0.2109  -17.0449  -40.6848 C.3       6 UNK         0.1400 
     43 CB          0.9884  -17.0745  -39.3607 C.3       6 UNK        -0.1800 
     44 N           0.0434  -15.6561  -41.1162 N.am      6 UNK        -0.5000 
     45 C          -0.7296  -15.2633  -42.1399 C.2       5 UNK         0.5000 
     46 O          -1.4522  -16.0305  -42.7742 O.2       5 UNK        -0.5000 
     47 CA         -0.6351  -13.7799  -42.5528 C.3       5 UNK         0.1400 
     48 CB         -1.7157  -12.9510  -41.8439 C.3       5 UNK        -0.1800 
     49 N           0.6851  -13.2088  -42.2646 N.am      5 UNK        -0.5000 
     50 C           1.8031  -13.5499  -42.9171 C.2       4 UNK         0.5000 
     51 O           1.8196  -14.2908  -43.9035 O.2       4 UNK        -0.5000 
     52 CA          3.1230  -13.0644  -42.3046 C.3       4 UNK         0.1400 
     53 CB          3.5109  -13.9935  -41.1329 C.3       4 UNK        -0.1800 
     54 N           4.1562  -13.0684  -43.3367 N.am      4 UNK        -0.5000 
     55 C           5.4144  -12.6313  -43.1981 C.2       3 UNK         0.5000 
     56 O           5.8689  -12.1566  -42.1564 O.2       3 UNK        -0.5000 
     57 CA          6.3112  -12.7120  -44.4465 C.3       3 UNK         0.1400 
     58 CB          6.3589  -14.1345  -45.0330 C.3       3 UNK        -0.1800 
     59 N           5.8722  -11.7596  -45.4663 N.am      3 UNK        -0.5000 
     60 C           6.0270  -10.4292  -45.3756 C.2       2 UNK         0.5000 
     61 O           6.6533   -9.8758  -44.4709 O.2       2 UNK        -0.5000 
     62 CA          5.3805   -9.5564  -46.4729 C.3       2 UNK         0.1400 
     63 CB          6.4305   -9.1418  -47.5153 C.3       2 UNK        -0.1800 
     64 N           4.2529  -10.1872  -47.1642 N.am      2 UNK        -0.5000 
     65 C           3.0974  -10.5461  -46.5883 C.2       1 UNK         0.5000 
     66 O           2.8466  -10.3582  -45.3938 O.2       1 UNK        -0.5000 
     67 C          -0.8892  -22.2394  -48.3969 C.2       11 UNK         0.5000 
     68 O          -0.9805  -23.1466  -49.2232 O.2       11 UNK        -0.5000 
     69 N          -1.9486  -21.5779  -47.9089 N.am      12 UNK        -0.5000 
     70 CA         -3.3378  -21.8679  -48.2654 C.3       12 UNK         0.1400 
     71 CB         -4.2666  -20.8020  -47.6639 C.3       12 UNK        -0.1800 
     72 C          -3.7840  -23.2767  -47.8368 C.2       12 UNK         0.5000 
     73 O          -4.4580  -23.9616  -48.6074 O.2       12 UNK        -0.5000 
     74 N          -3.3710  -23.6982  -46.6327 N.am      13 UNK        -0.5000 
     75 CA         -3.5893  -25.0438  -46.1041 C.3       13 UNK         0.1400 
     76 CB         -3.2035  -25.0909  -44.6183 C.3       13 UNK        -0.1800 
     77 C          -2.8340  -26.1179  -46.9065 C.2       13 UNK         0.5000 
     78 O          -3.4157  -27.1589  -47.2109 O.2       13 UNK        -0.5000 
     79 N          -1.5781  -25.8328  -47.2817 N.am      14 UNK        -0.5000 
     80 CA         -0.7535  -26.6859  -48.1437 C.3       14 UNK         0.1400 
     81 CB          0.6845  -26.1473  -48.1801 C.3       14 UNK        -0.1800 
     82 C          -1.3249  -26.8284  -49.5689 C.2       14 UNK         0.5000 
     83 O          -1.2680  -27.9167  -50.1420 O.2       14 UNK        -0.5000 
     84 N          -1.9083  -25.7420  -50.0926 N.am      15 UNK        -0.5000 
     85 CA         -2.6482  -25.7004  -51.3560 C.3       15 UNK         0.1400 
     86 CB         -2.7485  -24.2378  -51.8229 C.3       15 UNK        -0.1800 
     87 C          -4.0548  -26.3306  -51.2696 C.2       15 UNK         0.5000 
     88 O          -4.7215  -26.4412  -52.2985 O.2       15 UNK        -0.5000 
     89 N          -4.5032  -26.6935  -50.0570 N.am      16 UNK        -0.5000 
     90 CA         -5.8190  -27.2467  -49.7130 C.3       16 UNK         0.1400 
     91 CB         -5.9649  -28.6739  -50.2796 C.3       16 UNK        -0.1800 
     92 C          -6.9929  -26.3237  -50.1087 C.2       16 UNK         0.5000 
     93 O          -8.0848  -26.8098  -50.4084 O.2       16 UNK        -0.5000 
     94 N          -6.7303  -25.0078  -50.1280 N.am      17 UNK        -0.5000 
     95 CA         -7.6037  -23.9228  -50.5855 C.3       17 UNK         0.1400 
     96 CB         -8.7984  -23.7486  -49.6259 C.3       17 UNK        -0.1800 
     97 C          -8.0423  -24.0291  -52.0670 C.2       17 UNK         0.5000 
     98 O          -9.0248  -23.3926  -52.4518 O.2       17 UNK        -0.5000 
     99 N          -7.3163  -24.8078  -52.8811 N.am      18 UNK        -0.5000 
    100 CA        -7.5913  -25.0059  -54.3035 C.3       18 UNK         0.1400 
    101 CB        -7.0786  -26.3962  -54.7124 C.3       18 UNK        -0.1800 
    102 C         -6.9324  -23.9163  -55.1685 C.2       18 UNK         0.5000 
    103 O         -6.0063  -23.2377  -54.7154 O.2       18 UNK        -0.5000 
    104 N         -7.4042  -23.8036  -56.4191 N.am      19 UNK        -0.5000 
    105 CA        -6.9020  -22.9312  -57.4870 C.3       19 UNK         0.1400 
    106 CB        -5.5345  -23.4444  -57.9930 C.3       19 UNK        -0.1800 
    107 C         -6.8996  -21.4439  -57.0755 C.2       19 UNK         0.5000 
    108 O         -7.9714  -20.8460  -56.9719 O.2       19 UNK        -0.5000 
    109 N         -5.7083  -20.8833  -56.8277 N.am      20 UNK        -0.5000 
    110 CA        -5.4888  -19.5134  -56.3560 C.3       20 UNK         0.1400 
    111 CB        -4.0146  -19.1478  -56.5951 C.3       20 UNK        -0.1800 
    112 C         -5.8647  -19.2930  -54.8746 C.2       20 UNK         0.5000 
    113 O         -5.8105  -18.1554  -54.4059 O.2       20 UNK        -0.5000 
    114 N         -6.1954  -20.3741  -54.1536 N.am      21 UNK        -0.5000 
    115 CA        -6.5941  -20.4712  -52.7457 C.3       21 UNK         0.1400 
    116 CB        -7.8077  -19.5832  -52.4151 C.3       21 UNK        -0.1800 
    117 C         -5.4388  -20.2571  -51.7557 C.2       21 UNK         0.5000 
    118 O         -5.3227  -21.0252  -50.8044 O.2       21 UNK        -0.5000 
    119 N         -4.5922  -19.2554  -52.0122 N.am      22 UNK        -0.5000 
    120 CA        -3.3412  -18.9881  -51.2854 C.3       22 UNK         0.1400 
    121 C         -2.1461  -19.8848  -51.7404 C.2       22 UNK         0.5000 
    122 N         -2.2834  -20.7052  -52.7758 N.am      22 UNK        -0.7600 
    123 O         -1.0778  -19.8544  -51.1402 O.2       22 UNK        -0.5000 
    124 C124       -3.0117  -17.4715  -51.3260 C.3       23 UNK        -0.0398 
    125 S125       -1.9904  -16.9121  -49.9185 S.3       23 UNK        -0.2404 
    126 C126       -0.5006  -16.3053  -50.7708 C.3       23 UNK        -0.0205 
    127 H127       -0.3714  -12.4553  -49.0513 H         1 UNK         0.0600 
    128 H128       -0.5387  -10.7228  -48.7117 H         1 UNK         0.0600 
    129 H129       -1.8758  -11.8193  -48.4054 H         1 UNK         0.0600 
    130 H130        1.2812  -11.8578  -45.6685 H         1 UNK         0.3000 
    131 H131        1.6430  -10.4513  -48.1067 H         1 UNK         0.0600 
    132 H132        3.2196  -11.8282  -49.2392 H         1 UNK         0.0800 
    133 H133        1.8697  -12.8574  -48.9735 H         1 UNK         0.0800 
    134 H134        1.7711  -14.3514  -46.6521 H         1 UNK         0.0800 
    135 H135        3.1328  -15.3542  -46.2712 H         1 UNK         0.0800 
    136 H136        0.5315  -14.6972  -48.8203 H         1 UNK         0.1150 
    137 H137        1.1809  -18.4277  -50.8140 H         1 UNK         0.1150 
    138 H138        3.8620  -17.1690  -47.7187 H         1 UNK         0.1150 
    139 H139        3.2450  -19.6474  -50.4424 H         1 UNK         0.0800 
    140 H140        4.4549  -19.0359  -49.3426 H         1 UNK         0.0800 
    141 H141        1.0290  -20.8258  -49.6646 H         1 UNK         0.0800 
    142 H142        0.5806  -19.7662  -48.3455 H         1 UNK         0.0800 
    143 H143        1.1398  -22.7471  -48.0119 H         1 UNK         0.0600 
    144 H144        0.6880  -20.7428  -46.0453 H         1 UNK         0.3000 
    145 H145       -0.4706  -23.0073  -43.4815 H         1 UNK         0.0600 
    146 H146        1.3708  -21.8234  -42.3146 H         1 UNK         0.0600 
    147 H147        2.0332  -21.2821  -43.8549 H         1 UNK         0.0600 
    148 H148        2.0138  -22.9941  -43.4569 H         1 UNK         0.0600 
    149 H149       -0.2063  -20.1787  -43.4632 H         1 UNK         0.3000 
    150 H150       -3.5367  -19.4230  -44.5921 H         1 UNK         0.0600 
    151 H151       -3.7049  -19.9002  -42.1577 H         1 UNK         0.0600 
    152 H152       -3.4963  -18.1786  -42.4439 H         1 UNK         0.0600 
    153 H153       -2.1394  -19.1501  -41.8793 H         1 UNK         0.0600 
    154 H154       -1.4581  -17.6749  -43.8282 H         1 UNK         0.3000 
    155 H155        0.1459  -17.4036  -47.0289 H         1 UNK         0.0600 
    156 H156       -1.5906  -15.5547  -45.2981 H         1 UNK         0.0600 
    157 H157       -1.7406  -15.8270  -47.0235 H         1 UNK         0.0600 
    158 H158       -0.3306  -15.0046  -46.3885 H         1 UNK         0.0600 
    159 H159        0.8179  -16.2451  -44.5228 H         1 UNK         0.3000 
    160 H160        2.8578  -18.9408  -43.3045 H         1 UNK         0.0600 
    161 H161        3.6106  -16.1040  -44.1615 H         1 UNK         0.0600 
    162 H162        4.2893  -17.5654  -44.8648 H         1 UNK         0.0600 
    163 H163        4.5491  -17.2040  -43.1654 H         1 UNK         0.0600 
    164 H164        2.0778  -16.3389  -42.3033 H         1 UNK         0.3000 
    165 H165       -0.7799  -17.4699  -40.5118 H         1 UNK         0.0600 
    166 H166        0.4625  -16.5217  -38.5821 H         1 UNK         0.0600 
    167 H167        1.1113  -18.0981  -39.0042 H         1 UNK         0.0600 
    168 H168        1.9841  -16.6419  -39.4664 H         1 UNK         0.0600 
    169 H169        0.5848  -14.9597  -40.6277 H         1 UNK         0.3000 
    170 H170       -0.8096  -13.7223  -43.6294 H         1 UNK         0.0600 
    171 H171       -2.7105  -13.3437  -42.0587 H         1 UNK         0.0600 
    172 H172       -1.5859  -12.9580  -40.7610 H         1 UNK         0.0600 
    173 H173       -1.6982  -11.9138  -42.1791 H         1 UNK         0.0600 
    174 H174        0.7450  -12.5886  -41.4696 H         1 UNK         0.3000 
    175 H175        2.9901  -12.0423  -41.9449 H         1 UNK         0.0600 
    176 H176        3.7341  -15.0036  -41.4784 H         1 UNK         0.0600 
    177 H177        4.3859  -13.6269  -40.5975 H         1 UNK         0.0600 
    178 H178        2.7081  -14.0656  -40.3986 H         1 UNK         0.0600 
    179 H179        3.8418  -13.4289  -44.2281 H         1 UNK         0.3000 
    180 H180        7.3273  -12.4482  -44.1448 H         1 UNK         0.0600 
    181 H181        7.0413  -14.1863  -45.8815 H         1 UNK         0.0600 
    182 H182        5.3823  -14.4781  -45.3716 H         1 UNK         0.0600 
    183 H183        6.7129  -14.8483  -44.2882 H         1 UNK         0.0600 
    184 H184        5.3413  -12.1318  -46.2411 H         1 UNK         0.3000 
    185 H185        5.0070   -8.6524  -45.9873 H         1 UNK         0.0600 
    186 H186        6.8237  -10.0046  -48.0546 H         1 UNK         0.0600 
    187 H187        6.0110   -8.4500  -48.2460 H         1 UNK         0.0600 
    188 H188        7.2746   -8.6384  -47.0420 H         1 UNK         0.0600 
    189 H189        4.3915  -10.3784  -48.1457 H         1 UNK         0.3000 
    190 H190       -1.7954  -20.7949  -47.2769 H         1 UNK         0.3000 
    191 H191       -3.4042  -21.8166  -49.3522 H         1 UNK         0.0600 
    192 H192       -3.9914  -19.8015  -47.9958 H         1 UNK         0.0600 
    193 H193       -4.2392  -20.8107  -46.5746 H         1 UNK         0.0600 
    194 H194       -5.3000  -20.9723  -47.9681 H         1 UNK         0.0600 
    195 H195       -2.8748  -23.0476  -46.0307 H         1 UNK         0.3000 
    196 H196       -4.6565  -25.2619  -46.1819 H         1 UNK         0.0600 
    197 H197       -3.7944  -24.3834  -44.0363 H         1 UNK         0.0600 
    198 H198       -2.1513  -24.8514  -44.4649 H         1 UNK         0.0600 
    199 H199       -3.3792  -26.0829  -44.2006 H         1 UNK         0.0600 
    200 H200       -1.1506  -24.9745  -46.9456 H         1 UNK         0.3000 
    201 H201       -0.7292  -27.6820  -47.6971 H         1 UNK         0.0600 
    202 H202        1.1122  -26.0963  -47.1787 H         1 UNK         0.0600 
    203 H203        0.7309  -25.1489  -48.6143 H         1 UNK         0.0600 
    204 H204        1.3281  -26.7945  -48.7771 H         1 UNK         0.0600 
    205 H205       -1.8329  -24.8628  -49.5882 H         1 UNK         0.3000 
    206 H206       -2.0863  -26.2605  -52.1059 H         1 UNK         0.0600 
    207 H207       -3.3137  -23.6270  -51.1182 H         1 UNK         0.0600 
    208 H208       -1.7610  -23.7895  -51.9332 H         1 UNK         0.0600 
    209 H209       -3.2478  -24.1645  -52.7901 H         1 UNK         0.0600 
    210 H210       -3.8888  -26.5405  -49.2674 H         1 UNK         0.3000 
    211 H211       -5.8447  -27.3172  -48.6249 H         1 UNK         0.0600 
    212 H212       -6.0124  -28.6734  -51.3691 H         1 UNK         0.0600 
    213 H213       -6.8742  -29.1510  -49.9124 H         1 UNK         0.0600 
    214 H214       -5.1267  -29.3032  -49.9802 H         1 UNK         0.0600 
    215 H215       -5.8126  -24.7120  -49.8030 H         1 UNK         0.3000 
    216 H216       -7.0016  -23.0175  -50.5182 H         1 UNK         0.0600 
    217 H217       -9.3646  -22.8472  -49.8632 H         1 UNK         0.0600 
    218 H218       -8.4629  -23.6548  -48.5931 H         1 UNK         0.0600 
    219 H219       -9.4877  -24.5916  -49.6807 H         1 UNK         0.0600 
    220 H220       -6.4910  -25.2720  -52.5185 H         1 UNK         0.3000 
    221 H221       -8.6705  -24.9762  -54.4682 H         1 UNK         0.0600 
    222 H222       -5.9915  -26.4583  -54.6515 H         1 UNK         0.0600 
    223 H223       -7.4944  -27.1751  -54.0727 H         1 UNK         0.0600 
    224 H224       -7.3610  -26.6339  -55.7385 H         1 UNK         0.0600 
    225 H225       -8.1871  -24.3859  -56.6818 H         1 UNK         0.3000 
    226 H226       -7.6078  -23.0144  -58.3148 H         1 UNK         0.0600 
    227 H227       -5.6226  -24.4596  -58.3802 H         1 UNK         0.0600 
    228 H228       -5.1575  -22.8245  -58.8075 H         1 UNK         0.0600 
    229 H229       -4.7788  -23.4607  -57.2070 H         1 UNK         0.0600 
    230 H230       -4.8862  -21.4633  -56.9149 H         1 UNK         0.3000 
    231 H231       -6.1102  -18.8405  -56.9504 H         1 UNK         0.0600 
    232 H232       -3.8127  -18.1159  -56.3046 H         1 UNK         0.0600 
    233 H233       -3.7503  -19.2424  -57.6485 H         1 UNK         0.0600 
    234 H234       -3.3429  -19.7873  -56.0209 H         1 UNK         0.0600 
    235 H235       -6.1354  -21.2751  -54.6200 H         1 UNK         0.3000 
    236 H236       -6.9125  -21.5043  -52.6212 H         1 UNK         0.0600 
    237 H237       -7.5696  -18.5212  -52.4747 H         1 UNK         0.0600 
    238 H238       -8.6366  -19.7825  -53.0944 H         1 UNK         0.0600 
    239 H239       -8.1633  -19.7791  -51.4028 H         1 UNK         0.0600 
    240 H240       -4.7900  -18.6732  -52.8200 H         1 UNK         0.3000 
    241 H241       -3.5188  -19.2523  -50.2423 H         1 UNK         0.0600 
    242 H242       -1.5031  -21.2799  -53.0491 H         1 UNK         0.3800 
    243 H243       -3.1566  -20.7700  -53.2704 H         1 UNK         0.3800 
    244 H244       -3.9356  -16.8939  -51.2692 H         1 UNK         0.0800 
    245 H245       -2.5583  -17.1968  -52.2793 H         1 UNK         0.0800 
    246 H246       -0.3753  -16.8185  -51.7253 H         1 UNK         0.0800 
    247 H247       -0.6208  -15.2461  -51.0023 H         1 UNK         0.0800 
@<TRIPOS>BOND
     1    1    2 1    
     2    1  127 1    
     3    1  128 1    
     4    1  129 1    
     5    2    3 2    
     6    2    4 am   BACKBONE|DICT|INTERRES
     7    4    5 1    
     8    4  130 1    
     9    5    6 1    
    10    5   65 1    
    11    5  131 1    
    12    6    7 1    
    13    6  132 1    
    14    6  133 1    
    15    7    8 1    
    16    8    9 1    
    17    8  134 1    
    18    8  135 1    
    19    9   10 ar   
    20    9   14 ar   
    21   10   11 ar   
    22   10  136 1    
    23   11   12 ar   
    24   11  126 1    
    25   12   13 ar   
    26   12  137 1    
    27   13   14 ar   
    28   13   15 1    
    29   14  138 1    
    30   15   16 1    
    31   15  139 1    
    32   15  140 1    
    33   16   17 1    
    34   17   18 1    
    35   17  141 1    
    36   17  142 1    
    37   18   19 1    
    38   18   67 1    
    39   18  143 1    
    40   19   20 am   BACKBONE|DICT|INTERRES
    41   19  144 1    
    42   20   21 2    
    43   20   22 1    
    44   22   23 1    
    45   22   24 1    
    46   22  145 1    
    47   23  146 1    
    48   23  147 1    
    49   23  148 1    
    50   24   25 am   BACKBONE|DICT|INTERRES
    51   24  149 1    
    52   25   26 2    
    53   25   27 1    
    54   27   28 1    
    55   27   29 1    
    56   27  150 1    
    57   28  151 1    
    58   28  152 1    
    59   28  153 1    
    60   29   30 am   BACKBONE|DICT|INTERRES
    61   29  154 1    
    62   30   31 2    
    63   30   32 1    
    64   32   33 1    
    65   32   34 1    
    66   32  155 1    
    67   33  156 1    
    68   33  157 1    
    69   33  158 1    
    70   34   35 am   BACKBONE|DICT|INTERRES
    71   34  159 1    
    72   35   36 2    
    73   35   37 1    
    74   37   38 1    
    75   37   39 1    
    76   37  160 1    
    77   38  161 1    
    78   38  162 1    
    79   38  163 1    
    80   39   40 am   BACKBONE|DICT|INTERRES
    81   39  164 1    
    82   40   41 2    
    83   40   42 1    
    84   42   43 1    
    85   42   44 1    
    86   42  165 1    
    87   43  166 1    
    88   43  167 1    
    89   43  168 1    
    90   44   45 am   BACKBONE|DICT|INTERRES
    91   44  169 1    
    92   45   46 2    
    93   45   47 1    
    94   47   48 1    
    95   47   49 1    
    96   47  170 1    
    97   48  171 1    
    98   48  172 1    
    99   48  173 1    
   100   49   50 am   BACKBONE|DICT|INTERRES
   101   49  174 1    
   102   50   51 2    
   103   50   52 1    
   104   52   53 1    
   105   52   54 1    
   106   52  175 1    
   107   53  176 1    
   108   53  177 1    
   109   53  178 1    
   110   54   55 am   BACKBONE|DICT|INTERRES
   111   54  179 1    
   112   55   56 2    
   113   55   57 1    
   114   57   58 1    
   115   57   59 1    
   116   57  180 1    
   117   58  181 1    
   118   58  182 1    
   119   58  183 1    
   120   59   60 am   BACKBONE|DICT|INTERRES
   121   59  184 1    
   122   60   61 2    
   123   60   62 1    
   124   62   63 1    
   125   62   64 1    
   126   62  185 1    
   127   63  186 1    
   128   63  187 1    
   129   63  188 1    
   130   64   65 am   BACKBONE|DICT|INTERRES
   131   64  189 1    
   132   65   66 2    
   133   67   68 2    
   134   67   69 am   BACKBONE|DICT|INTERRES
   135   69   70 1    
   136   69  190 1    
   137   70   71 1    
   138   70   72 1    
   139   70  191 1    
   140   71  192 1    
   141   71  193 1    
   142   71  194 1    
   143   72   73 2    
   144   72   74 am   BACKBONE|DICT|INTERRES
   145   74   75 1    
   146   74  195 1    
   147   75   76 1    
   148   75   77 1    
   149   75  196 1    
   150   76  197 1    
   151   76  198 1    
   152   76  199 1    
   153   77   78 2    
   154   77   79 am   BACKBONE|DICT|INTERRES
   155   79   80 1    
   156   79  200 1    
   157   80   81 1    
   158   80   82 1    
   159   80  201 1    
   160   81  202 1    
   161   81  203 1    
   162   81  204 1    
   163   82   83 2    
   164   82   84 am   BACKBONE|DICT|INTERRES
   165   84   85 1    
   166   84  205 1    
   167   85   86 1    
   168   85   87 1    
   169   85  206 1    
   170   86  207 1    
   171   86  208 1    
   172   86  209 1    
   173   87   88 2    
   174   87   89 am   BACKBONE|DICT|INTERRES
   175   89   90 1    
   176   89  210 1    
   177   90   91 1    
   178   90   92 1    
   179   90  211 1    
   180   91  212 1    
   181   91  213 1    
   182   91  214 1    
   183   92   93 2    
   184   92   94 am   BACKBONE|DICT|INTERRES
   185   94   95 1    
   186   94  215 1    
   187   95   96 1    
   188   95   97 1    
   189   95  216 1    
   190   96  217 1    
   191   96  218 1    
   192   96  219 1    
   193   97   98 2    
   194   97   99 am   BACKBONE|DICT|INTERRES
   195   99  100 1    
   196   99  220 1    
   197  100  101 1    
   198  100  102 1    
   199  100  221 1    
   200  101  222 1    
   201  101  223 1    
   202  101  224 1    
   203  102  103 2    
   204  102  104 am   BACKBONE|DICT|INTERRES
   205  104  105 1    
   206  104  225 1    
   207  105  106 1    
   208  105  107 1    
   209  105  226 1    
   210  106  227 1    
   211  106  228 1    
   212  106  229 1    
   213  107  108 2    
   214  107  109 am   BACKBONE|DICT|INTERRES
   215  109  110 1    
   216  109  230 1    
   217  110  111 1    
   218  110  112 1    
   219  110  231 1    
   220  111  232 1    
   221  111  233 1    
   222  111  234 1    
   223  112  113 2    
   224  112  114 am   BACKBONE|DICT|INTERRES
   225  114  115 1    
   226  114  235 1    
   227  115  116 1    
   228  115  117 1    
   229  115  236 1    
   230  116  237 1    
   231  116  238 1    
   232  116  239 1    
   233  117  118 2    
   234  117  119 am   BACKBONE|DICT|INTERRES
   235  119  120 1    
   236  119  240 1    
   237  120  121 1    
   238  120  124 1    
   239  120  241 1    
   240  121  122 am   BACKBONE|DICT|INTERRES
   241  121  123 2    
   242  122  242 1    
   243  122  243 1    
   244  124  125 1    
   245  124  244 1    
   246  124  245 1    
   247  125  126 1    
   248  126  246 1    
   249  126  247 1    
@<TRIPOS>SUBSTRUCTURE
     1 UNK         1 GROUP             0       ****    0 ROOT    
