@<TRIPOS>MOLECULE
3R540
247   249    1
SMALL
USER_CHARGES


@<TRIPOS>ATOM
      1 CA         -2.7553  -10.6512  -43.1418 C.3       0 UNK        -0.1800 
      2 C          -2.2850  -11.4884  -44.3220 C.2       0 UNK         0.5000 
      3 O          -1.5219  -11.0005  -45.1554 O.2       0 UNK        -0.5000 
      4 N          -2.7185  -12.7550  -44.3877 N.am      1 UNK        -0.5000 
      5 CA         -2.4291  -13.7040  -45.4765 C.3       1 UNK         0.1400 
      6 C6         -3.2908  -14.9863  -45.3797 C.3       23 UNK        -0.0398 
      7 S7         -5.0743  -14.5930  -45.4156 S.3       23 UNK        -0.2404 
      8 C8         -5.8333  -16.2498  -45.4903 C.3       23 UNK        -0.0205 
      9 C9         -5.5131  -17.0235  -46.7659 C.ar      23 UNK        -0.0193 
     10 C10        -5.5567  -16.4077  -48.0205 C.ar      23 UNK        -0.1150 
     11 C11        -5.2473  -17.1283  -49.1760 C.ar      23 UNK        -0.0193 
     12 C12        -4.9015  -18.4786  -49.0716 C.ar      23 UNK        -0.1150 
     13 C13        -4.8684  -19.1183  -47.8292 C.ar      23 UNK        -0.0193 
     14 C14        -5.1863  -18.3794  -46.6836 C.ar      23 UNK        -0.1150 
     15 C15        -4.4437  -20.5863  -47.7659 C.3       23 UNK        -0.0205 
     16 S16        -5.3113  -21.5984  -46.5191 S.3       23 UNK        -0.2404 
     17 C17        -4.2226  -21.4298  -45.0605 C.3       23 UNK        -0.0398 
     18 CA         -3.0290  -22.4153  -45.0218 C.3       11 UNK         0.1400 
     19 N          -2.0454  -21.9835  -44.0205 N.am      11 UNK        -0.5000 
     20 C          -0.8645  -22.5579  -43.7540 C.2       10 UNK         0.5000 
     21 O          -0.5135  -23.6384  -44.2319 O.2       10 UNK        -0.5000 
     22 CA          0.0741  -21.7887  -42.7957 C.3       10 UNK         0.1400 
     23 CB          1.4936  -22.3816  -42.7619 C.3       10 UNK        -0.1800 
     24 N           0.1731  -20.3666  -43.1375 N.am      10 UNK        -0.5000 
     25 C          -0.7013  -19.4132  -42.7879 C.2       9 UNK         0.5000 
     26 O          -1.7078  -19.6306  -42.1131 O.2       9 UNK        -0.5000 
     27 CA         -0.4466  -18.0038  -43.3540 C.3       9 UNK         0.1400 
     28 CB          0.7346  -17.3214  -42.6504 C.3       9 UNK        -0.1800 
     29 N          -0.2150  -18.0630  -44.7982 N.am      9 UNK        -0.5000 
     30 C          -1.1889  -18.3169  -45.6849 C.2       8 UNK         0.5000 
     31 O          -2.3795  -18.3193  -45.3835 O.2       8 UNK        -0.5000 
     32 CA         -0.7789  -18.6937  -47.1202 C.3       8 UNK         0.1400 
     33 CB         -0.8956  -17.5110  -48.0913 C.3       8 UNK        -0.1800 
     34 N           0.5682  -19.2632  -47.1709 N.am      8 UNK        -0.5000 
     35 C           0.8398  -20.5466  -46.8886 C.2       7 UNK         0.5000 
     36 O          -0.0294  -21.3790  -46.6450 O.2       7 UNK        -0.5000 
     37 CA          2.3180  -20.9836  -46.8708 C.3       7 UNK         0.1400 
     38 CB          2.7087  -21.6207  -48.2126 C.3       7 UNK        -0.1800 
     39 N           3.2393  -19.8853  -46.5842 N.am      7 UNK        -0.5000 
     40 C           3.3293  -19.2485  -45.4087 C.2       6 UNK         0.5000 
     41 O           2.6856  -19.5702  -44.4109 O.2       6 UNK        -0.5000 
     42 CA          4.2262  -17.9936  -45.3785 C.3       6 UNK         0.1400 
     43 CB          5.6696  -18.3671  -45.0122 C.3       6 UNK        -0.1800 
     44 N           4.2149  -17.2702  -46.6570 N.am      6 UNK        -0.5000 
     45 C           3.1192  -16.7039  -47.1793 C.2       5 UNK         0.5000 
     46 O           2.0353  -16.6671  -46.5946 O.2       5 UNK        -0.5000 
     47 CA          3.2179  -16.2018  -48.6241 C.3       5 UNK         0.1400 
     48 CB          3.0572  -17.3902  -49.5964 C.3       5 UNK        -0.1800 
     49 N           2.1705  -15.2114  -48.8512 N.am      5 UNK        -0.5000 
     50 C           2.0484  -14.4335  -49.9336 C.2       4 UNK         0.5000 
     51 O           2.8198  -14.4611  -50.8929 O.2       4 UNK        -0.5000 
     52 CA          0.8947  -13.4183  -49.9175 C.3       4 UNK         0.1400 
     53 CB         -0.4678  -14.1104  -50.0842 C.3       4 UNK        -0.1800 
     54 N           0.9170  -12.6345  -48.6826 N.am      4 UNK        -0.5000 
     55 C           1.7593  -11.6116  -48.4669 C.2       3 UNK         0.5000 
     56 O           2.5239  -11.1685  -49.3250 O.2       3 UNK        -0.5000 
     57 CA          1.7641  -10.9679  -47.0659 C.3       3 UNK         0.1400 
     58 CB          0.8900   -9.7049  -47.0535 C.3       3 UNK        -0.1800 
     59 N           1.3163  -11.8744  -46.0091 N.am      3 UNK        -0.5000 
     60 C           2.0058  -12.9434  -45.5805 C.2       2 UNK         0.5000 
     61 O           3.1327  -13.2319  -45.9840 O.2       2 UNK        -0.5000 
     62 CA          1.3231  -13.8551  -44.5385 C.3       2 UNK         0.1400 
     63 CB          1.8162  -13.4949  -43.1279 C.3       2 UNK        -0.1800 
     64 N          -0.1417  -13.7972  -44.5545 N.am      2 UNK        -0.5000 
     65 C          -0.9274  -14.0416  -45.6146 C.2       1 UNK         0.5000 
     66 O          -0.4959  -14.4332  -46.6977 O.2       1 UNK        -0.5000 
     67 C          -3.4881  -23.8793  -44.8500 C.2       11 UNK         0.5000 
     68 O          -3.6503  -24.5867  -45.8460 O.2       11 UNK        -0.5000 
     69 N          -3.6474  -24.3164  -43.5925 N.am      12 UNK        -0.5000 
     70 CA         -4.0272  -25.6829  -43.2330 C.3       12 UNK         0.1400 
     71 CB         -4.4030  -25.7291  -41.7444 C.3       12 UNK        -0.1800 
     72 C          -2.9293  -26.7162  -43.5470 C.2       12 UNK         0.5000 
     73 O          -3.2486  -27.8211  -43.9857 O.2       12 UNK        -0.5000 
     74 N          -1.6594  -26.3349  -43.3469 N.am      13 UNK        -0.5000 
     75 CA         -0.4911  -27.1640  -43.6537 C.3       13 UNK         0.1400 
     76 CB          0.7359  -26.6262  -42.9022 C.3       13 UNK        -0.1800 
     77 C          -0.2207  -27.2294  -45.1668 C.2       13 UNK         0.5000 
     78 O           0.1735  -28.2805  -45.6724 O.2       13 UNK        -0.5000 
     79 N          -0.4798  -26.1155  -45.8647 N.am      14 UNK        -0.5000 
     80 CA         -0.4200  -26.0019  -47.3225 C.3       14 UNK         0.1400 
     81 CB         -0.3313  -24.5143  -47.6942 C.3       14 UNK        -0.1800 
     82 C          -1.6132  -26.6632  -48.0435 C.2       14 UNK         0.5000 
     83 O          -1.5980  -26.7398  -49.2718 O.2       14 UNK        -0.5000 
     84 N          -2.6385  -27.0884  -47.2883 N.am      15 UNK        -0.5000 
     85 CA         -3.8990  -27.6852  -47.7472 C.3       15 UNK         0.1400 
     86 CB         -3.6493  -29.0942  -48.3227 C.3       15 UNK        -0.1800 
     87 C          -4.6762  -26.7668  -48.7162 C.2       15 UNK         0.5000 
     88 O          -5.2858  -27.2447  -49.6740 O.2       15 UNK        -0.5000 
     89 N          -4.5986  -25.4535  -48.4571 N.am      16 UNK        -0.5000 
     90 CA         -5.1530  -24.3393  -49.2318 C.3       16 UNK         0.1400 
     91 CB         -6.6934  -24.3914  -49.2534 C.3       16 UNK        -0.1800 
     92 C          -4.5550  -24.1447  -50.6436 C.2       16 UNK         0.5000 
     93 O          -5.0250  -23.2699  -51.3726 O.2       16 UNK        -0.5000 
     94 N          -3.5045  -24.8987  -51.0067 N.am      17 UNK        -0.5000 
     95 CA         -2.8315  -24.8099  -52.3098 C.3       17 UNK         0.1400 
     96 CB         -1.9039  -26.0206  -52.4873 C.3       17 UNK        -0.1800 
     97 C          -2.0465  -23.4971  -52.5055 C.2       17 UNK         0.5000 
     98 O          -1.7744  -23.1081  -53.6419 O.2       17 UNK        -0.5000 
     99 N          -1.7260  -22.8218  -51.3938 N.am      18 UNK        -0.5000 
    100 CA        -1.0393  -21.5322  -51.3375 C.3       18 UNK         0.1400 
    101 CB        -0.6359  -21.2599  -49.8866 C.3       18 UNK        -0.1800 
    102 C         -1.8517  -20.3462  -51.8912 C.2       18 UNK         0.5000 
    103 O         -1.2787  -19.2746  -52.0794 O.2       18 UNK        -0.5000 
    104 N         -3.1486  -20.5435  -52.1747 N.am      19 UNK        -0.5000 
    105 CA        -4.0482  -19.5455  -52.7625 C.3       19 UNK         0.1400 
    106 CB        -5.4653  -20.1304  -52.8419 C.3       19 UNK        -0.1800 
    107 C         -3.5991  -18.9949  -54.1312 C.2       19 UNK         0.5000 
    108 O         -4.0145  -17.8978  -54.5021 O.2       19 UNK        -0.5000 
    109 N         -2.7171  -19.7233  -54.8298 N.am      20 UNK        -0.5000 
    110 CA        -2.0217  -19.2666  -56.0337 C.3       20 UNK         0.1400 
    111 CB        -1.2144  -20.4372  -56.6141 C.3       20 UNK        -0.1800 
    112 C         -1.1061  -18.0458  -55.7928 C.2       20 UNK         0.5000 
    113 O         -0.9165  -17.2487  -56.7123 O.2       20 UNK        -0.5000 
    114 N         -0.5754  -17.8975  -54.5683 N.am      21 UNK        -0.5000 
    115 CA         0.2553  -16.7609  -54.1604 C.3       21 UNK         0.1400 
    116 CB         1.0670  -17.1434  -52.9122 C.3       21 UNK        -0.1800 
    117 C         -0.5657  -15.4850  -53.8915 C.2       21 UNK         0.5000 
    118 O         -0.0004  -14.3913  -53.9111 O.2       21 UNK        -0.5000 
    119 N         -1.8730  -15.6396  -53.6446 N.am      22 UNK        -0.5000 
    120 CA        -2.8174  -14.5411  -53.3853 C.3       22 UNK         0.1400 
    121 C         -3.2489  -13.7542  -54.6590 C.2       22 UNK         0.5000 
    122 N         -2.9065  -14.1893  -55.8663 N.am      22 UNK        -0.7600 
    123 O         -3.9018  -12.7200  -54.5490 O.2       22 UNK        -0.5000 
    124 C124       -4.0601  -15.0200  -52.5907 C.3       23 UNK        -0.0398 
    125 S125       -3.6417  -15.8451  -51.0183 S.3       23 UNK        -0.2404 
    126 C126       -5.2878  -16.4453  -50.5330 C.3       23 UNK        -0.0205 
    127 H127       -1.8993  -10.3106  -42.5593 H         1 UNK         0.0600 
    128 H128       -3.4145  -11.2152  -42.4815 H         1 UNK         0.0600 
    129 H129       -3.2977   -9.7752  -43.4972 H         1 UNK         0.0600 
    130 H130       -3.3535  -13.0941  -43.6789 H         1 UNK         0.3000 
    131 H131       -2.7022  -13.2011  -46.4069 H         1 UNK         0.0600 
    132 H132       -3.0708  -15.6545  -46.2146 H         1 UNK         0.0800 
    133 H133       -3.0649  -15.5433  -44.4688 H         1 UNK         0.0800 
    134 H134       -6.9159  -16.1419  -45.4153 H         1 UNK         0.0800 
    135 H135       -5.5166  -16.8119  -44.6102 H         1 UNK         0.0800 
    136 H136       -5.8210  -15.3626  -48.0978 H         1 UNK         0.1150 
    137 H137       -4.6503  -19.0355  -49.9607 H         1 UNK         0.1150 
    138 H138       -5.1658  -18.8470  -45.7127 H         1 UNK         0.1150 
    139 H139       -3.3706  -20.6444  -47.5942 H         1 UNK         0.0800 
    140 H140       -4.6182  -21.0507  -48.7374 H         1 UNK         0.0800 
    141 H141       -4.8343  -21.5336  -44.1627 H         1 UNK         0.0800 
    142 H142       -3.8400  -20.4119  -45.0355 H         1 UNK         0.0800 
    143 H143       -2.5174  -22.3593  -45.9843 H         1 UNK         0.0600 
    144 H144       -2.2407  -21.1085  -43.5493 H         1 UNK         0.3000 
    145 H145       -0.3466  -21.8821  -41.7927 H         1 UNK         0.0600 
    146 H146        2.1405  -21.8190  -42.0885 H         1 UNK         0.0600 
    147 H147        1.4804  -23.4129  -42.4091 H         1 UNK         0.0600 
    148 H148        1.9546  -22.3751  -43.7500 H         1 UNK         0.0600 
    149 H149        0.9809  -20.0996  -43.6937 H         1 UNK         0.3000 
    150 H150       -1.3363  -17.3978  -43.1688 H         1 UNK         0.0600 
    151 H151        1.6630  -17.8801  -42.7588 H         1 UNK         0.0600 
    152 H152        0.5408  -17.2156  -41.5825 H         1 UNK         0.0600 
    153 H153        0.8979  -16.3243  -43.0507 H         1 UNK         0.0600 
    154 H154        0.7429  -18.0395  -45.1191 H         1 UNK         0.3000 
    155 H155       -1.4877  -19.4472  -47.4614 H         1 UNK         0.0600 
    156 H156       -0.1846  -16.7234  -47.8560 H         1 UNK         0.0600 
    157 H157       -1.8945  -17.0734  -48.0566 H         1 UNK         0.0600 
    158 H158       -0.7169  -17.8253  -49.1199 H         1 UNK         0.0600 
    159 H159        1.3260  -18.6090  -47.3069 H         1 UNK         0.3000 
    160 H160        2.4303  -21.7369  -46.0885 H         1 UNK         0.0600 
    161 H161        2.5844  -20.9236  -49.0424 H         1 UNK         0.0600 
    162 H162        2.0940  -22.4964  -48.4220 H         1 UNK         0.0600 
    163 H163        3.7468  -21.9534  -48.2048 H         1 UNK         0.0600 
    164 H164        3.8112  -19.5622  -47.3498 H         1 UNK         0.3000 
    165 H165        3.8364  -17.3262  -44.6067 H         1 UNK         0.0600 
    166 H166        6.2951  -17.4790  -44.9198 H         1 UNK         0.0600 
    167 H167        6.1207  -19.0201  -45.7604 H         1 UNK         0.0600 
    168 H168        5.7058  -18.8897  -44.0553 H         1 UNK         0.0600 
    169 H169        5.0752  -17.2702  -47.1864 H         1 UNK         0.3000 
    170 H170        4.1913  -15.7284  -48.7662 H         1 UNK         0.0600 
    171 H171        3.7839  -18.1760  -49.3882 H         1 UNK         0.0600 
    172 H172        2.0629  -17.8340  -49.5284 H         1 UNK         0.0600 
    173 H173        3.2133  -17.0866  -50.6310 H         1 UNK         0.0600 
    174 H174        1.5110  -15.1196  -48.0859 H         1 UNK         0.3000 
    175 H175        1.0258  -12.7462  -50.7686 H         1 UNK         0.0600 
    176 H176       -0.6897  -14.7902  -49.2633 H         1 UNK         0.0600 
    177 H177       -1.2768  -13.3824  -50.1414 H         1 UNK         0.0600 
    178 H178       -0.4943  -14.6979  -51.0017 H         1 UNK         0.0600 
    179 H179        0.3528  -12.9825  -47.9158 H         1 UNK         0.3000 
    180 H180        2.7912  -10.6712  -46.8433 H         1 UNK         0.0600 
    181 H181       -0.1493   -9.9339  -47.2922 H         1 UNK         0.0600 
    182 H182        1.2424   -8.9789  -47.7873 H         1 UNK         0.0600 
    183 H183        0.9108   -9.2184  -46.0782 H         1 UNK         0.0600 
    184 H184        0.3922  -11.6983  -45.6289 H         1 UNK         0.3000 
    185 H185        1.6168  -14.8814  -44.7594 H         1 UNK         0.0600 
    186 H186        1.3784  -14.1425  -42.3689 H         1 UNK         0.0600 
    187 H187        2.8996  -13.5989  -43.0560 H         1 UNK         0.0600 
    188 H188        1.5679  -12.4649  -42.8686 H         1 UNK         0.0600 
    189 H189       -0.5844  -13.4499  -43.7167 H         1 UNK         0.3000 
    190 H190       -3.4791  -23.6739  -42.8325 H         1 UNK         0.3000 
    191 H191       -4.9111  -25.9522  -43.8153 H         1 UNK         0.0600 
    192 H192       -4.7116  -26.7334  -41.4509 H         1 UNK         0.0600 
    193 H193       -5.2347  -25.0587  -41.5267 H         1 UNK         0.0600 
    194 H194       -3.5652  -25.4437  -41.1071 H         1 UNK         0.0600 
    195 H195       -1.4743  -25.3835  -43.0609 H         1 UNK         0.3000 
    196 H196       -0.6845  -28.1797  -43.3019 H         1 UNK         0.0600 
    197 H197        1.0116  -25.6279  -43.2414 H         1 UNK         0.0600 
    198 H198        0.5540  -26.5796  -41.8284 H         1 UNK         0.0600 
    199 H199        1.6000  -27.2730  -43.0584 H         1 UNK         0.0600 
    200 H200       -0.7322  -25.2746  -45.3535 H         1 UNK         0.3000 
    201 H201        0.4881  -26.4965  -47.6726 H         1 UNK         0.0600 
    202 H202       -1.2259  -23.9688  -47.3922 H         1 UNK         0.0600 
    203 H203       -0.2125  -24.3852  -48.7704 H         1 UNK         0.0600 
    204 H204        0.5243  -24.0405  -47.2130 H         1 UNK         0.0600 
    205 H205       -2.5715  -26.9326  -46.2922 H         1 UNK         0.3000 
    206 H206       -4.5260  -27.7938  -46.8610 H         1 UNK         0.0600 
    207 H207       -3.1088  -29.7190  -47.6116 H         1 UNK         0.0600 
    208 H208       -4.5901  -29.5984  -48.5466 H         1 UNK         0.0600 
    209 H209       -3.0695  -29.0577  -49.2455 H         1 UNK         0.0600 
    210 H210       -4.1014  -25.1803  -47.6116 H         1 UNK         0.3000 
    211 H211       -4.8665  -23.4467  -48.6801 H         1 UNK         0.0600 
    212 H212       -7.1101  -23.4835  -49.6911 H         1 UNK         0.0600 
    213 H213       -7.0975  -24.4759  -48.2446 H         1 UNK         0.0600 
    214 H214       -7.0636  -25.2341  -49.8375 H         1 UNK         0.0600 
    215 H215       -3.1462  -25.5918  -50.3599 H         1 UNK         0.3000 
    216 H216       -3.5974  -24.8524  -53.0870 H         1 UNK         0.0600 
    217 H217       -1.0759  -26.0001  -51.7781 H         1 UNK         0.0600 
    218 H218       -1.4740  -26.0379  -53.4895 H         1 UNK         0.0600 
    219 H219       -2.4433  -26.9577  -52.3478 H         1 UNK         0.0600 
    220 H220       -1.9939  -23.2282  -50.5104 H         1 UNK         0.3000 
    221 H221       -0.1307  -21.6076  -51.9383 H         1 UNK         0.0600 
    222 H222        0.0078  -22.0506  -49.5052 H         1 UNK         0.0600 
    223 H223       -1.5048  -21.1897  -49.2319 H         1 UNK         0.0600 
    224 H224       -0.0825  -20.3235  -49.8054 H         1 UNK         0.0600 
    225 H225       -3.5466  -21.4565  -51.9986 H         1 UNK         0.3000 
    226 H226       -4.0633  -18.6905  -52.0881 H         1 UNK         0.0600 
    227 H227       -5.4979  -21.0148  -53.4795 H         1 UNK         0.0600 
    228 H228       -5.8303  -20.4164  -51.8551 H         1 UNK         0.0600 
    229 H229       -6.1684  -19.4027  -53.2493 H         1 UNK         0.0600 
    230 H230       -2.4340  -20.6184  -54.4553 H         1 UNK         0.3000 
    231 H231       -2.7768  -18.9726  -56.7656 H         1 UNK         0.0600 
    232 H232       -0.4609  -20.7935  -55.9103 H         1 UNK         0.0600 
    233 H233       -0.6977  -20.1413  -57.5282 H         1 UNK         0.0600 
    234 H234       -1.8621  -21.2774  -56.8651 H         1 UNK         0.0600 
    235 H235       -0.8102  -18.5605  -53.8352 H         1 UNK         0.3000 
    236 H236        0.9591  -16.5402  -54.9657 H         1 UNK         0.0600 
    237 H237        1.6230  -18.0684  -53.0646 H         1 UNK         0.0600 
    238 H238        1.7913  -16.3649  -52.6709 H         1 UNK         0.0600 
    239 H239        0.4296  -17.2729  -52.0368 H         1 UNK         0.0600 
    240 H240       -2.2703  -16.5682  -53.6683 H         1 UNK         0.3000 
    241 H241       -2.3009  -13.8137  -52.7561 H         1 UNK         0.0600 
    242 H242       -3.1886  -13.6672  -56.6810 H         1 UNK         0.3800 
    243 H243       -2.3689  -15.0358  -55.9737 H         1 UNK         0.3800 
    244 H244       -4.6583  -15.7010  -53.1973 H         1 UNK         0.0800 
    245 H245       -4.7076  -14.1736  -52.3550 H         1 UNK         0.0800 
    246 H246       -5.6689  -17.1350  -51.2870 H         1 UNK         0.0800 
    247 H247       -5.9838  -15.6054  -50.5078 H         1 UNK         0.0800 
@<TRIPOS>BOND
     1    1    2 1    
     2    1  127 1    
     3    1  128 1    
     4    1  129 1    
     5    2    3 2    
     6    2    4 am   BACKBONE|DICT|INTERRES
     7    4    5 1    
     8    4  130 1    
     9    5    6 1    
    10    5   65 1    
    11    5  131 1    
    12    6    7 1    
    13    6  132 1    
    14    6  133 1    
    15    7    8 1    
    16    8    9 1    
    17    8  134 1    
    18    8  135 1    
    19    9   10 ar   
    20    9   14 ar   
    21   10   11 ar   
    22   10  136 1    
    23   11   12 ar   
    24   11  126 1    
    25   12   13 ar   
    26   12  137 1    
    27   13   14 ar   
    28   13   15 1    
    29   14  138 1    
    30   15   16 1    
    31   15  139 1    
    32   15  140 1    
    33   16   17 1    
    34   17   18 1    
    35   17  141 1    
    36   17  142 1    
    37   18   19 1    
    38   18   67 1    
    39   18  143 1    
    40   19   20 am   BACKBONE|DICT|INTERRES
    41   19  144 1    
    42   20   21 2    
    43   20   22 1    
    44   22   23 1    
    45   22   24 1    
    46   22  145 1    
    47   23  146 1    
    48   23  147 1    
    49   23  148 1    
    50   24   25 am   BACKBONE|DICT|INTERRES
    51   24  149 1    
    52   25   26 2    
    53   25   27 1    
    54   27   28 1    
    55   27   29 1    
    56   27  150 1    
    57   28  151 1    
    58   28  152 1    
    59   28  153 1    
    60   29   30 am   BACKBONE|DICT|INTERRES
    61   29  154 1    
    62   30   31 2    
    63   30   32 1    
    64   32   33 1    
    65   32   34 1    
    66   32  155 1    
    67   33  156 1    
    68   33  157 1    
    69   33  158 1    
    70   34   35 am   BACKBONE|DICT|INTERRES
    71   34  159 1    
    72   35   36 2    
    73   35   37 1    
    74   37   38 1    
    75   37   39 1    
    76   37  160 1    
    77   38  161 1    
    78   38  162 1    
    79   38  163 1    
    80   39   40 am   BACKBONE|DICT|INTERRES
    81   39  164 1    
    82   40   41 2    
    83   40   42 1    
    84   42   43 1    
    85   42   44 1    
    86   42  165 1    
    87   43  166 1    
    88   43  167 1    
    89   43  168 1    
    90   44   45 am   BACKBONE|DICT|INTERRES
    91   44  169 1    
    92   45   46 2    
    93   45   47 1    
    94   47   48 1    
    95   47   49 1    
    96   47  170 1    
    97   48  171 1    
    98   48  172 1    
    99   48  173 1    
   100   49   50 am   BACKBONE|DICT|INTERRES
   101   49  174 1    
   102   50   51 2    
   103   50   52 1    
   104   52   53 1    
   105   52   54 1    
   106   52  175 1    
   107   53  176 1    
   108   53  177 1    
   109   53  178 1    
   110   54   55 am   BACKBONE|DICT|INTERRES
   111   54  179 1    
   112   55   56 2    
   113   55   57 1    
   114   57   58 1    
   115   57   59 1    
   116   57  180 1    
   117   58  181 1    
   118   58  182 1    
   119   58  183 1    
   120   59   60 am   BACKBONE|DICT|INTERRES
   121   59  184 1    
   122   60   61 2    
   123   60   62 1    
   124   62   63 1    
   125   62   64 1    
   126   62  185 1    
   127   63  186 1    
   128   63  187 1    
   129   63  188 1    
   130   64   65 am   BACKBONE|DICT|INTERRES
   131   64  189 1    
   132   65   66 2    
   133   67   68 2    
   134   67   69 am   BACKBONE|DICT|INTERRES
   135   69   70 1    
   136   69  190 1    
   137   70   71 1    
   138   70   72 1    
   139   70  191 1    
   140   71  192 1    
   141   71  193 1    
   142   71  194 1    
   143   72   73 2    
   144   72   74 am   BACKBONE|DICT|INTERRES
   145   74   75 1    
   146   74  195 1    
   147   75   76 1    
   148   75   77 1    
   149   75  196 1    
   150   76  197 1    
   151   76  198 1    
   152   76  199 1    
   153   77   78 2    
   154   77   79 am   BACKBONE|DICT|INTERRES
   155   79   80 1    
   156   79  200 1    
   157   80   81 1    
   158   80   82 1    
   159   80  201 1    
   160   81  202 1    
   161   81  203 1    
   162   81  204 1    
   163   82   83 2    
   164   82   84 am   BACKBONE|DICT|INTERRES
   165   84   85 1    
   166   84  205 1    
   167   85   86 1    
   168   85   87 1    
   169   85  206 1    
   170   86  207 1    
   171   86  208 1    
   172   86  209 1    
   173   87   88 2    
   174   87   89 am   BACKBONE|DICT|INTERRES
   175   89   90 1    
   176   89  210 1    
   177   90   91 1    
   178   90   92 1    
   179   90  211 1    
   180   91  212 1    
   181   91  213 1    
   182   91  214 1    
   183   92   93 2    
   184   92   94 am   BACKBONE|DICT|INTERRES
   185   94   95 1    
   186   94  215 1    
   187   95   96 1    
   188   95   97 1    
   189   95  216 1    
   190   96  217 1    
   191   96  218 1    
   192   96  219 1    
   193   97   98 2    
   194   97   99 am   BACKBONE|DICT|INTERRES
   195   99  100 1    
   196   99  220 1    
   197  100  101 1    
   198  100  102 1    
   199  100  221 1    
   200  101  222 1    
   201  101  223 1    
   202  101  224 1    
   203  102  103 2    
   204  102  104 am   BACKBONE|DICT|INTERRES
   205  104  105 1    
   206  104  225 1    
   207  105  106 1    
   208  105  107 1    
   209  105  226 1    
   210  106  227 1    
   211  106  228 1    
   212  106  229 1    
   213  107  108 2    
   214  107  109 am   BACKBONE|DICT|INTERRES
   215  109  110 1    
   216  109  230 1    
   217  110  111 1    
   218  110  112 1    
   219  110  231 1    
   220  111  232 1    
   221  111  233 1    
   222  111  234 1    
   223  112  113 2    
   224  112  114 am   BACKBONE|DICT|INTERRES
   225  114  115 1    
   226  114  235 1    
   227  115  116 1    
   228  115  117 1    
   229  115  236 1    
   230  116  237 1    
   231  116  238 1    
   232  116  239 1    
   233  117  118 2    
   234  117  119 am   BACKBONE|DICT|INTERRES
   235  119  120 1    
   236  119  240 1    
   237  120  121 1    
   238  120  124 1    
   239  120  241 1    
   240  121  122 am   BACKBONE|DICT|INTERRES
   241  121  123 2    
   242  122  242 1    
   243  122  243 1    
   244  124  125 1    
   245  124  244 1    
   246  124  245 1    
   247  125  126 1    
   248  126  246 1    
   249  126  247 1    
@<TRIPOS>SUBSTRUCTURE
     1 UNK         1 GROUP             0       ****    0 ROOT    
