@<TRIPOS>MOLECULE
3R540
247   249    1
SMALL
USER_CHARGES


@<TRIPOS>ATOM
      1 CA          8.1401  -13.1696  -49.4079 C.3       0 UNK        -0.1800 
      2 C           6.9595  -12.8093  -48.5172 C.2       0 UNK         0.5000 
      3 O           6.9040  -11.6930  -48.0015 O.2       0 UNK        -0.5000 
      4 N           6.0251  -13.7538  -48.3359 N.am      1 UNK        -0.5000 
      5 CA          4.7946  -13.6268  -47.5376 C.3       1 UNK         0.1400 
      6 C6          3.7833  -12.5866  -48.0995 C.3       23 UNK        -0.0398 
      7 S7          3.3823  -12.8299  -49.8685 S.3       23 UNK        -0.2404 
      8 C8          1.8510  -13.8172  -49.8231 C.3       23 UNK        -0.0205 
      9 C9          2.0710  -15.2040  -50.4101 C.ar      23 UNK        -0.0193 
     10 C10         1.7955  -15.4460  -51.7590 C.ar      23 UNK        -0.1150 
     11 C11         2.0164  -16.7077  -52.3201 C.ar      23 UNK        -0.0193 
     12 C12         2.5053  -17.7392  -51.5087 C.ar      23 UNK        -0.1150 
     13 C13         2.7751  -17.5135  -50.1565 C.ar      23 UNK        -0.0193 
     14 C14         2.5607  -16.2432  -49.6155 C.ar      23 UNK        -0.1150 
     15 C15         3.3390  -18.6236  -49.2833 C.3       23 UNK        -0.0205 
     16 S16         2.1076  -19.2416  -48.0963 S.3       23 UNK        -0.2404 
     17 C17         1.0933  -20.3580  -49.1298 C.3       23 UNK        -0.0398 
     18 CA          0.4469  -21.4948  -48.2983 C.3       11 UNK         0.1400 
     19 N          -0.2678  -20.9851  -47.1251 N.am      11 UNK        -0.5000 
     20 C          -0.7344  -21.7292  -46.1152 C.2       10 UNK         0.5000 
     21 O          -0.6053  -22.9510  -46.0464 O.2       10 UNK        -0.5000 
     22 CA         -1.5118  -20.9758  -45.0207 C.3       10 UNK         0.1400 
     23 CB         -0.5542  -20.5003  -43.9184 C.3       10 UNK        -0.1800 
     24 N          -2.2673  -19.8348  -45.5492 N.am      10 UNK        -0.5000 
     25 C          -3.3022  -19.9495  -46.3962 C.2       9 UNK         0.5000 
     26 O          -3.7341  -21.0293  -46.7976 O.2       9 UNK        -0.5000 
     27 CA         -3.9130  -18.6453  -46.9360 C.3       9 UNK         0.1400 
     28 CB         -4.6943  -17.9034  -45.8414 C.3       9 UNK        -0.1800 
     29 N          -2.9008  -17.7557  -47.5039 N.am      9 UNK        -0.5000 
     30 C          -2.1565  -18.0160  -48.5851 C.2       8 UNK         0.5000 
     31 O          -2.2671  -19.0418  -49.2555 O.2       8 UNK        -0.5000 
     32 CA         -1.0718  -16.9931  -48.9708 C.3       8 UNK         0.1400 
     33 CB         -1.6572  -15.8098  -49.7631 C.3       8 UNK        -0.1800 
     34 N          -0.2657  -16.5635  -47.8235 N.am      8 UNK        -0.5000 
     35 C          -0.6332  -15.7984  -46.7887 C.2       7 UNK         0.5000 
     36 O          -1.7246  -15.2316  -46.6979 O.2       7 UNK        -0.5000 
     37 CA          0.3927  -15.6985  -45.6488 C.3       7 UNK         0.1400 
     38 CB          1.4195  -14.5970  -45.9344 C.3       7 UNK        -0.1800 
     39 N          -0.2355  -15.4663  -44.3480 N.am      7 UNK        -0.5000 
     40 C          -1.0363  -16.3508  -43.7334 C.2       6 UNK         0.5000 
     41 O          -1.3334  -17.4410  -44.2245 O.2       6 UNK        -0.5000 
     42 CA         -1.5914  -15.9874  -42.3427 C.3       6 UNK         0.1400 
     43 CB         -0.9922  -16.9020  -41.2628 C.3       6 UNK        -0.1800 
     44 N          -1.3353  -14.5952  -41.9728 N.am      6 UNK        -0.5000 
     45 C          -2.1815  -13.5833  -42.2092 C.2       5 UNK         0.5000 
     46 O          -3.2898  -13.7267  -42.7266 O.2       5 UNK        -0.5000 
     47 CA         -1.7176  -12.1670  -41.8102 C.3       5 UNK         0.1400 
     48 CB         -2.2933  -11.7798  -40.4394 C.3       5 UNK        -0.1800 
     49 N          -0.2625  -11.9985  -41.7778 N.am      5 UNK        -0.5000 
     50 C           0.5498  -12.1190  -42.8359 C.2       4 UNK         0.5000 
     51 O           0.1506  -12.4012  -43.9647 O.2       4 UNK        -0.5000 
     52 CA          2.0602  -11.9228  -42.6040 C.3       4 UNK         0.1400 
     53 CB          2.4129  -11.2716  -41.2478 C.3       4 UNK        -0.1800 
     54 N           2.8067  -13.1712  -42.7766 N.am      4 UNK        -0.5000 
     55 C           2.6438  -14.3237  -42.1054 C.2       3 UNK         0.5000 
     56 O           1.7457  -14.5081  -41.2817 O.2       3 UNK        -0.5000 
     57 CA          3.6464  -15.4676  -42.3895 C.3       3 UNK         0.1400 
     58 CB          2.9394  -16.7274  -42.9138 C.3       3 UNK        -0.1800 
     59 N           4.7148  -15.1062  -43.3257 N.am      3 UNK        -0.5000 
     60 C           5.7645  -14.3256  -43.0354 C.2       2 UNK         0.5000 
     61 O           5.9864  -13.8755  -41.9110 O.2       2 UNK        -0.5000 
     62 CA          6.7158  -13.9629  -44.1947 C.3       2 UNK         0.1400 
     63 CB          7.9999  -14.8029  -44.1165 C.3       2 UNK        -0.1800 
     64 N           6.1465  -14.0991  -45.5415 N.am      2 UNK        -0.5000 
     65 C           5.0983  -13.4188  -46.0322 C.2       1 UNK         0.5000 
     66 O           4.3980  -12.6704  -45.3475 O.2       1 UNK        -0.5000 
     67 C          -0.4799  -22.3708  -49.1667 C.2       11 UNK         0.5000 
     68 O          -0.0784  -23.4502  -49.6009 O.2       11 UNK        -0.5000 
     69 N          -1.7248  -21.9115  -49.3520 N.am      12 UNK        -0.5000 
     70 CA         -2.7902  -22.6505  -50.0213 C.3       12 UNK         0.1400 
     71 CB         -3.9339  -21.6885  -50.3496 C.3       12 UNK        -0.1800 
     72 C          -3.3013  -23.8378  -49.1899 C.2       12 UNK         0.5000 
     73 O          -3.6256  -24.8774  -49.7611 O.2       12 UNK        -0.5000 
     74 N          -3.3569  -23.6855  -47.8591 N.am      13 UNK        -0.5000 
     75 CA         -3.7433  -24.7469  -46.9268 C.3       13 UNK         0.1400 
     76 CB         -3.9427  -24.1707  -45.5187 C.3       13 UNK        -0.1800 
     77 C          -2.7374  -25.9104  -46.9123 C.2       13 UNK         0.5000 
     78 O          -3.1558  -27.0669  -46.8760 O.2       13 UNK        -0.5000 
     79 N          -1.4391  -25.5949  -47.0220 N.am      14 UNK        -0.5000 
     80 CA         -0.3575  -26.5674  -47.2047 C.3       14 UNK         0.1400 
     81 CB          0.9954  -25.8524  -47.0737 C.3       14 UNK        -0.1800 
     82 C          -0.4477  -27.3299  -48.5441 C.2       14 UNK         0.5000 
     83 O          -0.0263  -28.4846  -48.6140 O.2       14 UNK        -0.5000 
     84 N          -1.0306  -26.6884  -49.5662 N.am      15 UNK        -0.5000 
     85 CA         -1.3540  -27.2789  -50.8672 C.3       15 UNK         0.1400 
     86 CB         -1.2833  -26.1776  -51.9390 C.3       15 UNK        -0.1800 
     87 C          -2.7295  -27.9855  -50.8855 C.2       15 UNK         0.5000 
     88 O          -3.1074  -28.5262  -51.9256 O.2       15 UNK        -0.5000 
     89 N          -3.4483  -27.9720  -49.7512 N.am      16 UNK        -0.5000 
     90 CA         -4.7770  -28.5461  -49.5148 C.3       16 UNK         0.1400 
     91 CB         -4.7423  -30.0838  -49.6417 C.3       16 UNK        -0.1800 
     92 C          -5.8947  -27.8900  -50.3547 C.2       16 UNK         0.5000 
     93 O          -6.8329  -28.5735  -50.7697 O.2       16 UNK        -0.5000 
     94 N          -5.7894  -26.5743  -50.5792 N.am      17 UNK        -0.5000 
     95 CA         -6.7315  -25.7807  -51.3679 C.3       17 UNK         0.1400 
     96 CB         -6.2803  -25.7692  -52.8414 C.3       17 UNK        -0.1800 
     97 C          -6.8672  -24.3694  -50.7710 C.2       17 UNK         0.5000 
     98 O          -6.8210  -23.3878  -51.5110 O.2       17 UNK        -0.5000 
     99 N          -7.0159  -24.2954  -49.4381 N.am      18 UNK        -0.5000 
    100 CA        -6.9525  -23.0939  -48.5883 C.3       18 UNK         0.1400 
    101 CB        -7.4229  -23.4609  -47.1723 C.3       18 UNK        -0.1800 
    102 C         -7.7129  -21.8475  -49.0837 C.2       18 UNK         0.5000 
    103 O         -7.2337  -20.7298  -48.8914 O.2       18 UNK        -0.5000 
    104 N         -8.8711  -22.0596  -49.7197 N.am      19 UNK        -0.5000 
    105 CA        -9.7266  -21.0071  -50.2680 C.3       19 UNK         0.1400 
    106 CB       -11.1017  -21.6129  -50.5904 C.3       19 UNK        -0.1800 
    107 C         -9.1493  -20.2966  -51.5108 C.2       19 UNK         0.5000 
    108 O         -9.6037  -19.1961  -51.8268 O.2       19 UNK        -0.5000 
    109 N         -8.1935  -20.9265  -52.2107 N.am      20 UNK        -0.5000 
    110 CA        -7.6198  -20.4129  -53.4567 C.3       20 UNK         0.1400 
    111 CB        -6.8945  -21.5512  -54.1920 C.3       20 UNK        -0.1800 
    112 C         -6.6683  -19.2196  -53.2511 C.2       20 UNK         0.5000 
    113 O         -6.6556  -18.3209  -54.0930 O.2       20 UNK        -0.5000 
    114 N         -5.9091  -19.2475  -52.1436 N.am      21 UNK        -0.5000 
    115 CA        -4.7948  -18.3642  -51.7705 C.3       21 UNK         0.1400 
    116 CB        -5.2301  -16.8889  -51.6859 C.3       21 UNK        -0.1800 
    117 C         -3.5613  -18.5498  -52.6846 C.2       21 UNK         0.5000 
    118 O         -3.6788  -18.4873  -53.9091 O.2       21 UNK        -0.5000 
    119 N         -2.3974  -18.7702  -52.0575 N.am      22 UNK        -0.5000 
    120 CA        -1.1262  -19.2097  -52.6596 C.3       22 UNK         0.1400 
    121 C         -1.1313  -20.7307  -53.0019 C.2       22 UNK         0.5000 
    122 N          0.0063  -21.4012  -52.8800 N.am      22 UNK        -0.7600 
    123 O         -2.1429  -21.3149  -53.3810 O.2       22 UNK        -0.5000 
    124 C124       -0.6658  -18.3222  -53.8500 C.3       23 UNK        -0.0398 
    125 S125        1.0982  -18.5212  -54.2781 S.3       23 UNK        -0.2404 
    126 C126        1.8055  -16.9050  -53.8189 C.3       23 UNK        -0.0205 
    127 H127        9.0710  -13.0937  -48.8459 H         1 UNK         0.0600 
    128 H128        8.1941  -12.4843  -50.2538 H         1 UNK         0.0600 
    129 H129        8.0600  -14.1846  -49.7979 H         1 UNK         0.0600 
    130 H130        6.1386  -14.6402  -48.8074 H         1 UNK         0.3000 
    131 H131        4.3142  -14.6028  -47.5951 H         1 UNK         0.0600 
    132 H132        4.1882  -11.5792  -47.9927 H         1 UNK         0.0800 
    133 H133        2.8594  -12.5883  -47.5206 H         1 UNK         0.0800 
    134 H134        1.4577  -13.8954  -48.8109 H         1 UNK         0.0800 
    135 H135        1.0850  -13.2912  -50.3948 H         1 UNK         0.0800 
    136 H136        1.4351  -14.6382  -52.3805 H         1 UNK         0.1150 
    137 H137        2.7030  -18.7122  -51.9350 H         1 UNK         0.1150 
    138 H138        2.7868  -16.0670  -48.5757 H         1 UNK         0.1150 
    139 H139        3.7225  -19.4468  -49.8879 H         1 UNK         0.0800 
    140 H140        4.1938  -18.2357  -48.7274 H         1 UNK         0.0800 
    141 H141        1.7187  -20.7853  -49.9153 H         1 UNK         0.0800 
    142 H142        0.3343  -19.7619  -49.6347 H         1 UNK         0.0800 
    143 H143        1.2503  -22.1385  -47.9330 H         1 UNK         0.0600 
    144 H144       -0.4163  -19.9889  -47.0868 H         1 UNK         0.3000 
    145 H145       -2.2233  -21.6713  -44.5732 H         1 UNK         0.0600 
    146 H146       -1.0988  -20.0257  -43.1022 H         1 UNK         0.0600 
    147 H147        0.0008  -21.3380  -43.4943 H         1 UNK         0.0600 
    148 H148        0.1736  -19.7822  -44.2985 H         1 UNK         0.0600 
    149 H149       -1.9780  -18.9134  -45.2281 H         1 UNK         0.3000 
    150 H150       -4.6121  -18.9115  -47.7320 H         1 UNK         0.0600 
    151 H151       -5.4567  -18.5475  -45.4013 H         1 UNK         0.0600 
    152 H152       -5.2029  -17.0287  -46.2472 H         1 UNK         0.0600 
    153 H153       -4.0421  -17.5655  -45.0351 H         1 UNK         0.0600 
    154 H154       -2.7258  -16.8822  -47.0159 H         1 UNK         0.3000 
    155 H155       -0.3749  -17.5020  -49.6376 H         1 UNK         0.0600 
    156 H156       -2.4613  -15.3083  -49.2241 H         1 UNK         0.0600 
    157 H157       -2.0652  -16.1484  -50.7154 H         1 UNK         0.0600 
    158 H158       -0.8921  -15.0680  -49.9884 H         1 UNK         0.0600 
    159 H159        0.6475  -16.9948  -47.7828 H         1 UNK         0.3000 
    160 H160        0.9204  -16.6525  -45.5875 H         1 UNK         0.0600 
    161 H161        0.9395  -13.6423  -46.1511 H         1 UNK         0.0600 
    162 H162        2.0330  -14.8606  -46.7921 H         1 UNK         0.0600 
    163 H163        2.0960  -14.4503  -45.0958 H         1 UNK         0.0600 
    164 H164       -0.1166  -14.5451  -43.9456 H         1 UNK         0.3000 
    165 H165       -2.6672  -16.1723  -42.3722 H         1 UNK         0.0600 
    166 H166       -1.4557  -16.7184  -40.2934 H         1 UNK         0.0600 
    167 H167       -1.1514  -17.9540  -41.5031 H         1 UNK         0.0600 
    168 H168        0.0806  -16.7478  -41.1522 H         1 UNK         0.0600 
    169 H169       -0.4297  -14.3953  -41.5624 H         1 UNK         0.3000 
    170 H170       -2.1145  -11.4743  -42.5553 H         1 UNK         0.0600 
    171 H171       -3.3809  -11.8645  -40.4336 H         1 UNK         0.0600 
    172 H172       -1.9097  -12.4232  -39.6465 H         1 UNK         0.0600 
    173 H173       -2.0483  -10.7485  -40.1846 H         1 UNK         0.0600 
    174 H174        0.1491  -11.7960  -40.8784 H         1 UNK         0.3000 
    175 H175        2.4028  -11.2497  -43.3914 H         1 UNK         0.0600 
    176 H176        2.1453  -11.9039  -40.4006 H         1 UNK         0.0600 
    177 H177        3.4830  -11.0746  -41.1819 H         1 UNK         0.0600 
    178 H178        1.9044  -10.3143  -41.1259 H         1 UNK         0.0600 
    179 H179        3.5259  -13.1361  -43.4904 H         1 UNK         0.3000 
    180 H180        4.1034  -15.7212  -41.4307 H         1 UNK         0.0600 
    181 H181        2.5152  -16.5687  -43.9025 H         1 UNK         0.0600 
    182 H182        2.1308  -17.0359  -42.2518 H         1 UNK         0.0600 
    183 H183        3.6335  -17.5652  -42.9821 H         1 UNK         0.0600 
    184 H184        4.6204  -15.4387  -44.2734 H         1 UNK         0.3000 
    185 H185        6.9883  -12.9137  -44.0638 H         1 UNK         0.0600 
    186 H186        8.4759  -14.7026  -43.1400 H         1 UNK         0.0600 
    187 H187        7.7966  -15.8627  -44.2751 H         1 UNK         0.0600 
    188 H188        8.7272  -14.4838  -44.8634 H         1 UNK         0.0600 
    189 H189        6.6606  -14.6895  -46.1793 H         1 UNK         0.3000 
    190 H190       -1.9736  -20.9971  -48.9905 H         1 UNK         0.3000 
    191 H191       -2.3983  -23.0454  -50.9610 H         1 UNK         0.0600 
    192 H192       -3.5922  -20.9175  -51.0308 H         1 UNK         0.0600 
    193 H193       -4.7473  -22.2058  -50.8498 H         1 UNK         0.0600 
    194 H194       -4.3352  -21.2018  -49.4605 H         1 UNK         0.0600 
    195 H195       -3.1690  -22.7699  -47.4617 H         1 UNK         0.3000 
    196 H196       -4.6995  -25.1492  -47.2657 H         1 UNK         0.0600 
    197 H197       -4.3381  -24.9297  -44.8427 H         1 UNK         0.0600 
    198 H198       -4.6493  -23.3407  -45.5248 H         1 UNK         0.0600 
    199 H199       -3.0056  -23.8143  -45.0936 H         1 UNK         0.0600 
    200 H200       -1.1701  -24.6166  -46.9742 H         1 UNK         0.3000 
    201 H201       -0.4320  -27.3038  -46.4019 H         1 UNK         0.0600 
    202 H202        1.0912  -25.3652  -46.1031 H         1 UNK         0.0600 
    203 H203        1.1255  -25.0914  -47.8432 H         1 UNK         0.0600 
    204 H204        1.8214  -26.5586  -47.1668 H         1 UNK         0.0600 
    205 H205       -1.3380  -25.7360  -49.4222 H         1 UNK         0.3000 
    206 H206       -0.6024  -28.0318  -51.1127 H         1 UNK         0.0600 
    207 H207       -0.3184  -25.6704  -51.9217 H         1 UNK         0.0600 
    208 H208       -1.4119  -26.5958  -52.9380 H         1 UNK         0.0600 
    209 H209       -2.0587  -25.4248  -51.8004 H         1 UNK         0.0600 
    210 H210       -3.0506  -27.4937  -48.9526 H         1 UNK         0.3000 
    211 H211       -5.0193  -28.3157  -48.4768 H         1 UNK         0.0600 
    212 H212       -4.5734  -30.4032  -50.6703 H         1 UNK         0.0600 
    213 H213       -5.6843  -30.5248  -49.3140 H         1 UNK         0.0600 
    214 H214       -3.9536  -30.5120  -49.0230 H         1 UNK         0.0600 
    215 H215       -4.9799  -26.0683  -50.2218 H         1 UNK         0.3000 
    216 H216       -7.7266  -26.2269  -51.3167 H         1 UNK         0.0600 
    217 H217       -6.9781  -25.2075  -53.4637 H         1 UNK         0.0600 
    218 H218       -6.2269  -26.7799  -53.2461 H         1 UNK         0.0600 
    219 H219       -5.2960  -25.3124  -52.9520 H         1 UNK         0.0600 
    220 H220       -7.0706  -25.1721  -48.9409 H         1 UNK         0.3000 
    221 H221       -5.9046  -22.8077  -48.5208 H         1 UNK         0.0600 
    222 H222       -8.4698  -23.7666  -47.1652 H         1 UNK         0.0600 
    223 H223       -6.8360  -24.2760  -46.7513 H         1 UNK         0.0600 
    224 H224       -7.3237  -22.6110  -46.4955 H         1 UNK         0.0600 
    225 H225       -9.1765  -23.0120  -49.8548 H         1 UNK         0.3000 
    226 H226       -9.8635  -20.2467  -49.4962 H         1 UNK         0.0600 
    227 H227      -11.5611  -22.0458  -49.7015 H         1 UNK         0.0600 
    228 H228      -11.7860  -20.8528  -50.9697 H         1 UNK         0.0600 
    229 H229      -11.0282  -22.3952  -51.3470 H         1 UNK         0.0600 
    230 H230       -7.8445  -21.8253  -51.8864 H         1 UNK         0.3000 
    231 H231       -8.4414  -20.0766  -54.0932 H         1 UNK         0.0600 
    232 H232       -7.5593  -22.3969  -54.3686 H         1 UNK         0.0600 
    233 H233       -6.0347  -21.9129  -53.6265 H         1 UNK         0.0600 
    234 H234       -6.5276  -21.2156  -55.1627 H         1 UNK         0.0600 
    235 H235       -6.0501  -20.0364  -51.5284 H         1 UNK         0.3000 
    236 H236       -4.5185  -18.6697  -50.7605 H         1 UNK         0.0600 
    237 H237       -4.4405  -16.2766  -51.2506 H         1 UNK         0.0600 
    238 H238       -5.4569  -16.4715  -52.6671 H         1 UNK         0.0600 
    239 H239       -6.1138  -16.7736  -51.0581 H         1 UNK         0.0600 
    240 H240       -2.4178  -18.8476  -51.0436 H         1 UNK         0.3000 
    241 H241       -0.3984  -19.0729  -51.8593 H         1 UNK         0.0600 
    242 H242        0.0152  -22.3836  -53.1029 H         1 UNK         0.3800 
    243 H243        0.8701  -20.9378  -52.6496 H         1 UNK         0.3800 
    244 H244       -0.8550  -17.2731  -53.6193 H         1 UNK         0.0800 
    245 H245       -1.2496  -18.5419  -54.7447 H         1 UNK         0.0800 
    246 H246        1.1785  -16.1132  -54.2317 H         1 UNK         0.0800 
    247 H247        2.7758  -16.8081  -54.3073 H         1 UNK         0.0800 
@<TRIPOS>BOND
     1    1    2 1    
     2    1  127 1    
     3    1  128 1    
     4    1  129 1    
     5    2    3 2    
     6    2    4 am   BACKBONE|DICT|INTERRES
     7    4    5 1    
     8    4  130 1    
     9    5    6 1    
    10    5   65 1    
    11    5  131 1    
    12    6    7 1    
    13    6  132 1    
    14    6  133 1    
    15    7    8 1    
    16    8    9 1    
    17    8  134 1    
    18    8  135 1    
    19    9   10 ar   
    20    9   14 ar   
    21   10   11 ar   
    22   10  136 1    
    23   11   12 ar   
    24   11  126 1    
    25   12   13 ar   
    26   12  137 1    
    27   13   14 ar   
    28   13   15 1    
    29   14  138 1    
    30   15   16 1    
    31   15  139 1    
    32   15  140 1    
    33   16   17 1    
    34   17   18 1    
    35   17  141 1    
    36   17  142 1    
    37   18   19 1    
    38   18   67 1    
    39   18  143 1    
    40   19   20 am   BACKBONE|DICT|INTERRES
    41   19  144 1    
    42   20   21 2    
    43   20   22 1    
    44   22   23 1    
    45   22   24 1    
    46   22  145 1    
    47   23  146 1    
    48   23  147 1    
    49   23  148 1    
    50   24   25 am   BACKBONE|DICT|INTERRES
    51   24  149 1    
    52   25   26 2    
    53   25   27 1    
    54   27   28 1    
    55   27   29 1    
    56   27  150 1    
    57   28  151 1    
    58   28  152 1    
    59   28  153 1    
    60   29   30 am   BACKBONE|DICT|INTERRES
    61   29  154 1    
    62   30   31 2    
    63   30   32 1    
    64   32   33 1    
    65   32   34 1    
    66   32  155 1    
    67   33  156 1    
    68   33  157 1    
    69   33  158 1    
    70   34   35 am   BACKBONE|DICT|INTERRES
    71   34  159 1    
    72   35   36 2    
    73   35   37 1    
    74   37   38 1    
    75   37   39 1    
    76   37  160 1    
    77   38  161 1    
    78   38  162 1    
    79   38  163 1    
    80   39   40 am   BACKBONE|DICT|INTERRES
    81   39  164 1    
    82   40   41 2    
    83   40   42 1    
    84   42   43 1    
    85   42   44 1    
    86   42  165 1    
    87   43  166 1    
    88   43  167 1    
    89   43  168 1    
    90   44   45 am   BACKBONE|DICT|INTERRES
    91   44  169 1    
    92   45   46 2    
    93   45   47 1    
    94   47   48 1    
    95   47   49 1    
    96   47  170 1    
    97   48  171 1    
    98   48  172 1    
    99   48  173 1    
   100   49   50 am   BACKBONE|DICT|INTERRES
   101   49  174 1    
   102   50   51 2    
   103   50   52 1    
   104   52   53 1    
   105   52   54 1    
   106   52  175 1    
   107   53  176 1    
   108   53  177 1    
   109   53  178 1    
   110   54   55 am   BACKBONE|DICT|INTERRES
   111   54  179 1    
   112   55   56 2    
   113   55   57 1    
   114   57   58 1    
   115   57   59 1    
   116   57  180 1    
   117   58  181 1    
   118   58  182 1    
   119   58  183 1    
   120   59   60 am   BACKBONE|DICT|INTERRES
   121   59  184 1    
   122   60   61 2    
   123   60   62 1    
   124   62   63 1    
   125   62   64 1    
   126   62  185 1    
   127   63  186 1    
   128   63  187 1    
   129   63  188 1    
   130   64   65 am   BACKBONE|DICT|INTERRES
   131   64  189 1    
   132   65   66 2    
   133   67   68 2    
   134   67   69 am   BACKBONE|DICT|INTERRES
   135   69   70 1    
   136   69  190 1    
   137   70   71 1    
   138   70   72 1    
   139   70  191 1    
   140   71  192 1    
   141   71  193 1    
   142   71  194 1    
   143   72   73 2    
   144   72   74 am   BACKBONE|DICT|INTERRES
   145   74   75 1    
   146   74  195 1    
   147   75   76 1    
   148   75   77 1    
   149   75  196 1    
   150   76  197 1    
   151   76  198 1    
   152   76  199 1    
   153   77   78 2    
   154   77   79 am   BACKBONE|DICT|INTERRES
   155   79   80 1    
   156   79  200 1    
   157   80   81 1    
   158   80   82 1    
   159   80  201 1    
   160   81  202 1    
   161   81  203 1    
   162   81  204 1    
   163   82   83 2    
   164   82   84 am   BACKBONE|DICT|INTERRES
   165   84   85 1    
   166   84  205 1    
   167   85   86 1    
   168   85   87 1    
   169   85  206 1    
   170   86  207 1    
   171   86  208 1    
   172   86  209 1    
   173   87   88 2    
   174   87   89 am   BACKBONE|DICT|INTERRES
   175   89   90 1    
   176   89  210 1    
   177   90   91 1    
   178   90   92 1    
   179   90  211 1    
   180   91  212 1    
   181   91  213 1    
   182   91  214 1    
   183   92   93 2    
   184   92   94 am   BACKBONE|DICT|INTERRES
   185   94   95 1    
   186   94  215 1    
   187   95   96 1    
   188   95   97 1    
   189   95  216 1    
   190   96  217 1    
   191   96  218 1    
   192   96  219 1    
   193   97   98 2    
   194   97   99 am   BACKBONE|DICT|INTERRES
   195   99  100 1    
   196   99  220 1    
   197  100  101 1    
   198  100  102 1    
   199  100  221 1    
   200  101  222 1    
   201  101  223 1    
   202  101  224 1    
   203  102  103 2    
   204  102  104 am   BACKBONE|DICT|INTERRES
   205  104  105 1    
   206  104  225 1    
   207  105  106 1    
   208  105  107 1    
   209  105  226 1    
   210  106  227 1    
   211  106  228 1    
   212  106  229 1    
   213  107  108 2    
   214  107  109 am   BACKBONE|DICT|INTERRES
   215  109  110 1    
   216  109  230 1    
   217  110  111 1    
   218  110  112 1    
   219  110  231 1    
   220  111  232 1    
   221  111  233 1    
   222  111  234 1    
   223  112  113 2    
   224  112  114 am   BACKBONE|DICT|INTERRES
   225  114  115 1    
   226  114  235 1    
   227  115  116 1    
   228  115  117 1    
   229  115  236 1    
   230  116  237 1    
   231  116  238 1    
   232  116  239 1    
   233  117  118 2    
   234  117  119 am   BACKBONE|DICT|INTERRES
   235  119  120 1    
   236  119  240 1    
   237  120  121 1    
   238  120  124 1    
   239  120  241 1    
   240  121  122 am   BACKBONE|DICT|INTERRES
   241  121  123 2    
   242  122  242 1    
   243  122  243 1    
   244  124  125 1    
   245  124  244 1    
   246  124  245 1    
   247  125  126 1    
   248  126  246 1    
   249  126  247 1    
@<TRIPOS>SUBSTRUCTURE
     1 UNK         1 GROUP             0       ****    0 ROOT    
