@<TRIPOS>MOLECULE
3R540
247   249    1
SMALL
USER_CHARGES


@<TRIPOS>ATOM
      1 CA         -4.1572  -16.6619  -43.3905 C.3       0 UNK        -0.1800 
      2 C          -3.9071  -15.8656  -44.6624 C.2       0 UNK         0.5000 
      3 O          -4.8559  -15.4039  -45.2950 O.2       0 UNK        -0.5000 
      4 N          -2.6333  -15.7157  -45.0397 N.am      1 UNK        -0.5000 
      5 CA         -2.1821  -14.9066  -46.1756 C.3       1 UNK         0.1400 
      6 C6         -0.7655  -15.3348  -46.6378 C.3       23 UNK        -0.0398 
      7 S7         -0.7100  -17.0315  -47.2982 S.3       23 UNK        -0.2404 
      8 C8         -0.3964  -16.7263  -49.0654 C.3       23 UNK        -0.0205 
      9 C9          0.0882  -17.9921  -49.7500 C.ar      23 UNK        -0.0193 
     10 C10        -0.8173  -18.8542  -50.3750 C.ar      23 UNK        -0.1150 
     11 C11        -0.3724  -20.0476  -50.9517 C.ar      23 UNK        -0.0193 
     12 C12         0.9889  -20.3621  -50.9231 C.ar      23 UNK        -0.1150 
     13 C13         1.9034  -19.5053  -50.3040 C.ar      23 UNK        -0.0193 
     14 C14         1.4475  -18.3177  -49.7264 C.ar      23 UNK        -0.1150 
     15 C15         3.3772  -19.8799  -50.2268 C.3       23 UNK        -0.0205 
     16 S16         3.8768  -20.3515  -48.5372 S.3       23 UNK        -0.2404 
     17 C17         2.7263  -21.7233  -48.1823 C.3       23 UNK        -0.0398 
     18 CA          3.3686  -22.8460  -47.3340 C.3       11 UNK         0.1400 
     19 N           3.6939  -22.3823  -45.9805 N.am      11 UNK        -0.5000 
     20 C           4.5774  -22.9761  -45.1681 C.2       10 UNK         0.5000 
     21 O           5.2404  -23.9648  -45.4842 O.2       10 UNK        -0.5000 
     22 CA          4.7266  -22.3829  -43.7547 C.3       10 UNK         0.1400 
     23 CB          5.6424  -21.1496  -43.7731 C.3       10 UNK        -0.1800 
     24 N           3.4410  -22.0358  -43.1450 N.am      10 UNK        -0.5000 
     25 C           2.4982  -22.9268  -42.8040 C.2       9 UNK         0.5000 
     26 O           2.6230  -24.1435  -42.9445 O.2       9 UNK        -0.5000 
     27 CA          1.1794  -22.3696  -42.2390 C.3       9 UNK         0.1400 
     28 CB          1.3155  -22.0678  -40.7391 C.3       9 UNK        -0.1800 
     29 N           0.7210  -21.1706  -42.9385 N.am      9 UNK        -0.5000 
     30 C           0.3544  -21.1275  -44.2263 C.2       8 UNK         0.5000 
     31 O           0.3305  -22.1097  -44.9651 O.2       8 UNK        -0.5000 
     32 CA          0.0058  -19.7453  -44.8022 C.3       8 UNK         0.1400 
     33 CB         -1.4258  -19.3424  -44.4198 C.3       8 UNK        -0.1800 
     34 N           0.9570  -18.7134  -44.3894 N.am      8 UNK        -0.5000 
     35 C           2.2603  -18.7334  -44.7070 C.2       7 UNK         0.5000 
     36 O           2.7884  -19.6156  -45.3833 O.2       7 UNK        -0.5000 
     37 CA          3.1300  -17.6131  -44.1157 C.3       7 UNK         0.1400 
     38 CB          2.9968  -16.3249  -44.9373 C.3       7 UNK        -0.1800 
     39 N           2.7942  -17.3436  -42.7183 N.am      7 UNK        -0.5000 
     40 C           3.0324  -18.1984  -41.7127 C.2       6 UNK         0.5000 
     41 O           3.6014  -19.2810  -41.8538 O.2       6 UNK        -0.5000 
     42 CA          2.4957  -17.7984  -40.3263 C.3       6 UNK         0.1400 
     43 CB          3.4476  -16.8083  -39.6388 C.3       6 UNK        -0.1800 
     44 N           1.1538  -17.2173  -40.3889 N.am      6 UNK        -0.5000 
     45 C           0.0631  -17.8622  -40.8271 C.2       5 UNK         0.5000 
     46 O           0.0653  -19.0390  -41.1820 O.2       5 UNK        -0.5000 
     47 CA         -1.2445  -17.0568  -40.9222 C.3       5 UNK         0.1400 
     48 CB         -2.1377  -17.3274  -39.7034 C.3       5 UNK        -0.1800 
     49 N          -1.0339  -15.6145  -41.0555 N.am      5 UNK        -0.5000 
     50 C          -0.4923  -15.0124  -42.1223 C.2       4 UNK         0.5000 
     51 O          -0.1412  -15.6220  -43.1373 O.2       4 UNK        -0.5000 
     52 CA         -0.3596  -13.4806  -42.0164 C.3       4 UNK         0.1400 
     53 CB          0.3745  -13.0383  -40.7307 C.3       4 UNK        -0.1800 
     54 N           0.2241  -12.8575  -43.2068 N.am      4 UNK        -0.5000 
     55 C           1.4976  -12.8639  -43.6275 C.2       3 UNK         0.5000 
     56 O           2.4107  -13.4350  -43.0299 O.2       3 UNK        -0.5000 
     57 CA          1.8050  -12.0904  -44.9347 C.3       3 UNK         0.1400 
     58 CB          2.9120  -12.7645  -45.7641 C.3       3 UNK        -0.1800 
     59 N           0.6256  -11.9297  -45.7887 N.am      3 UNK        -0.5000 
     60 C          -0.2764  -10.9389  -45.7311 C.2       2 UNK         0.5000 
     61 O          -0.1637   -9.9504  -45.0072 O.2       2 UNK        -0.5000 
     62 CA         -1.5544  -11.1296  -46.5811 C.3       2 UNK         0.1400 
     63 CB         -1.4073  -10.4344  -47.9426 C.3       2 UNK        -0.1800 
     64 N          -1.8877  -12.5455  -46.7952 N.am      2 UNK        -0.5000 
     65 C          -2.1896  -13.4046  -45.8092 C.2       1 UNK         0.5000 
     66 O          -2.3745  -13.0427  -44.6441 O.2       1 UNK        -0.5000 
     67 C           2.4505  -24.0900  -47.3360 C.2       11 UNK         0.5000 
     68 O           2.3863  -24.7757  -48.3570 O.2       11 UNK        -0.5000 
     69 N           1.7364  -24.3343  -46.2255 N.am      12 UNK        -0.5000 
     70 CA          0.6228  -25.2807  -46.0703 C.3       12 UNK         0.1400 
     71 CB          1.0959  -26.7409  -46.2254 C.3       12 UNK        -0.1800 
     72 C          -0.5603  -24.9099  -46.9932 C.2       12 UNK         0.5000 
     73 O          -1.1400  -25.7699  -47.6591 O.2       12 UNK        -0.5000 
     74 N          -0.8558  -23.6073  -47.0375 N.am      13 UNK        -0.5000 
     75 CA         -1.8373  -22.9773  -47.9099 C.3       13 UNK         0.1400 
     76 CB         -1.4335  -21.5075  -48.0780 C.3       13 UNK        -0.1800 
     77 C          -3.2534  -23.0301  -47.3240 C.2       13 UNK         0.5000 
     78 O          -3.4228  -23.0163  -46.1019 O.2       13 UNK        -0.5000 
     79 N          -4.2521  -22.9648  -48.2099 N.am      14 UNK        -0.5000 
     80 CA         -5.6601  -22.7378  -47.8833 C.3       14 UNK         0.1400 
     81 CB         -6.5253  -23.3617  -48.9938 C.3       14 UNK        -0.1800 
     82 C          -5.9414  -21.2307  -47.6814 C.2       14 UNK         0.5000 
     83 O          -6.8129  -20.6707  -48.3483 O.2       14 UNK        -0.5000 
     84 N          -5.1750  -20.5982  -46.7788 N.am      15 UNK        -0.5000 
     85 CA         -5.1196  -19.1548  -46.5155 C.3       15 UNK         0.1400 
     86 CB         -6.4506  -18.6596  -45.9052 C.3       15 UNK        -0.1800 
     87 C          -4.6594  -18.3660  -47.7636 C.2       15 UNK         0.5000 
     88 O          -3.8190  -18.8652  -48.5141 O.2       15 UNK        -0.5000 
     89 N          -5.2066  -17.1622  -47.9830 N.am      16 UNK        -0.5000 
     90 CA         -4.9233  -16.2732  -49.1167 C.3       16 UNK         0.1400 
     91 CB         -5.3830  -14.8477  -48.7533 C.3       16 UNK        -0.1800 
     92 C          -5.5416  -16.7556  -50.4519 C.2       16 UNK         0.5000 
     93 O          -6.1684  -15.9693  -51.1655 O.2       16 UNK        -0.5000 
     94 N          -5.3739  -18.0435  -50.7638 N.am      17 UNK        -0.5000 
     95 CA         -5.8213  -18.6816  -51.9972 C.3       17 UNK         0.1400 
     96 CB         -5.8137  -20.2019  -51.7875 C.3       17 UNK        -0.1800 
     97 C          -4.9401  -18.2909  -53.1981 C.2       17 UNK         0.5000 
     98 O          -3.7567  -17.9876  -53.0273 O.2       17 UNK        -0.5000 
     99 N          -5.5344  -18.3276  -54.3967 N.am      18 UNK        -0.5000 
    100 CA        -4.8377  -18.1489  -55.6703 C.3       18 UNK         0.1400 
    101 CB        -5.8723  -17.8429  -56.7644 C.3       18 UNK        -0.1800 
    102 C         -4.0368  -19.4106  -56.0338 C.2       18 UNK         0.5000 
    103 O         -4.4597  -20.5154  -55.6911 O.2       18 UNK        -0.5000 
    104 N         -2.9289  -19.2306  -56.7655 N.am      19 UNK        -0.5000 
    105 CA        -1.9651  -20.2763  -57.1363 C.3       19 UNK         0.1400 
    106 CB        -0.8288  -19.6386  -57.9500 C.3       19 UNK        -0.1800 
    107 C         -2.5537  -21.4838  -57.8947 C.2       19 UNK         0.5000 
    108 O         -2.0059  -22.5827  -57.8005 O.2       19 UNK        -0.5000 
    109 N         -3.6643  -21.2668  -58.6114 N.am      20 UNK        -0.5000 
    110 CA        -4.4103  -22.2917  -59.3427 C.3       20 UNK         0.1400 
    111 CB        -5.4204  -21.5952  -60.2681 C.3       20 UNK        -0.1800 
    112 C         -5.1299  -23.3158  -58.4389 C.2       20 UNK         0.5000 
    113 O         -5.4551  -24.4045  -58.9151 O.2       20 UNK        -0.5000 
    114 N         -5.3760  -22.9640  -57.1703 N.am      21 UNK        -0.5000 
    115 CA        -6.0734  -23.7932  -56.1890 C.3       21 UNK         0.1400 
    116 CB        -7.5982  -23.6489  -56.3684 C.3       21 UNK        -0.1800 
    117 C         -5.5878  -23.4201  -54.7794 C.2       21 UNK         0.5000 
    118 O         -6.3988  -23.1130  -53.9045 O.2       21 UNK        -0.5000 
    119 N         -4.2590  -23.4089  -54.6069 N.am      22 UNK        -0.5000 
    120 CA        -3.5669  -22.9021  -53.4086 C.3       22 UNK         0.1400 
    121 C         -3.8081  -23.7178  -52.1004 C.2       22 UNK         0.5000 
    122 N         -4.2499  -24.9669  -52.1720 N.am      22 UNK        -0.7600 
    123 O         -3.5992  -23.2095  -51.0025 O.2       22 UNK        -0.5000 
    124 C124       -2.0480  -22.6891  -53.6822 C.3       23 UNK        -0.0398 
    125 S125       -1.4590  -20.9976  -53.3257 S.3       23 UNK        -0.2404 
    126 C126       -1.3655  -21.0491  -51.5157 C.3       23 UNK        -0.0205 
    127 H127       -3.8371  -16.0910  -42.5189 H         1 UNK         0.0600 
    128 H128       -3.6157  -17.6066  -43.4103 H         1 UNK         0.0600 
    129 H129       -5.2181  -16.8863  -43.2784 H         1 UNK         0.0600 
    130 H130       -1.8905  -16.0580  -44.4438 H         1 UNK         0.3000 
    131 H131       -2.8710  -15.0511  -47.0082 H         1 UNK         0.0600 
    132 H132       -0.3758  -14.6621  -47.4019 H         1 UNK         0.0800 
    133 H133       -0.0628  -15.2750  -45.8061 H         1 UNK         0.0800 
    134 H134       -1.3075  -16.3592  -49.5396 H         1 UNK         0.0800 
    135 H135        0.3564  -15.9457  -49.1841 H         1 UNK         0.0800 
    136 H136       -1.8723  -18.6170  -50.3756 H         1 UNK         0.1150 
    137 H137        1.3292  -21.2923  -51.3559 H         1 UNK         0.1150 
    138 H138        2.1486  -17.6627  -49.2284 H         1 UNK         0.1150 
    139 H139        3.6056  -20.6989  -50.9106 H         1 UNK         0.0800 
    140 H140        3.9820  -19.0323  -50.5518 H         1 UNK         0.0800 
    141 H141        1.8490  -21.3138  -47.6782 H         1 UNK         0.0800 
    142 H142        2.3752  -22.1262  -49.1337 H         1 UNK         0.0800 
    143 H143        4.2977  -23.1452  -47.8243 H         1 UNK         0.0600 
    144 H144        3.2415  -21.5246  -45.6748 H         1 UNK         0.3000 
    145 H145        5.1983  -23.1414  -43.1265 H         1 UNK         0.0600 
    146 H146        5.8205  -20.7763  -42.7646 H         1 UNK         0.0600 
    147 H147        5.2141  -20.3367  -44.3597 H         1 UNK         0.0600 
    148 H148        6.6137  -21.3908  -44.2067 H         1 UNK         0.0600 
    149 H149        3.2770  -21.0525  -42.9590 H         1 UNK         0.3000 
    150 H150        0.4143  -23.1388  -42.3631 H         1 UNK         0.0600 
    151 H151        1.6455  -22.9505  -40.1900 H         1 UNK         0.0600 
    152 H152        0.3617  -21.7567  -40.3125 H         1 UNK         0.0600 
    153 H153        2.0390  -21.2734  -40.5527 H         1 UNK         0.0600 
    154 H154        0.6581  -20.3202  -42.3836 H         1 UNK         0.3000 
    155 H155        0.0634  -19.8128  -45.8900 H         1 UNK         0.0600 
    156 H156       -2.1439  -20.0792  -44.7820 H         1 UNK         0.0600 
    157 H157       -1.6973  -18.3844  -44.8587 H         1 UNK         0.0600 
    158 H158       -1.5523  -19.2690  -43.3404 H         1 UNK         0.0600 
    159 H159        0.6062  -17.9553  -43.8215 H         1 UNK         0.3000 
    160 H160        4.1713  -17.9390  -44.1624 H         1 UNK         0.0600 
    161 H161        1.9910  -15.9116  -44.8731 H         1 UNK         0.0600 
    162 H162        3.2134  -16.5060  -45.9910 H         1 UNK         0.0600 
    163 H163        3.6933  -15.5636  -44.5859 H         1 UNK         0.0600 
    164 H164        2.2944  -16.4860  -42.5284 H         1 UNK         0.3000 
    165 H165        2.4420  -18.7031  -39.7169 H         1 UNK         0.0600 
    166 H166        3.1178  -16.5841  -38.6242 H         1 UNK         0.0600 
    167 H167        4.4549  -17.2211  -39.5683 H         1 UNK         0.0600 
    168 H168        3.5156  -15.8670  -40.1859 H         1 UNK         0.0600 
    169 H169        1.0614  -16.2511  -40.1142 H         1 UNK         0.3000 
    170 H170       -1.7700  -17.4039  -41.8122 H         1 UNK         0.0600 
    171 H171       -2.3340  -18.3948  -39.5924 H         1 UNK         0.0600 
    172 H172       -1.6741  -16.9809  -38.7789 H         1 UNK         0.0600 
    173 H173       -3.1029  -16.8305  -39.8037 H         1 UNK         0.0600 
    174 H174       -1.3165  -15.0492  -40.2678 H         1 UNK         0.3000 
    175 H175       -1.3780  -13.0932  -41.9632 H         1 UNK         0.0600 
    176 H176        1.3509  -13.5138  -40.6330 H         1 UNK         0.0600 
    177 H177        0.5261  -11.9589  -40.7157 H         1 UNK         0.0600 
    178 H178       -0.1987  -13.2891  -39.8380 H         1 UNK         0.0600 
    179 H179       -0.4604  -12.4227  -43.8117 H         1 UNK         0.3000 
    180 H180        2.1670  -11.1049  -44.6354 H         1 UNK         0.0600 
    181 H181        3.8259  -12.8916  -45.1824 H         1 UNK         0.0600 
    182 H182        3.1692  -12.1622  -46.6355 H         1 UNK         0.0600 
    183 H183        2.6048  -13.7480  -46.1193 H         1 UNK         0.0600 
    184 H184        0.4444  -12.6869  -46.4281 H         1 UNK         0.3000 
    185 H185       -2.3828  -10.6631  -46.0438 H         1 UNK         0.0600 
    186 H186       -1.1841   -9.3740  -47.8168 H         1 UNK         0.0600 
    187 H187       -0.6018  -10.8711  -48.5343 H         1 UNK         0.0600 
    188 H188       -2.3276  -10.5042  -48.5230 H         1 UNK         0.0600 
    189 H189       -1.7865  -12.8862  -47.7405 H         1 UNK         0.3000 
    190 H190        1.8393  -23.6767  -45.4629 H         1 UNK         0.3000 
    191 H191        0.2629  -25.1590  -45.0476 H         1 UNK         0.0600 
    192 H192        0.2948  -27.4363  -45.9727 H         1 UNK         0.0600 
    193 H193        1.9334  -26.9549  -45.5614 H         1 UNK         0.0600 
    194 H194        1.4096  -26.9641  -47.2452 H         1 UNK         0.0600 
    195 H195       -0.3843  -22.9946  -46.3753 H         1 UNK         0.3000 
    196 H196       -1.8244  -23.4699  -48.8845 H         1 UNK         0.0600 
    197 H197       -0.4263  -21.4134  -48.4807 H         1 UNK         0.0600 
    198 H198       -2.1136  -20.9918  -48.7548 H         1 UNK         0.0600 
    199 H199       -1.4693  -20.9713  -47.1308 H         1 UNK         0.0600 
    200 H200       -4.0229  -22.9600  -49.2028 H         1 UNK         0.3000 
    201 H201       -5.9023  -23.2444  -46.9470 H         1 UNK         0.0600 
    202 H202       -7.5876  -23.2468  -48.7757 H         1 UNK         0.0600 
    203 H203       -6.3280  -24.4291  -49.0934 H         1 UNK         0.0600 
    204 H204       -6.3341  -22.8964  -49.9619 H         1 UNK         0.0600 
    205 H205       -4.4758  -21.1583  -46.3058 H         1 UNK         0.3000 
    206 H206       -4.3393  -19.0125  -45.7671 H         1 UNK         0.0600 
    207 H207       -6.7420  -19.2759  -45.0547 H         1 UNK         0.0600 
    208 H208       -6.3682  -17.6369  -45.5390 H         1 UNK         0.0600 
    209 H209       -7.2672  -18.6855  -46.6274 H         1 UNK         0.0600 
    210 H210       -5.8834  -16.8188  -47.3165 H         1 UNK         0.3000 
    211 H211       -3.8415  -16.2467  -49.2616 H         1 UNK         0.0600 
    212 H212       -6.4656  -14.7967  -48.6311 H         1 UNK         0.0600 
    213 H213       -5.1057  -14.1351  -49.5311 H         1 UNK         0.0600 
    214 H214       -4.9318  -14.4984  -47.8265 H         1 UNK         0.0600 
    215 H215       -4.8132  -18.6065  -50.1314 H         1 UNK         0.3000 
    216 H216       -6.8465  -18.3648  -52.2004 H         1 UNK         0.0600 
    217 H217       -6.5352  -20.4970  -51.0265 H         1 UNK         0.0600 
    218 H218       -4.8328  -20.5589  -51.4726 H         1 UNK         0.0600 
    219 H219       -6.0821  -20.7259  -52.7049 H         1 UNK         0.0600 
    220 H220       -6.4953  -18.6306  -54.4563 H         1 UNK         0.3000 
    221 H221       -4.1527  -17.3026  -55.5845 H         1 UNK         0.0600 
    222 H222       -6.4438  -16.9454  -56.5268 H         1 UNK         0.0600 
    223 H223       -5.3868  -17.6718  -57.7260 H         1 UNK         0.0600 
    224 H224       -6.5771  -18.6654  -56.8946 H         1 UNK         0.0600 
    225 H225       -2.6755  -18.2892  -57.0287 H         1 UNK         0.3000 
    226 H226       -1.5376  -20.6641  -56.2117 H         1 UNK         0.0600 
    227 H227       -0.3213  -18.8614  -57.3782 H         1 UNK         0.0600 
    228 H228       -0.0770  -20.3808  -58.2221 H         1 UNK         0.0600 
    229 H229       -1.1982  -19.1914  -58.8737 H         1 UNK         0.0600 
    230 H230       -4.0467  -20.3330  -58.6227 H         1 UNK         0.3000 
    231 H231       -3.7034  -22.8458  -59.9637 H         1 UNK         0.0600 
    232 H232       -5.9777  -22.3236  -60.8586 H         1 UNK         0.0600 
    233 H233       -4.9193  -20.9271  -60.9688 H         1 UNK         0.0600 
    234 H234       -6.1451  -21.0083  -59.7021 H         1 UNK         0.0600 
    235 H235       -5.0474  -22.0655  -56.8247 H         1 UNK         0.3000 
    236 H236       -5.8052  -24.8406  -56.3420 H         1 UNK         0.0600 
    237 H237       -7.9200  -22.6159  -56.2309 H         1 UNK         0.0600 
    238 H238       -7.9131  -23.9681  -57.3618 H         1 UNK         0.0600 
    239 H239       -8.1378  -24.2630  -55.6464 H         1 UNK         0.0600 
    240 H240       -3.6739  -23.6694  -55.3870 H         1 UNK         0.3000 
    241 H241       -4.0116  -21.9245  -53.2223 H         1 UNK         0.0600 
    242 H242       -4.4079  -25.4853  -51.3232 H         1 UNK         0.3800 
    243 H243       -4.4392  -25.3945  -53.0639 H         1 UNK         0.3800 
    244 H244       -1.8207  -22.8654  -54.7345 H         1 UNK         0.0800 
    245 H245       -1.4259  -23.4077  -53.1451 H         1 UNK         0.0800 
    246 H246       -1.0833  -22.0491  -51.1834 H         1 UNK         0.0800 
    247 H247       -2.3612  -20.8596  -51.1133 H         1 UNK         0.0800 
@<TRIPOS>BOND
     1    1    2 1    
     2    1  127 1    
     3    1  128 1    
     4    1  129 1    
     5    2    3 2    
     6    2    4 am   BACKBONE|DICT|INTERRES
     7    4    5 1    
     8    4  130 1    
     9    5    6 1    
    10    5   65 1    
    11    5  131 1    
    12    6    7 1    
    13    6  132 1    
    14    6  133 1    
    15    7    8 1    
    16    8    9 1    
    17    8  134 1    
    18    8  135 1    
    19    9   10 ar   
    20    9   14 ar   
    21   10   11 ar   
    22   10  136 1    
    23   11   12 ar   
    24   11  126 1    
    25   12   13 ar   
    26   12  137 1    
    27   13   14 ar   
    28   13   15 1    
    29   14  138 1    
    30   15   16 1    
    31   15  139 1    
    32   15  140 1    
    33   16   17 1    
    34   17   18 1    
    35   17  141 1    
    36   17  142 1    
    37   18   19 1    
    38   18   67 1    
    39   18  143 1    
    40   19   20 am   BACKBONE|DICT|INTERRES
    41   19  144 1    
    42   20   21 2    
    43   20   22 1    
    44   22   23 1    
    45   22   24 1    
    46   22  145 1    
    47   23  146 1    
    48   23  147 1    
    49   23  148 1    
    50   24   25 am   BACKBONE|DICT|INTERRES
    51   24  149 1    
    52   25   26 2    
    53   25   27 1    
    54   27   28 1    
    55   27   29 1    
    56   27  150 1    
    57   28  151 1    
    58   28  152 1    
    59   28  153 1    
    60   29   30 am   BACKBONE|DICT|INTERRES
    61   29  154 1    
    62   30   31 2    
    63   30   32 1    
    64   32   33 1    
    65   32   34 1    
    66   32  155 1    
    67   33  156 1    
    68   33  157 1    
    69   33  158 1    
    70   34   35 am   BACKBONE|DICT|INTERRES
    71   34  159 1    
    72   35   36 2    
    73   35   37 1    
    74   37   38 1    
    75   37   39 1    
    76   37  160 1    
    77   38  161 1    
    78   38  162 1    
    79   38  163 1    
    80   39   40 am   BACKBONE|DICT|INTERRES
    81   39  164 1    
    82   40   41 2    
    83   40   42 1    
    84   42   43 1    
    85   42   44 1    
    86   42  165 1    
    87   43  166 1    
    88   43  167 1    
    89   43  168 1    
    90   44   45 am   BACKBONE|DICT|INTERRES
    91   44  169 1    
    92   45   46 2    
    93   45   47 1    
    94   47   48 1    
    95   47   49 1    
    96   47  170 1    
    97   48  171 1    
    98   48  172 1    
    99   48  173 1    
   100   49   50 am   BACKBONE|DICT|INTERRES
   101   49  174 1    
   102   50   51 2    
   103   50   52 1    
   104   52   53 1    
   105   52   54 1    
   106   52  175 1    
   107   53  176 1    
   108   53  177 1    
   109   53  178 1    
   110   54   55 am   BACKBONE|DICT|INTERRES
   111   54  179 1    
   112   55   56 2    
   113   55   57 1    
   114   57   58 1    
   115   57   59 1    
   116   57  180 1    
   117   58  181 1    
   118   58  182 1    
   119   58  183 1    
   120   59   60 am   BACKBONE|DICT|INTERRES
   121   59  184 1    
   122   60   61 2    
   123   60   62 1    
   124   62   63 1    
   125   62   64 1    
   126   62  185 1    
   127   63  186 1    
   128   63  187 1    
   129   63  188 1    
   130   64   65 am   BACKBONE|DICT|INTERRES
   131   64  189 1    
   132   65   66 2    
   133   67   68 2    
   134   67   69 am   BACKBONE|DICT|INTERRES
   135   69   70 1    
   136   69  190 1    
   137   70   71 1    
   138   70   72 1    
   139   70  191 1    
   140   71  192 1    
   141   71  193 1    
   142   71  194 1    
   143   72   73 2    
   144   72   74 am   BACKBONE|DICT|INTERRES
   145   74   75 1    
   146   74  195 1    
   147   75   76 1    
   148   75   77 1    
   149   75  196 1    
   150   76  197 1    
   151   76  198 1    
   152   76  199 1    
   153   77   78 2    
   154   77   79 am   BACKBONE|DICT|INTERRES
   155   79   80 1    
   156   79  200 1    
   157   80   81 1    
   158   80   82 1    
   159   80  201 1    
   160   81  202 1    
   161   81  203 1    
   162   81  204 1    
   163   82   83 2    
   164   82   84 am   BACKBONE|DICT|INTERRES
   165   84   85 1    
   166   84  205 1    
   167   85   86 1    
   168   85   87 1    
   169   85  206 1    
   170   86  207 1    
   171   86  208 1    
   172   86  209 1    
   173   87   88 2    
   174   87   89 am   BACKBONE|DICT|INTERRES
   175   89   90 1    
   176   89  210 1    
   177   90   91 1    
   178   90   92 1    
   179   90  211 1    
   180   91  212 1    
   181   91  213 1    
   182   91  214 1    
   183   92   93 2    
   184   92   94 am   BACKBONE|DICT|INTERRES
   185   94   95 1    
   186   94  215 1    
   187   95   96 1    
   188   95   97 1    
   189   95  216 1    
   190   96  217 1    
   191   96  218 1    
   192   96  219 1    
   193   97   98 2    
   194   97   99 am   BACKBONE|DICT|INTERRES
   195   99  100 1    
   196   99  220 1    
   197  100  101 1    
   198  100  102 1    
   199  100  221 1    
   200  101  222 1    
   201  101  223 1    
   202  101  224 1    
   203  102  103 2    
   204  102  104 am   BACKBONE|DICT|INTERRES
   205  104  105 1    
   206  104  225 1    
   207  105  106 1    
   208  105  107 1    
   209  105  226 1    
   210  106  227 1    
   211  106  228 1    
   212  106  229 1    
   213  107  108 2    
   214  107  109 am   BACKBONE|DICT|INTERRES
   215  109  110 1    
   216  109  230 1    
   217  110  111 1    
   218  110  112 1    
   219  110  231 1    
   220  111  232 1    
   221  111  233 1    
   222  111  234 1    
   223  112  113 2    
   224  112  114 am   BACKBONE|DICT|INTERRES
   225  114  115 1    
   226  114  235 1    
   227  115  116 1    
   228  115  117 1    
   229  115  236 1    
   230  116  237 1    
   231  116  238 1    
   232  116  239 1    
   233  117  118 2    
   234  117  119 am   BACKBONE|DICT|INTERRES
   235  119  120 1    
   236  119  240 1    
   237  120  121 1    
   238  120  124 1    
   239  120  241 1    
   240  121  122 am   BACKBONE|DICT|INTERRES
   241  121  123 2    
   242  122  242 1    
   243  122  243 1    
   244  124  125 1    
   245  124  244 1    
   246  124  245 1    
   247  125  126 1    
   248  126  246 1    
   249  126  247 1    
@<TRIPOS>SUBSTRUCTURE
     1 UNK         1 GROUP             0       ****    0 ROOT    
