@<TRIPOS>MOLECULE
3R540
247   249    1
SMALL
USER_CHARGES


@<TRIPOS>ATOM
      1 CA          5.8791  -18.6351  -41.5278 C.3       0 UNK        -0.1800 
      2 C           5.0796  -17.9366  -42.6179 C.2       0 UNK         0.5000 
      3 O           3.8564  -18.0777  -42.6646 O.2       0 UNK        -0.5000 
      4 N           5.7654  -17.2054  -43.5062 N.am      1 UNK        -0.5000 
      5 CA          5.1484  -16.4083  -44.5687 C.3       1 UNK         0.1400 
      6 C6          6.0931  -16.2300  -45.7846 C.3       23 UNK        -0.0398 
      7 S7          5.1632  -16.0836  -47.3496 S.3       23 UNK        -0.2404 
      8 C8          4.8833  -17.8529  -47.7022 C.3       23 UNK        -0.0205 
      9 C9          3.9431  -18.1837  -48.8607 C.ar      23 UNK        -0.0193 
     10 C10         3.1380  -17.2302  -49.4964 C.ar      23 UNK        -0.1150 
     11 C11         2.2830  -17.6022  -50.5374 C.ar      23 UNK        -0.0193 
     12 C12         2.2228  -18.9401  -50.9400 C.ar      23 UNK        -0.1150 
     13 C13         3.0052  -19.9092  -50.3034 C.ar      23 UNK        -0.0193 
     14 C14         3.8656  -19.5166  -49.2751 C.ar      23 UNK        -0.1150 
     15 C15         2.9751  -21.3762  -50.7274 C.3       23 UNK        -0.0205 
     16 S16         1.3193  -22.0365  -51.1225 S.3       23 UNK        -0.2404 
     17 C17         0.4036  -21.8526  -49.5566 C.3       23 UNK        -0.0398 
     18 CA          0.4934  -23.1103  -48.6571 C.3       11 UNK         0.1400 
     19 N           1.7994  -23.2475  -48.0074 N.am      11 UNK        -0.5000 
     20 C           2.2403  -24.3865  -47.4548 C.2       10 UNK         0.5000 
     21 O           1.6014  -25.4374  -47.4684 O.2       10 UNK        -0.5000 
     22 CA          3.6020  -24.3486  -46.7371 C.3       10 UNK         0.1400 
     23 CB          4.7282  -24.7130  -47.7155 C.3       10 UNK        -0.1800 
     24 N           3.9096  -23.0611  -46.1151 N.am      10 UNK        -0.5000 
     25 C           3.2118  -22.4789  -45.1299 C.2       9 UNK         0.5000 
     26 O           2.2035  -22.9773  -44.6259 O.2       9 UNK        -0.5000 
     27 CA          3.7008  -21.0911  -44.6490 C.3       9 UNK         0.1400 
     28 CB          5.0099  -20.6332  -45.3297 C.3       9 UNK        -0.1800 
     29 N           2.6787  -20.0404  -44.7686 N.am      9 UNK        -0.5000 
     30 C           1.9017  -19.7845  -45.8308 C.2       8 UNK         0.5000 
     31 O           1.9445  -20.4300  -46.8815 O.2       8 UNK        -0.5000 
     32 CA          0.8812  -18.6422  -45.6892 C.3       8 UNK         0.1400 
     33 CB          1.5453  -17.2570  -45.6477 C.3       8 UNK        -0.1800 
     34 N          -0.0455  -18.7061  -46.8150 N.am      8 UNK        -0.5000 
     35 C          -1.3137  -18.2906  -46.7939 C.2       7 UNK         0.5000 
     36 O          -1.8488  -17.7665  -45.8130 O.2       7 UNK        -0.5000 
     37 CA         -2.1354  -18.5200  -48.0692 C.3       7 UNK         0.1400 
     38 CB         -2.6893  -19.9492  -48.1281 C.3       7 UNK        -0.1800 
     39 N          -3.2268  -17.5572  -48.0741 N.am      7 UNK        -0.5000 
     40 C          -3.9046  -17.1219  -49.1401 C.2       6 UNK         0.5000 
     41 O          -3.7403  -17.5459  -50.2838 O.2       6 UNK        -0.5000 
     42 CA         -4.9419  -16.0121  -48.8833 C.3       6 UNK         0.1400 
     43 CB         -6.3322  -16.6205  -48.6467 C.3       6 UNK        -0.1800 
     44 N          -4.5962  -15.1584  -47.7419 N.am      6 UNK        -0.5000 
     45 C          -3.6159  -14.2466  -47.7546 C.2       5 UNK         0.5000 
     46 O          -2.9131  -14.0080  -48.7395 O.2       5 UNK        -0.5000 
     47 CA         -3.3748  -13.4806  -46.4465 C.3       5 UNK         0.1400 
     48 CB         -2.4435  -14.2724  -45.5134 C.3       5 UNK        -0.1800 
     49 N          -2.7481  -12.2036  -46.7676 N.am      5 UNK        -0.5000 
     50 C          -3.1097  -11.0083  -46.2911 C.2       4 UNK         0.5000 
     51 O          -4.0076  -10.8451  -45.4623 O.2       4 UNK        -0.5000 
     52 CA         -2.3289   -9.7979  -46.8498 C.3       4 UNK         0.1400 
     53 CB         -2.5597   -8.5021  -46.0430 C.3       4 UNK        -0.1800 
     54 N          -0.8919  -10.0618  -47.0133 N.am      4 UNK        -0.5000 
     55 C          -0.0200  -10.3862  -46.0472 C.2       3 UNK         0.5000 
     56 O          -0.3177  -10.5047  -44.8554 O.2       3 UNK        -0.5000 
     57 CA          1.4416  -10.5707  -46.4948 C.3       3 UNK         0.1400 
     58 CB          2.1235   -9.2053  -46.6813 C.3       3 UNK        -0.1800 
     59 N           2.1922  -11.3330  -45.4993 N.am      3 UNK        -0.5000 
     60 C           2.2601  -12.6669  -45.4537 C.2       2 UNK         0.5000 
     61 O           1.7891  -13.4173  -46.3124 O.2       2 UNK        -0.5000 
     62 CA          2.9590  -13.2606  -44.2252 C.3       2 UNK         0.1400 
     63 CB          1.9561  -13.4882  -43.0803 C.3       2 UNK        -0.1800 
     64 N           3.5770  -14.5271  -44.5977 N.am      2 UNK        -0.5000 
     65 C           4.6516  -15.0596  -44.0090 C.2       1 UNK         0.5000 
     66 O           5.2529  -14.5256  -43.0727 O.2       1 UNK        -0.5000 
     67 C          -0.6392  -23.1410  -47.6115 C.2       11 UNK         0.5000 
     68 O          -1.6753  -23.7567  -47.8612 O.2       11 UNK        -0.5000 
     69 N          -0.4198  -22.5175  -46.4443 N.am      12 UNK        -0.5000 
     70 CA         -1.3525  -22.5705  -45.3159 C.3       12 UNK         0.1400 
     71 CB         -1.0073  -21.4976  -44.2757 C.3       12 UNK        -0.1800 
     72 C          -1.4081  -23.9673  -44.6760 C.2       12 UNK         0.5000 
     73 O          -2.4990  -24.4360  -44.3534 O.2       12 UNK        -0.5000 
     74 N          -0.2491  -24.6328  -44.5617 N.am      13 UNK        -0.5000 
     75 CA         -0.1295  -26.0188  -44.0968 C.3       13 UNK         0.1400 
     76 CB          1.3543  -26.3813  -43.9392 C.3       13 UNK        -0.1800 
     77 C          -0.8446  -27.0277  -45.0197 C.2       13 UNK         0.5000 
     78 O          -1.4335  -27.9911  -44.5289 O.2       13 UNK        -0.5000 
     79 N          -0.8198  -26.7612  -46.3327 N.am      14 UNK        -0.5000 
     80 CA         -1.5504  -27.5021  -47.3636 C.3       14 UNK         0.1400 
     81 CB         -0.8841  -27.2361  -48.7236 C.3       14 UNK        -0.1800 
     82 C          -3.0558  -27.1610  -47.4271 C.2       14 UNK         0.5000 
     83 O          -3.7788  -27.8087  -48.1851 O.2       14 UNK        -0.5000 
     84 N          -3.4984  -26.1546  -46.6564 N.am      15 UNK        -0.5000 
     85 CA         -4.8555  -25.6005  -46.5954 C.3       15 UNK         0.1400 
     86 CB         -5.8611  -26.6433  -46.0648 C.3       15 UNK        -0.1800 
     87 C          -5.3028  -24.9455  -47.9195 C.2       15 UNK         0.5000 
     88 O          -6.4916  -24.9464  -48.2448 O.2       15 UNK        -0.5000 
     89 N          -4.3464  -24.3573  -48.6514 N.am      16 UNK        -0.5000 
     90 CA         -4.5511  -23.7161  -49.9518 C.3       16 UNK         0.1400 
     91 CB         -3.2340  -23.7503  -50.7398 C.3       16 UNK        -0.1800 
     92 C          -5.1242  -22.2863  -49.8529 C.2       16 UNK         0.5000 
     93 O          -5.2252  -21.6015  -50.8716 O.2       16 UNK        -0.5000 
     94 N          -5.5288  -21.8600  -48.6473 N.am      17 UNK        -0.5000 
     95 CA         -6.2758  -20.6246  -48.3982 C.3       17 UNK         0.1400 
     96 CB         -6.4223  -20.4125  -46.8835 C.3       17 UNK        -0.1800 
     97 C          -7.6611  -20.6335  -49.0716 C.2       17 UNK         0.5000 
     98 O          -8.1139  -19.5899  -49.5386 O.2       17 UNK        -0.5000 
     99 N          -8.2816  -21.8202  -49.1576 N.am      18 UNK        -0.5000 
    100 CA        -9.5449  -22.0532  -49.8618 C.3       18 UNK         0.1400 
    101 CB       -10.0774  -23.4439  -49.4851 C.3       18 UNK        -0.1800 
    102 C         -9.4104  -21.9215  -51.3921 C.2       18 UNK         0.5000 
    103 O        -10.3635  -21.5099  -52.0538 O.2       18 UNK        -0.5000 
    104 N         -8.2238  -22.2532  -51.9197 N.am      19 UNK        -0.5000 
    105 CA        -7.8537  -22.0808  -53.3259 C.3       19 UNK         0.1400 
    106 CB        -6.7701  -23.1127  -53.6803 C.3       19 UNK        -0.1800 
    107 C         -7.3605  -20.6527  -53.6370 C.2       19 UNK         0.5000 
    108 O         -7.2735  -20.2934  -54.8115 O.2       19 UNK        -0.5000 
    109 N         -7.0426  -19.8807  -52.5862 N.am      20 UNK        -0.5000 
    110 CA        -6.4630  -18.5370  -52.5915 C.3       20 UNK         0.1400 
    111 CB        -7.4623  -17.5052  -53.1525 C.3       20 UNK        -0.1800 
    112 C         -5.0919  -18.5110  -53.2917 C.2       20 UNK         0.5000 
    113 O         -4.8999  -17.7671  -54.2557 O.2       20 UNK        -0.5000 
    114 N         -4.1715  -19.3468  -52.7888 N.am      21 UNK        -0.5000 
    115 CA        -2.8057  -19.5542  -53.2830 C.3       21 UNK         0.1400 
    116 CB        -2.0452  -20.4328  -52.2802 C.3       21 UNK        -0.1800 
    117 C         -1.9945  -18.2746  -53.5671 C.2       21 UNK         0.5000 
    118 O         -1.2673  -18.2347  -54.5609 O.2       21 UNK        -0.5000 
    119 N         -2.1404  -17.2584  -52.7091 N.am      22 UNK        -0.5000 
    120 CA        -1.4924  -15.9451  -52.8638 C.3       22 UNK         0.1400 
    121 C         -2.2813  -14.9408  -53.7558 C.2       22 UNK         0.5000 
    122 N         -3.4309  -15.2907  -54.3202 N.am      22 UNK        -0.7600 
    123 O         -1.8322  -13.8154  -53.9561 O.2       22 UNK        -0.5000 
    124 C124       -1.1116  -15.3077  -51.5015 C.3       23 UNK        -0.0398 
    125 S125       -0.1861  -16.4149  -50.3853 S.3       23 UNK        -0.2404 
    126 C126        1.4177  -16.5592  -51.2239 C.3       23 UNK        -0.0205 
    127 H127        6.9468  -18.4318  -41.6140 H         1 UNK         0.0600 
    128 H128        5.7319  -19.7134  -41.5891 H         1 UNK         0.0600 
    129 H129        5.5465  -18.2991  -40.5458 H         1 UNK         0.0600 
    130 H130        6.7621  -17.0903  -43.3902 H         1 UNK         0.3000 
    131 H131        4.2790  -16.9685  -44.9073 H         1 UNK         0.0600 
    132 H132        6.7439  -15.3615  -45.6671 H         1 UNK         0.0800 
    133 H133        6.7632  -17.0863  -45.8765 H         1 UNK         0.0800 
    134 H134        5.8499  -18.3277  -47.8781 H         1 UNK         0.0800 
    135 H135        4.4636  -18.3121  -46.8098 H         1 UNK         0.0800 
    136 H136        3.1603  -16.1959  -49.1865 H         1 UNK         0.1150 
    137 H137        1.5607  -19.2256  -51.7453 H         1 UNK         0.1150 
    138 H138        4.4774  -20.2595  -48.7839 H         1 UNK         0.1150 
    139 H139        3.6057  -21.4858  -51.6102 H         1 UNK         0.0800 
    140 H140        3.4212  -22.0067  -49.9576 H         1 UNK         0.0800 
    141 H141       -0.6310  -21.6641  -49.8440 H         1 UNK         0.0800 
    142 H142        0.7324  -20.9559  -49.0344 H         1 UNK         0.0800 
    143 H143        0.3426  -23.9839  -49.2956 H         1 UNK         0.0600 
    144 H144        2.3344  -22.3971  -47.8846 H         1 UNK         0.3000 
    145 H145        3.5810  -25.1004  -45.9465 H         1 UNK         0.0600 
    146 H146        5.6896  -24.7770  -47.2056 H         1 UNK         0.0600 
    147 H147        4.5434  -25.6827  -48.1798 H         1 UNK         0.0600 
    148 H148        4.8197  -23.9780  -48.5163 H         1 UNK         0.0600 
    149 H149        4.7159  -22.5732  -46.4758 H         1 UNK         0.3000 
    150 H150        3.9037  -21.1961  -43.5823 H         1 UNK         0.0600 
    151 H151        4.9020  -20.5567  -46.4112 H         1 UNK         0.0600 
    152 H152        5.8256  -21.3273  -45.1233 H         1 UNK         0.0600 
    153 H153        5.3271  -19.6595  -44.9615 H         1 UNK         0.0600 
    154 H154        2.5860  -19.4512  -43.9498 H         1 UNK         0.3000 
    155 H155        0.3343  -18.7951  -44.7576 H         1 UNK         0.0600 
    156 H156        2.2398  -17.1146  -46.4757 H         1 UNK         0.0600 
    157 H157        2.0852  -17.1253  -44.7116 H         1 UNK         0.0600 
    158 H158        0.8057  -16.4572  -45.6958 H         1 UNK         0.0600 
    159 H159        0.3378  -19.1638  -47.6319 H         1 UNK         0.3000 
    160 H160       -1.4966  -18.3573  -48.9355 H         1 UNK         0.0600 
    161 H161       -3.3450  -20.1624  -47.2855 H         1 UNK         0.0600 
    162 H162       -1.8823  -20.6750  -48.1014 H         1 UNK         0.0600 
    163 H163       -3.2440  -20.1166  -49.0503 H         1 UNK         0.0600 
    164 H164       -3.3899  -17.1287  -47.1718 H         1 UNK         0.3000 
    165 H165       -4.9890  -15.3910  -49.7806 H         1 UNK         0.0600 
    166 H166       -7.0869  -15.8442  -48.5207 H         1 UNK         0.0600 
    167 H167       -6.6412  -17.2334  -49.4927 H         1 UNK         0.0600 
    168 H168       -6.3503  -17.2542  -47.7594 H         1 UNK         0.0600 
    169 H169       -5.1358  -15.2912  -46.8985 H         1 UNK         0.3000 
    170 H170       -4.3369  -13.3240  -45.9541 H         1 UNK         0.0600 
    171 H171       -1.4873  -14.4945  -45.9902 H         1 UNK         0.0600 
    172 H172       -2.2375  -13.7164  -44.5985 H         1 UNK         0.0600 
    173 H173       -2.8938  -15.2218  -45.2222 H         1 UNK         0.0600 
    174 H174       -2.0489  -12.2507  -47.4968 H         1 UNK         0.3000 
    175 H175       -2.7224   -9.6280  -47.8531 H         1 UNK         0.0600 
    176 H176       -2.2460   -8.6084  -45.0042 H         1 UNK         0.0600 
    177 H177       -2.0105   -7.6656  -46.4752 H         1 UNK         0.0600 
    178 H178       -3.6151   -8.2274  -46.0383 H         1 UNK         0.0600 
    179 H179       -0.5463   -9.9852  -47.9600 H         1 UNK         0.3000 
    180 H180        1.4531  -11.1014  -47.4495 H         1 UNK         0.0600 
    181 H181        2.1212   -8.6238  -45.7583 H         1 UNK         0.0600 
    182 H182        1.6160   -8.6122  -47.4431 H         1 UNK         0.0600 
    183 H183        3.1592   -9.3228  -47.0009 H         1 UNK         0.0600 
    184 H184        2.5564  -10.8004  -44.7226 H         1 UNK         0.3000 
    185 H185        3.7314  -12.5608  -43.8983 H         1 UNK         0.0600 
    186 H186        2.4517  -13.8757  -42.1901 H         1 UNK         0.0600 
    187 H187        1.4643  -12.5561  -42.7992 H         1 UNK         0.0600 
    188 H188        1.1777  -14.1972  -43.3660 H         1 UNK         0.0600 
    189 H189        3.1635  -14.9657  -45.4114 H         1 UNK         0.3000 
    190 H190        0.4724  -22.0648  -46.2932 H         1 UNK         0.3000 
    191 H191       -2.3535  -22.3493  -45.6937 H         1 UNK         0.0600 
    192 H192       -1.1925  -20.5028  -44.6754 H         1 UNK         0.0600 
    193 H193       -1.6296  -21.6006  -43.3858 H         1 UNK         0.0600 
    194 H194        0.0329  -21.5548  -43.9558 H         1 UNK         0.0600 
    195 H195        0.6133  -24.1480  -44.7914 H         1 UNK         0.3000 
    196 H196       -0.5998  -26.0779  -43.1131 H         1 UNK         0.0600 
    197 H197        1.4670  -27.3742  -43.5025 H         1 UNK         0.0600 
    198 H198        1.8679  -25.6765  -43.2850 H         1 UNK         0.0600 
    199 H199        1.8701  -26.3874  -44.8987 H         1 UNK         0.0600 
    200 H200       -0.2442  -25.9929  -46.6588 H         1 UNK         0.3000 
    201 H201       -1.4684  -28.5692  -47.1482 H         1 UNK         0.0600 
    202 H202       -1.3654  -27.8086  -49.5174 H         1 UNK         0.0600 
    203 H203        0.1674  -27.5230  -48.7108 H         1 UNK         0.0600 
    204 H204       -0.9408  -26.1827  -48.9991 H         1 UNK         0.0600 
    205 H205       -2.8243  -25.6880  -46.0621 H         1 UNK         0.3000 
    206 H206       -4.8140  -24.7914  -45.8652 H         1 UNK         0.0600 
    207 H207       -5.5157  -27.0822  -45.1287 H         1 UNK         0.0600 
    208 H208       -6.8312  -26.1855  -45.8684 H         1 UNK         0.0600 
    209 H209       -6.0223  -27.4529  -46.7768 H         1 UNK         0.0600 
    210 H210       -3.3925  -24.3381  -48.2953 H         1 UNK         0.3000 
    211 H211       -5.2795  -24.3074  -50.5103 H         1 UNK         0.0600 
    212 H212       -2.5042  -23.0516  -50.3330 H         1 UNK         0.0600 
    213 H213       -3.4030  -23.4882  -51.7844 H         1 UNK         0.0600 
    214 H214       -2.7888  -24.7454  -50.7276 H         1 UNK         0.0600 
    215 H215       -5.3984  -22.4802  -47.8629 H         1 UNK         0.3000 
    216 H216       -5.7071  -19.7906  -48.8144 H         1 UNK         0.0600 
    217 H217       -6.9626  -19.4894  -46.6699 H         1 UNK         0.0600 
    218 H218       -5.4536  -20.3389  -46.3914 H         1 UNK         0.0600 
    219 H219       -6.9727  -21.2290  -46.4144 H         1 UNK         0.0600 
    220 H220       -7.8380  -22.6296  -48.7453 H         1 UNK         0.3000 
    221 H221      -10.2671  -21.3058  -49.5261 H         1 UNK         0.0600 
    222 H222       -9.3807  -24.2332  -49.7709 H         1 UNK         0.0600 
    223 H223      -10.2500  -23.5222  -48.4115 H         1 UNK         0.0600 
    224 H224      -11.0271  -23.6469  -49.9819 H         1 UNK         0.0600 
    225 H225       -7.4918  -22.5668  -51.3004 H         1 UNK         0.3000 
    226 H226       -8.7261  -22.2744  -53.9536 H         1 UNK         0.0600 
    227 H227       -6.5083  -23.0548  -54.7375 H         1 UNK         0.0600 
    228 H228       -5.8551  -22.9527  -53.1094 H         1 UNK         0.0600 
    229 H229       -7.1138  -24.1290  -53.4872 H         1 UNK         0.0600 
    230 H230       -7.1308  -20.3006  -51.6718 H         1 UNK         0.3000 
    231 H231       -6.2770  -18.2806  -51.5486 H         1 UNK         0.0600 
    232 H232       -7.6848  -17.6821  -54.2051 H         1 UNK         0.0600 
    233 H233       -7.0634  -16.4937  -53.0683 H         1 UNK         0.0600 
    234 H234       -8.4024  -17.5307  -52.6015 H         1 UNK         0.0600 
    235 H235       -4.4490  -19.9362  -52.0122 H         1 UNK         0.3000 
    236 H236       -2.8898  -20.1015  -54.2235 H         1 UNK         0.0600 
    237 H237       -2.5307  -21.3985  -52.1646 H         1 UNK         0.0600 
    238 H238       -1.0247  -20.6207  -52.6160 H         1 UNK         0.0600 
    239 H239       -1.9882  -19.9623  -51.2977 H         1 UNK         0.0600 
    240 H240       -2.7483  -17.3753  -51.9017 H         1 UNK         0.3000 
    241 H241       -0.5576  -16.0973  -53.4039 H         1 UNK         0.0600 
    242 H242       -3.8192  -16.2237  -54.2062 H         1 UNK         0.3800 
    243 H243       -3.9158  -14.6239  -54.8989 H         1 UNK         0.3800 
    244 H244       -0.5212  -14.4018  -51.6484 H         1 UNK         0.0800 
    245 H245       -2.0166  -14.9987  -50.9781 H         1 UNK         0.0800 
    246 H246        1.9177  -15.5896  -51.2274 H         1 UNK         0.0800 
    247 H247        1.2723  -16.8406  -52.2670 H         1 UNK         0.0800 
@<TRIPOS>BOND
     1    1    2 1    
     2    1  127 1    
     3    1  128 1    
     4    1  129 1    
     5    2    3 2    
     6    2    4 am   BACKBONE|DICT|INTERRES
     7    4    5 1    
     8    4  130 1    
     9    5    6 1    
    10    5   65 1    
    11    5  131 1    
    12    6    7 1    
    13    6  132 1    
    14    6  133 1    
    15    7    8 1    
    16    8    9 1    
    17    8  134 1    
    18    8  135 1    
    19    9   10 ar   
    20    9   14 ar   
    21   10   11 ar   
    22   10  136 1    
    23   11   12 ar   
    24   11  126 1    
    25   12   13 ar   
    26   12  137 1    
    27   13   14 ar   
    28   13   15 1    
    29   14  138 1    
    30   15   16 1    
    31   15  139 1    
    32   15  140 1    
    33   16   17 1    
    34   17   18 1    
    35   17  141 1    
    36   17  142 1    
    37   18   19 1    
    38   18   67 1    
    39   18  143 1    
    40   19   20 am   BACKBONE|DICT|INTERRES
    41   19  144 1    
    42   20   21 2    
    43   20   22 1    
    44   22   23 1    
    45   22   24 1    
    46   22  145 1    
    47   23  146 1    
    48   23  147 1    
    49   23  148 1    
    50   24   25 am   BACKBONE|DICT|INTERRES
    51   24  149 1    
    52   25   26 2    
    53   25   27 1    
    54   27   28 1    
    55   27   29 1    
    56   27  150 1    
    57   28  151 1    
    58   28  152 1    
    59   28  153 1    
    60   29   30 am   BACKBONE|DICT|INTERRES
    61   29  154 1    
    62   30   31 2    
    63   30   32 1    
    64   32   33 1    
    65   32   34 1    
    66   32  155 1    
    67   33  156 1    
    68   33  157 1    
    69   33  158 1    
    70   34   35 am   BACKBONE|DICT|INTERRES
    71   34  159 1    
    72   35   36 2    
    73   35   37 1    
    74   37   38 1    
    75   37   39 1    
    76   37  160 1    
    77   38  161 1    
    78   38  162 1    
    79   38  163 1    
    80   39   40 am   BACKBONE|DICT|INTERRES
    81   39  164 1    
    82   40   41 2    
    83   40   42 1    
    84   42   43 1    
    85   42   44 1    
    86   42  165 1    
    87   43  166 1    
    88   43  167 1    
    89   43  168 1    
    90   44   45 am   BACKBONE|DICT|INTERRES
    91   44  169 1    
    92   45   46 2    
    93   45   47 1    
    94   47   48 1    
    95   47   49 1    
    96   47  170 1    
    97   48  171 1    
    98   48  172 1    
    99   48  173 1    
   100   49   50 am   BACKBONE|DICT|INTERRES
   101   49  174 1    
   102   50   51 2    
   103   50   52 1    
   104   52   53 1    
   105   52   54 1    
   106   52  175 1    
   107   53  176 1    
   108   53  177 1    
   109   53  178 1    
   110   54   55 am   BACKBONE|DICT|INTERRES
   111   54  179 1    
   112   55   56 2    
   113   55   57 1    
   114   57   58 1    
   115   57   59 1    
   116   57  180 1    
   117   58  181 1    
   118   58  182 1    
   119   58  183 1    
   120   59   60 am   BACKBONE|DICT|INTERRES
   121   59  184 1    
   122   60   61 2    
   123   60   62 1    
   124   62   63 1    
   125   62   64 1    
   126   62  185 1    
   127   63  186 1    
   128   63  187 1    
   129   63  188 1    
   130   64   65 am   BACKBONE|DICT|INTERRES
   131   64  189 1    
   132   65   66 2    
   133   67   68 2    
   134   67   69 am   BACKBONE|DICT|INTERRES
   135   69   70 1    
   136   69  190 1    
   137   70   71 1    
   138   70   72 1    
   139   70  191 1    
   140   71  192 1    
   141   71  193 1    
   142   71  194 1    
   143   72   73 2    
   144   72   74 am   BACKBONE|DICT|INTERRES
   145   74   75 1    
   146   74  195 1    
   147   75   76 1    
   148   75   77 1    
   149   75  196 1    
   150   76  197 1    
   151   76  198 1    
   152   76  199 1    
   153   77   78 2    
   154   77   79 am   BACKBONE|DICT|INTERRES
   155   79   80 1    
   156   79  200 1    
   157   80   81 1    
   158   80   82 1    
   159   80  201 1    
   160   81  202 1    
   161   81  203 1    
   162   81  204 1    
   163   82   83 2    
   164   82   84 am   BACKBONE|DICT|INTERRES
   165   84   85 1    
   166   84  205 1    
   167   85   86 1    
   168   85   87 1    
   169   85  206 1    
   170   86  207 1    
   171   86  208 1    
   172   86  209 1    
   173   87   88 2    
   174   87   89 am   BACKBONE|DICT|INTERRES
   175   89   90 1    
   176   89  210 1    
   177   90   91 1    
   178   90   92 1    
   179   90  211 1    
   180   91  212 1    
   181   91  213 1    
   182   91  214 1    
   183   92   93 2    
   184   92   94 am   BACKBONE|DICT|INTERRES
   185   94   95 1    
   186   94  215 1    
   187   95   96 1    
   188   95   97 1    
   189   95  216 1    
   190   96  217 1    
   191   96  218 1    
   192   96  219 1    
   193   97   98 2    
   194   97   99 am   BACKBONE|DICT|INTERRES
   195   99  100 1    
   196   99  220 1    
   197  100  101 1    
   198  100  102 1    
   199  100  221 1    
   200  101  222 1    
   201  101  223 1    
   202  101  224 1    
   203  102  103 2    
   204  102  104 am   BACKBONE|DICT|INTERRES
   205  104  105 1    
   206  104  225 1    
   207  105  106 1    
   208  105  107 1    
   209  105  226 1    
   210  106  227 1    
   211  106  228 1    
   212  106  229 1    
   213  107  108 2    
   214  107  109 am   BACKBONE|DICT|INTERRES
   215  109  110 1    
   216  109  230 1    
   217  110  111 1    
   218  110  112 1    
   219  110  231 1    
   220  111  232 1    
   221  111  233 1    
   222  111  234 1    
   223  112  113 2    
   224  112  114 am   BACKBONE|DICT|INTERRES
   225  114  115 1    
   226  114  235 1    
   227  115  116 1    
   228  115  117 1    
   229  115  236 1    
   230  116  237 1    
   231  116  238 1    
   232  116  239 1    
   233  117  118 2    
   234  117  119 am   BACKBONE|DICT|INTERRES
   235  119  120 1    
   236  119  240 1    
   237  120  121 1    
   238  120  124 1    
   239  120  241 1    
   240  121  122 am   BACKBONE|DICT|INTERRES
   241  121  123 2    
   242  122  242 1    
   243  122  243 1    
   244  124  125 1    
   245  124  244 1    
   246  124  245 1    
   247  125  126 1    
   248  126  246 1    
   249  126  247 1    
@<TRIPOS>SUBSTRUCTURE
     1 UNK         1 GROUP             0       ****    0 ROOT    
