@<TRIPOS>MOLECULE
3R540
247   249    1
SMALL
USER_CHARGES


@<TRIPOS>ATOM
      1 CA          3.8086  -14.7693  -42.3158 C.3       0 UNK        -0.1800 
      2 C           2.3067  -14.8304  -42.5527 C.2       0 UNK         0.5000 
      3 O           1.8729  -14.8123  -43.7013 O.2       0 UNK        -0.5000 
      4 N           1.5172  -14.8805  -41.4713 N.am      1 UNK        -0.5000 
      5 CA          0.0505  -15.0226  -41.4110 C.3       1 UNK         0.1400 
      6 C6         -0.4824  -16.3347  -42.0462 C.3       23 UNK        -0.0398 
      7 S7          0.1427  -17.8163  -41.1784 S.3       23 UNK        -0.2404 
      8 C8          0.0803  -19.0779  -42.4891 C.3       23 UNK        -0.0205 
      9 C9         -1.3470  -19.4829  -42.8279 C.ar      23 UNK        -0.0193 
     10 C10        -2.0412  -18.8383  -43.8564 C.ar      23 UNK        -0.1150 
     11 C11        -3.3492  -19.2139  -44.1797 C.ar      23 UNK        -0.0193 
     12 C12        -3.9624  -20.2421  -43.4589 C.ar      23 UNK        -0.1150 
     13 C13        -3.2598  -20.9306  -42.4657 C.ar      23 UNK        -0.0193 
     14 C14        -1.9607  -20.5320  -42.1378 C.ar      23 UNK        -0.1150 
     15 C15        -3.8747  -22.1602  -41.8176 C.3       23 UNK        -0.0205 
     16 S16        -4.1042  -23.5021  -43.0347 S.3       23 UNK        -0.2404 
     17 C17        -2.3864  -23.9016  -43.5289 C.3       23 UNK        -0.0398 
     18 CA         -1.8154  -23.0448  -44.7017 C.3       11 UNK         0.1400 
     19 N          -0.3563  -22.9573  -44.6669 N.am      11 UNK        -0.5000 
     20 C           0.5219  -23.9621  -44.7473 C.2       10 UNK         0.5000 
     21 O           0.2013  -25.1485  -44.8425 O.2       10 UNK        -0.5000 
     22 CA          2.0107  -23.5488  -44.7248 C.3       10 UNK         0.1400 
     23 CB          2.9685  -24.7523  -44.6643 C.3       10 UNK        -0.1800 
     24 N           2.3740  -22.7080  -45.8698 N.am      10 UNK        -0.5000 
     25 C           2.0519  -21.4162  -46.0133 C.2       9 UNK         0.5000 
     26 O           1.3925  -20.7878  -45.1815 O.2       9 UNK        -0.5000 
     27 CA          2.5204  -20.7295  -47.3134 C.3       9 UNK         0.1400 
     28 CB          1.4693  -20.9174  -48.4204 C.3       9 UNK        -0.1800 
     29 N           2.7591  -19.2965  -47.1331 N.am      9 UNK        -0.5000 
     30 C           3.6441  -18.7541  -46.2827 C.2       8 UNK         0.5000 
     31 O           4.4749  -19.4170  -45.6586 O.2       8 UNK        -0.5000 
     32 CA          3.6181  -17.2201  -46.0926 C.3       8 UNK         0.1400 
     33 CB          4.9326  -16.5850  -46.5730 C.3       8 UNK        -0.1800 
     34 N           2.5054  -16.5460  -46.7626 N.am      8 UNK        -0.5000 
     35 C           1.2147  -16.6374  -46.4103 C.2       7 UNK         0.5000 
     36 O           0.8173  -17.3042  -45.4589 O.2       7 UNK        -0.5000 
     37 CA          0.1862  -15.8835  -47.2735 C.3       7 UNK         0.1400 
     38 CB         -0.4257  -14.7135  -46.4910 C.3       7 UNK        -0.1800 
     39 N           0.7205  -15.3918  -48.5461 N.am      7 UNK        -0.5000 
     40 C           1.0735  -16.1720  -49.5786 C.2       6 UNK         0.5000 
     41 O           1.0421  -17.4027  -49.5441 O.2       6 UNK        -0.5000 
     42 CA          1.5576  -15.4664  -50.8589 C.3       6 UNK         0.1400 
     43 CB          0.3862  -15.2803  -51.8359 C.3       6 UNK        -0.1800 
     44 N           2.1818  -14.1666  -50.6044 N.am      6 UNK        -0.5000 
     45 C           3.3471  -13.9910  -49.9649 C.2       5 UNK         0.5000 
     46 O           4.0369  -14.9160  -49.5361 O.2       5 UNK        -0.5000 
     47 CA          3.8011  -12.5352  -49.7417 C.3       5 UNK         0.1400 
     48 CB          4.6916  -12.0652  -50.9019 C.3       5 UNK        -0.1800 
     49 N           2.6887  -11.5932  -49.5741 N.am      5 UNK        -0.5000 
     50 C           1.8320  -11.6141  -48.5450 C.2       4 UNK         0.5000 
     51 O           1.8604  -12.4617  -47.6521 O.2       4 UNK        -0.5000 
     52 CA          0.7276  -10.5429  -48.5387 C.3       4 UNK         0.1400 
     53 CB         -0.5909  -11.1359  -49.0601 C.3       4 UNK        -0.1800 
     54 N           0.5100  -10.0083  -47.1950 N.am      4 UNK        -0.5000 
     55 C           1.3709   -9.2191  -46.5372 C.2       3 UNK         0.5000 
     56 O           2.4192   -8.7969  -47.0280 O.2       3 UNK        -0.5000 
     57 CA          0.9971   -8.8146  -45.0961 C.3       3 UNK         0.1400 
     58 CB          0.3950   -7.4007  -45.0759 C.3       3 UNK        -0.1800 
     59 N           0.0588   -9.7378  -44.4507 N.am      3 UNK        -0.5000 
     60 C           0.3834  -10.9581  -44.0048 C.2       2 UNK         0.5000 
     61 O           1.5222  -11.4277  -44.0698 O.2       2 UNK        -0.5000 
     62 CA         -0.7574  -11.7783  -43.3799 C.3       2 UNK         0.1400 
     63 CB         -1.8924  -12.0412  -44.3890 C.3       2 UNK        -0.1800 
     64 N          -0.2220  -13.0403  -42.8779 N.am      2 UNK        -0.5000 
     65 C          -0.7459  -13.7897  -41.9039 C.2       1 UNK         0.5000 
     66 O          -1.8171  -13.5213  -41.3573 O.2       1 UNK        -0.5000 
     67 C          -2.3522  -23.4148  -46.1038 C.2       11 UNK         0.5000 
     68 O          -1.5915  -23.4927  -47.0734 O.2       11 UNK        -0.5000 
     69 N          -3.6764  -23.5931  -46.1928 N.am      12 UNK        -0.5000 
     70 CA         -4.4365  -23.8109  -47.4226 C.3       12 UNK         0.1400 
     71 CB         -5.9275  -23.9358  -47.0800 C.3       12 UNK        -0.1800 
     72 C          -3.9735  -25.0254  -48.2425 C.2       12 UNK         0.5000 
     73 O          -4.0021  -24.9595  -49.4699 O.2       12 UNK        -0.5000 
     74 N          -3.5316  -26.0918  -47.5619 N.am      13 UNK        -0.5000 
     75 CA         -3.0196  -27.3204  -48.1714 C.3       13 UNK         0.1400 
     76 CB         -2.7510  -28.3592  -47.0724 C.3       13 UNK        -0.1800 
     77 C          -1.7586  -27.0909  -49.0249 C.2       13 UNK         0.5000 
     78 O          -1.6758  -27.6110  -50.1381 O.2       13 UNK        -0.5000 
     79 N          -0.8246  -26.2772  -48.5121 N.am      14 UNK        -0.5000 
     80 CA          0.3981  -25.8782  -49.2149 C.3       14 UNK         0.1400 
     81 CB          1.3757  -25.2573  -48.2099 C.3       14 UNK        -0.1800 
     82 C           0.1210  -24.9004  -50.3710 C.2       14 UNK         0.5000 
     83 O           0.8601  -24.8909  -51.3550 O.2       14 UNK        -0.5000 
     84 N          -0.9622  -24.1259  -50.2426 N.am      15 UNK        -0.5000 
     85 CA         -1.4742  -23.1940  -51.2445 C.3       15 UNK         0.1400 
     86 CB         -2.1330  -22.0190  -50.5085 C.3       15 UNK        -0.1800 
     87 C          -2.4401  -23.8550  -52.2535 C.2       15 UNK         0.5000 
     88 O          -3.1563  -23.1349  -52.9511 O.2       15 UNK        -0.5000 
     89 N          -2.4505  -25.1967  -52.3127 N.am      16 UNK        -0.5000 
     90 CA         -3.2209  -26.0502  -53.2235 C.3       16 UNK         0.1400 
     91 CB         -2.7569  -25.8455  -54.6812 C.3       16 UNK        -0.1800 
     92 C          -4.7428  -25.8882  -53.0426 C.2       16 UNK         0.5000 
     93 O          -5.4523  -25.5582  -53.9925 O.2       16 UNK        -0.5000 
     94 N          -5.2040  -26.0927  -51.8013 N.am      17 UNK        -0.5000 
     95 CA         -6.5750  -25.8836  -51.3160 C.3       17 UNK         0.1400 
     96 CB         -7.5755  -26.8267  -52.0164 C.3       17 UNK        -0.1800 
     97 C          -6.9815  -24.3964  -51.3782 C.2       17 UNK         0.5000 
     98 O          -8.1127  -24.0683  -51.7389 O.2       17 UNK        -0.5000 
     99 N          -6.0163  -23.5305  -51.0369 N.am      18 UNK        -0.5000 
    100 CA        -6.0646  -22.0661  -51.0592 C.3       18 UNK         0.1400 
    101 CB        -7.0618  -21.5233  -50.0157 C.3       18 UNK        -0.1800 
    102 C         -6.2690  -21.4492  -52.4601 C.2       18 UNK         0.5000 
    103 O         -6.6346  -20.2763  -52.5526 O.2       18 UNK        -0.5000 
    104 N         -5.9797  -22.2118  -53.5255 N.am      19 UNK        -0.5000 
    105 CA        -6.0020  -21.7489  -54.9156 C.3       19 UNK         0.1400 
    106 CB        -5.8191  -22.9418  -55.8630 C.3       19 UNK        -0.1800 
    107 C         -4.9408  -20.6696  -55.1962 C.2       19 UNK         0.5000 
    108 O         -5.2033  -19.7460  -55.9666 O.2       19 UNK        -0.5000 
    109 N         -3.7911  -20.7609  -54.5136 N.am      20 UNK        -0.5000 
    110 CA        -2.7253  -19.7565  -54.5073 C.3       20 UNK         0.1400 
    111 CB        -1.3777  -20.4634  -54.2777 C.3       20 UNK        -0.1800 
    112 C         -2.9884  -18.6362  -53.4738 C.2       20 UNK         0.5000 
    113 O         -2.0540  -18.1749  -52.8176 O.2       20 UNK        -0.5000 
    114 N         -4.2611  -18.2391  -53.3168 N.am      21 UNK        -0.5000 
    115 CA        -4.7757  -17.1764  -52.4412 C.3       21 UNK         0.1400 
    116 CB        -4.3177  -15.7967  -52.9584 C.3       21 UNK        -0.1800 
    117 C         -4.4548  -17.3811  -50.9436 C.2       21 UNK         0.5000 
    118 O         -4.3187  -16.4044  -50.2053 O.2       21 UNK        -0.5000 
    119 N         -4.3232  -18.6493  -50.5301 N.am      22 UNK        -0.5000 
    120 CA        -3.8314  -19.0760  -49.2076 C.3       22 UNK         0.1400 
    121 C         -2.3167  -18.7714  -48.9640 C.2       22 UNK         0.5000 
    122 N         -1.5272  -18.4641  -49.9859 N.am      22 UNK        -0.7600 
    123 O         -1.8317  -18.8438  -47.8413 O.2       22 UNK        -0.5000 
    124 C124       -4.7673  -18.6156  -48.0521 C.3       23 UNK        -0.0398 
    125 S125       -4.6835  -19.6975  -46.5817 S.3       23 UNK        -0.2404 
    126 C126       -4.0859  -18.5204  -45.3181 C.3       23 UNK        -0.0205 
    127 H127        4.0545  -14.7948  -41.2540 H         1 UNK         0.0600 
    128 H128        4.2164  -13.8511  -42.7389 H         1 UNK         0.0600 
    129 H129        4.2978  -15.6149  -42.7993 H         1 UNK         0.0600 
    130 H130        1.9615  -14.8556  -40.5643 H         1 UNK         0.3000 
    131 H131       -0.1695  -15.0807  -40.3436 H         1 UNK         0.0600 
    132 H132       -1.5726  -16.3707  -42.0053 H         1 UNK         0.0800 
    133 H133       -0.2144  -16.3846  -43.1022 H         1 UNK         0.0800 
    134 H134        0.6395  -19.9544  -42.1586 H         1 UNK         0.0800 
    135 H135        0.5991  -18.7177  -43.3765 H         1 UNK         0.0800 
    136 H136       -1.5545  -18.0498  -44.4133 H         1 UNK         0.1150 
    137 H137       -4.9654  -20.5521  -43.7171 H         1 UNK         0.1150 
    138 H138       -1.4125  -21.0587  -41.3693 H         1 UNK         0.1150 
    139 H139       -3.2607  -22.5196  -40.9903 H         1 UNK         0.0800 
    140 H140       -4.8434  -21.8946  -41.3921 H         1 UNK         0.0800 
    141 H141       -1.7612  -23.7779  -42.6434 H         1 UNK         0.0800 
    142 H142       -2.3342  -24.9639  -43.7728 H         1 UNK         0.0800 
    143 H143       -2.1320  -22.0142  -44.5681 H         1 UNK         0.0600 
    144 H144        0.0279  -22.0158  -44.6841 H         1 UNK         0.3000 
    145 H145        2.1635  -22.9702  -43.8111 H         1 UNK         0.0600 
    146 H146        4.0028  -24.4259  -44.5551 H         1 UNK         0.0600 
    147 H147        2.7403  -25.3906  -43.8098 H         1 UNK         0.0600 
    148 H148        2.9062  -25.3690  -45.5601 H         1 UNK         0.0600 
    149 H149        2.8945  -23.1643  -46.6041 H         1 UNK         0.3000 
    150 H150        3.4584  -21.1869  -47.6336 H         1 UNK         0.0600 
    151 H151        1.2825  -21.9742  -48.6151 H         1 UNK         0.0600 
    152 H152        1.7946  -20.4663  -49.3581 H         1 UNK         0.0600 
    153 H153        0.5155  -20.4636  -48.1463 H         1 UNK         0.0600 
    154 H154        2.1069  -18.6755  -47.5918 H         1 UNK         0.3000 
    155 H155        3.5218  -17.0332  -45.0211 H         1 UNK         0.0600 
    156 H156        5.0873  -16.7451  -47.6408 H         1 UNK         0.0600 
    157 H157        5.7896  -17.0100  -46.0490 H         1 UNK         0.0600 
    158 H158        4.9420  -15.5102  -46.3898 H         1 UNK         0.0600 
    159 H159        2.7400  -15.9817  -47.5674 H         1 UNK         0.3000 
    160 H160       -0.6178  -16.5834  -47.5016 H         1 UNK         0.0600 
    161 H161       -1.1691  -14.1837  -47.0863 H         1 UNK         0.0600 
    162 H162        0.3354  -13.9989  -46.1766 H         1 UNK         0.0600 
    163 H163       -0.9236  -15.0693  -45.5879 H         1 UNK         0.0600 
    164 H164        0.8464  -14.3920  -48.6224 H         1 UNK         0.3000 
    165 H165        2.2994  -16.1136  -51.3316 H         1 UNK         0.0600 
    166 H166        0.7223  -14.8522  -52.7803 H         1 UNK         0.0600 
    167 H167       -0.0871  -16.2366  -52.0646 H         1 UNK         0.0600 
    168 H168       -0.3834  -14.6265  -51.4235 H         1 UNK         0.0600 
    169 H169        1.6837  -13.3502  -50.9263 H         1 UNK         0.3000 
    170 H170        4.3964  -12.5160  -48.8262 H         1 UNK         0.0600 
    171 H171        5.5426  -12.7343  -51.0366 H         1 UNK         0.0600 
    172 H172        4.1440  -12.0368  -51.8447 H         1 UNK         0.0600 
    173 H173        5.0910  -11.0683  -50.7142 H         1 UNK         0.0600 
    174 H174        2.5997  -10.8720  -50.2756 H         1 UNK         0.3000 
    175 H175        1.0228   -9.7202  -49.1934 H         1 UNK         0.0600 
    176 H176       -0.9424  -11.9540  -48.4297 H         1 UNK         0.0600 
    177 H177       -1.3759  -10.3803  -49.0970 H         1 UNK         0.0600 
    178 H178       -0.4717  -11.5285  -50.0707 H         1 UNK         0.0600 
    179 H179       -0.3083  -10.3341  -46.7045 H         1 UNK         0.3000 
    180 H180        1.9201   -8.7977  -44.5124 H         1 UNK         0.0600 
    181 H181       -0.5408   -7.3533  -45.6342 H         1 UNK         0.0600 
    182 H182        1.0797   -6.6777  -45.5215 H         1 UNK         0.0600 
    183 H183        0.1960   -7.0707  -44.0561 H         1 UNK         0.0600 
    184 H184       -0.8923   -9.4135  -44.3502 H         1 UNK         0.3000 
    185 H185       -1.1500  -11.2053  -42.5374 H         1 UNK         0.0600 
    186 H186       -2.6493  -12.7089  -43.9775 H         1 UNK         0.0600 
    187 H187       -2.3996  -11.1155  -44.6616 H         1 UNK         0.0600 
    188 H188       -1.5166  -12.4876  -45.3080 H         1 UNK         0.0600 
    189 H189        0.6676  -13.3219  -43.2848 H         1 UNK         0.3000 
    190 H190       -4.2193  -23.5062  -45.3430 H         1 UNK         0.3000 
    191 H191       -4.3067  -22.9244  -48.0454 H         1 UNK         0.0600 
    192 H192       -6.5239  -24.1155  -47.9756 H         1 UNK         0.0600 
    193 H193       -6.3024  -23.0218  -46.6186 H         1 UNK         0.0600 
    194 H194       -6.1146  -24.7608  -46.3915 H         1 UNK         0.0600 
    195 H195       -3.5355  -26.0503  -46.5536 H         1 UNK         0.3000 
    196 H196       -3.7971  -27.7141  -48.8295 H         1 UNK         0.0600 
    197 H197       -2.3799  -29.2921  -47.4990 H         1 UNK         0.0600 
    198 H198       -3.6618  -28.5950  -46.5217 H         1 UNK         0.0600 
    199 H199       -2.0074  -28.0065  -46.3563 H         1 UNK         0.0600 
    200 H200       -0.9895  -25.8462  -47.6121 H         1 UNK         0.3000 
    201 H201        0.8621  -26.7722  -49.6369 H         1 UNK         0.0600 
    202 H202        0.9574  -24.3609  -47.7522 H         1 UNK         0.0600 
    203 H203        2.3127  -24.9775  -48.6927 H         1 UNK         0.0600 
    204 H204        1.6136  -25.9634  -47.4150 H         1 UNK         0.0600 
    205 H205       -1.5002  -24.2034  -49.3891 H         1 UNK         0.3000 
    206 H206       -0.6379  -22.7978  -51.8233 H         1 UNK         0.0600 
    207 H207       -1.4177  -21.5255  -49.8502 H         1 UNK         0.0600 
    208 H208       -2.5061  -21.2659  -51.2028 H         1 UNK         0.0600 
    209 H209       -2.9676  -22.3551  -49.8961 H         1 UNK         0.0600 
    210 H210       -1.8611  -25.6912  -51.6572 H         1 UNK         0.3000 
    211 H211       -2.9885  -27.0803  -52.9492 H         1 UNK         0.0600 
    212 H212       -1.6872  -26.0286  -54.7819 H         1 UNK         0.0600 
    213 H213       -2.9568  -24.8343  -55.0358 H         1 UNK         0.0600 
    214 H214       -3.2688  -26.5343  -55.3540 H         1 UNK         0.0600 
    215 H215       -4.5180  -26.2472  -51.0719 H         1 UNK         0.3000 
    216 H216       -6.5648  -26.1484  -50.2576 H         1 UNK         0.0600 
    217 H217       -8.5573  -26.7699  -51.5452 H         1 UNK         0.0600 
    218 H218       -7.2470  -27.8642  -51.9568 H         1 UNK         0.0600 
    219 H219       -7.7066  -26.5755  -53.0691 H         1 UNK         0.0600 
    220 H220       -5.1343  -23.9364  -50.7399 H         1 UNK         0.3000 
    221 H221       -5.0731  -21.7396  -50.7504 H         1 UNK         0.0600 
    222 H222       -8.0904  -21.7859  -50.2634 H         1 UNK         0.0600 
    223 H223       -6.8446  -21.9117  -49.0217 H         1 UNK         0.0600 
    224 H224       -7.0102  -20.4360  -49.9485 H         1 UNK         0.0600 
    225 H225       -5.6427  -23.1532  -53.3705 H         1 UNK         0.3000 
    226 H226       -6.9830  -21.3088  -55.1061 H         1 UNK         0.0600 
    227 H227       -5.8606  -22.6241  -56.9056 H         1 UNK         0.0600 
    228 H228       -4.8584  -23.4333  -55.7067 H         1 UNK         0.0600 
    229 H229       -6.6040  -23.6843  -55.7178 H         1 UNK         0.0600 
    230 H230       -3.6527  -21.5699  -53.9116 H         1 UNK         0.3000 
    231 H231       -2.6813  -19.2781  -55.4877 H         1 UNK         0.0600 
    232 H232       -1.2214  -21.2623  -55.0028 H         1 UNK         0.0600 
    233 H233       -1.3173  -20.8991  -53.2814 H         1 UNK         0.0600 
    234 H234       -0.5462  -19.7652  -54.3805 H         1 UNK         0.0600 
    235 H235       -4.9602  -18.7026  -53.8826 H         1 UNK         0.3000 
    236 H236       -5.8628  -17.2173  -52.5227 H         1 UNK         0.0600 
    237 H237       -4.5666  -15.6676  -54.0117 H         1 UNK         0.0600 
    238 H238       -4.8053  -14.9892  -52.4111 H         1 UNK         0.0600 
    239 H239       -3.2408  -15.6626  -52.8490 H         1 UNK         0.0600 
    240 H240       -4.4558  -19.3734  -51.2189 H         1 UNK         0.3000 
    241 H241       -3.8868  -20.1631  -49.2389 H         1 UNK         0.0600 
    242 H242       -1.8722  -18.3816  -50.9370 H         1 UNK         0.3800 
    243 H243       -0.5525  -18.2494  -49.7949 H         1 UNK         0.3800 
    244 H244       -4.5675  -17.5777  -47.7830 H         1 UNK         0.0800 
    245 H245       -5.8045  -18.6358  -48.3889 H         1 UNK         0.0800 
    246 H246       -3.4254  -17.7904  -45.7888 H         1 UNK         0.0800 
    247 H247       -4.9320  -17.9621  -44.9159 H         1 UNK         0.0800 
@<TRIPOS>BOND
     1    1    2 1    
     2    1  127 1    
     3    1  128 1    
     4    1  129 1    
     5    2    3 2    
     6    2    4 am   BACKBONE|DICT|INTERRES
     7    4    5 1    
     8    4  130 1    
     9    5    6 1    
    10    5   65 1    
    11    5  131 1    
    12    6    7 1    
    13    6  132 1    
    14    6  133 1    
    15    7    8 1    
    16    8    9 1    
    17    8  134 1    
    18    8  135 1    
    19    9   10 ar   
    20    9   14 ar   
    21   10   11 ar   
    22   10  136 1    
    23   11   12 ar   
    24   11  126 1    
    25   12   13 ar   
    26   12  137 1    
    27   13   14 ar   
    28   13   15 1    
    29   14  138 1    
    30   15   16 1    
    31   15  139 1    
    32   15  140 1    
    33   16   17 1    
    34   17   18 1    
    35   17  141 1    
    36   17  142 1    
    37   18   19 1    
    38   18   67 1    
    39   18  143 1    
    40   19   20 am   BACKBONE|DICT|INTERRES
    41   19  144 1    
    42   20   21 2    
    43   20   22 1    
    44   22   23 1    
    45   22   24 1    
    46   22  145 1    
    47   23  146 1    
    48   23  147 1    
    49   23  148 1    
    50   24   25 am   BACKBONE|DICT|INTERRES
    51   24  149 1    
    52   25   26 2    
    53   25   27 1    
    54   27   28 1    
    55   27   29 1    
    56   27  150 1    
    57   28  151 1    
    58   28  152 1    
    59   28  153 1    
    60   29   30 am   BACKBONE|DICT|INTERRES
    61   29  154 1    
    62   30   31 2    
    63   30   32 1    
    64   32   33 1    
    65   32   34 1    
    66   32  155 1    
    67   33  156 1    
    68   33  157 1    
    69   33  158 1    
    70   34   35 am   BACKBONE|DICT|INTERRES
    71   34  159 1    
    72   35   36 2    
    73   35   37 1    
    74   37   38 1    
    75   37   39 1    
    76   37  160 1    
    77   38  161 1    
    78   38  162 1    
    79   38  163 1    
    80   39   40 am   BACKBONE|DICT|INTERRES
    81   39  164 1    
    82   40   41 2    
    83   40   42 1    
    84   42   43 1    
    85   42   44 1    
    86   42  165 1    
    87   43  166 1    
    88   43  167 1    
    89   43  168 1    
    90   44   45 am   BACKBONE|DICT|INTERRES
    91   44  169 1    
    92   45   46 2    
    93   45   47 1    
    94   47   48 1    
    95   47   49 1    
    96   47  170 1    
    97   48  171 1    
    98   48  172 1    
    99   48  173 1    
   100   49   50 am   BACKBONE|DICT|INTERRES
   101   49  174 1    
   102   50   51 2    
   103   50   52 1    
   104   52   53 1    
   105   52   54 1    
   106   52  175 1    
   107   53  176 1    
   108   53  177 1    
   109   53  178 1    
   110   54   55 am   BACKBONE|DICT|INTERRES
   111   54  179 1    
   112   55   56 2    
   113   55   57 1    
   114   57   58 1    
   115   57   59 1    
   116   57  180 1    
   117   58  181 1    
   118   58  182 1    
   119   58  183 1    
   120   59   60 am   BACKBONE|DICT|INTERRES
   121   59  184 1    
   122   60   61 2    
   123   60   62 1    
   124   62   63 1    
   125   62   64 1    
   126   62  185 1    
   127   63  186 1    
   128   63  187 1    
   129   63  188 1    
   130   64   65 am   BACKBONE|DICT|INTERRES
   131   64  189 1    
   132   65   66 2    
   133   67   68 2    
   134   67   69 am   BACKBONE|DICT|INTERRES
   135   69   70 1    
   136   69  190 1    
   137   70   71 1    
   138   70   72 1    
   139   70  191 1    
   140   71  192 1    
   141   71  193 1    
   142   71  194 1    
   143   72   73 2    
   144   72   74 am   BACKBONE|DICT|INTERRES
   145   74   75 1    
   146   74  195 1    
   147   75   76 1    
   148   75   77 1    
   149   75  196 1    
   150   76  197 1    
   151   76  198 1    
   152   76  199 1    
   153   77   78 2    
   154   77   79 am   BACKBONE|DICT|INTERRES
   155   79   80 1    
   156   79  200 1    
   157   80   81 1    
   158   80   82 1    
   159   80  201 1    
   160   81  202 1    
   161   81  203 1    
   162   81  204 1    
   163   82   83 2    
   164   82   84 am   BACKBONE|DICT|INTERRES
   165   84   85 1    
   166   84  205 1    
   167   85   86 1    
   168   85   87 1    
   169   85  206 1    
   170   86  207 1    
   171   86  208 1    
   172   86  209 1    
   173   87   88 2    
   174   87   89 am   BACKBONE|DICT|INTERRES
   175   89   90 1    
   176   89  210 1    
   177   90   91 1    
   178   90   92 1    
   179   90  211 1    
   180   91  212 1    
   181   91  213 1    
   182   91  214 1    
   183   92   93 2    
   184   92   94 am   BACKBONE|DICT|INTERRES
   185   94   95 1    
   186   94  215 1    
   187   95   96 1    
   188   95   97 1    
   189   95  216 1    
   190   96  217 1    
   191   96  218 1    
   192   96  219 1    
   193   97   98 2    
   194   97   99 am   BACKBONE|DICT|INTERRES
   195   99  100 1    
   196   99  220 1    
   197  100  101 1    
   198  100  102 1    
   199  100  221 1    
   200  101  222 1    
   201  101  223 1    
   202  101  224 1    
   203  102  103 2    
   204  102  104 am   BACKBONE|DICT|INTERRES
   205  104  105 1    
   206  104  225 1    
   207  105  106 1    
   208  105  107 1    
   209  105  226 1    
   210  106  227 1    
   211  106  228 1    
   212  106  229 1    
   213  107  108 2    
   214  107  109 am   BACKBONE|DICT|INTERRES
   215  109  110 1    
   216  109  230 1    
   217  110  111 1    
   218  110  112 1    
   219  110  231 1    
   220  111  232 1    
   221  111  233 1    
   222  111  234 1    
   223  112  113 2    
   224  112  114 am   BACKBONE|DICT|INTERRES
   225  114  115 1    
   226  114  235 1    
   227  115  116 1    
   228  115  117 1    
   229  115  236 1    
   230  116  237 1    
   231  116  238 1    
   232  116  239 1    
   233  117  118 2    
   234  117  119 am   BACKBONE|DICT|INTERRES
   235  119  120 1    
   236  119  240 1    
   237  120  121 1    
   238  120  124 1    
   239  120  241 1    
   240  121  122 am   BACKBONE|DICT|INTERRES
   241  121  123 2    
   242  122  242 1    
   243  122  243 1    
   244  124  125 1    
   245  124  244 1    
   246  124  245 1    
   247  125  126 1    
   248  126  246 1    
   249  126  247 1    
@<TRIPOS>SUBSTRUCTURE
     1 UNK         1 GROUP             0       ****    0 ROOT    
