@<TRIPOS>MOLECULE
3R540
247   249    1
SMALL
USER_CHARGES


@<TRIPOS>ATOM
      1 CA         -0.4779  -16.8848  -50.7838 C.3       0 UNK        -0.1800 
      2 C          -0.0905  -15.6874  -49.9320 C.2       0 UNK         0.5000 
      3 O          -0.6094  -15.5459  -48.8261 O.2       0 UNK        -0.5000 
      4 N           0.8113  -14.8431  -50.4578 N.am      1 UNK        -0.5000 
      5 CA          1.3995  -13.6384  -49.8511 C.3       1 UNK         0.1400 
      6 C6          2.7173  -13.8932  -49.0574 C.3       23 UNK        -0.0398 
      7 S7          2.6976  -15.2694  -47.8529 S.3       23 UNK        -0.2404 
      8 C8          3.9412  -16.4109  -48.5418 C.3       23 UNK        -0.0205 
      9 C9          3.4277  -17.2394  -49.7131 C.ar      23 UNK        -0.0193 
     10 C10         3.5215  -16.7475  -51.0176 C.ar      23 UNK        -0.1150 
     11 C11         3.1155  -17.5240  -52.1055 C.ar      23 UNK        -0.0193 
     12 C12         2.6202  -18.8118  -51.8818 C.ar      23 UNK        -0.1150 
     13 C13         2.5284  -19.3243  -50.5840 C.ar      23 UNK        -0.0193 
     14 C14         2.9268  -18.5291  -49.5028 C.ar      23 UNK        -0.1150 
     15 C15         2.0633  -20.7598  -50.3705 C.3       23 UNK        -0.0205 
     16 S16         0.2625  -20.8898  -50.1322 S.3       23 UNK        -0.2404 
     17 C17         0.1272  -20.6562  -48.3293 C.3       23 UNK        -0.0398 
     18 CA         -0.0358  -21.9942  -47.5576 C.3       11 UNK         0.1400 
     19 N           0.5276  -21.9302  -46.2033 N.am      11 UNK        -0.5000 
     20 C           0.5946  -22.9562  -45.3402 C.2       10 UNK         0.5000 
     21 O           0.2514  -24.1049  -45.6156 O.2       10 UNK        -0.5000 
     22 CA          1.0724  -22.6409  -43.9096 C.3       10 UNK         0.1400 
     23 CB          2.6056  -22.6043  -43.8352 C.3       10 UNK        -0.1800 
     24 N           0.5189  -21.3872  -43.3960 N.am      10 UNK        -0.5000 
     25 C          -0.7865  -21.1649  -43.1823 C.2       9 UNK         0.5000 
     26 O          -1.6561  -22.0244  -43.3183 O.2       9 UNK        -0.5000 
     27 CA         -1.1982  -19.7232  -42.8292 C.3       9 UNK         0.1400 
     28 CB         -0.9995  -19.4329  -41.3345 C.3       9 UNK        -0.1800 
     29 N          -0.4760  -18.7346  -43.6309 N.am      9 UNK        -0.5000 
     30 C          -0.5733  -18.6340  -44.9648 C.2       8 UNK         0.5000 
     31 O          -1.3412  -19.3107  -45.6479 O.2       8 UNK        -0.5000 
     32 CA          0.3823  -17.6505  -45.6545 C.3       8 UNK         0.1400 
     33 CB         -0.2028  -16.2371  -45.6111 C.3       8 UNK        -0.1800 
     34 N           1.7133  -17.6706  -45.0436 N.am      8 UNK        -0.5000 
     35 C           2.5840  -18.6808  -45.1886 C.2       7 UNK         0.5000 
     36 O           2.3696  -19.6609  -45.8991 O.2       7 UNK        -0.5000 
     37 CA          3.8876  -18.6223  -44.3685 C.3       7 UNK         0.1400 
     38 CB          4.9931  -17.8860  -45.1362 C.3       7 UNK        -0.1800 
     39 N           3.7075  -17.9891  -43.0644 N.am      7 UNK        -0.5000 
     40 C           2.9862  -18.5069  -42.0607 C.2       6 UNK         0.5000 
     41 O           2.4396  -19.6078  -42.1133 O.2       6 UNK        -0.5000 
     42 CA          2.8039  -17.6186  -40.8144 C.3       6 UNK         0.1400 
     43 CB          3.9026  -17.9057  -39.7808 C.3       6 UNK        -0.1800 
     44 N           2.8023  -16.1884  -41.1401 N.am      6 UNK        -0.5000 
     45 C           1.8636  -15.5904  -41.8852 C.2       5 UNK         0.5000 
     46 O           0.8742  -16.1772  -42.3297 O.2       5 UNK        -0.5000 
     47 CA          2.1340  -14.1277  -42.2746 C.3       5 UNK         0.1400 
     48 CB          2.8231  -14.0696  -43.6482 C.3       5 UNK        -0.1800 
     49 N           0.9023  -13.3441  -42.3237 N.am      5 UNK        -0.5000 
     50 C           0.2519  -12.8939  -41.2408 C.2       4 UNK         0.5000 
     51 O           0.6477  -13.0780  -40.0885 O.2       4 UNK        -0.5000 
     52 CA         -1.0413  -12.0813  -41.4644 C.3       4 UNK         0.1400 
     53 CB         -0.7556  -10.5763  -41.3426 C.3       4 UNK        -0.1800 
     54 N          -1.6741  -12.3342  -42.7579 N.am      4 UNK        -0.5000 
     55 C          -2.3062  -13.4664  -43.0907 C.2       3 UNK         0.5000 
     56 O          -2.5125  -14.3869  -42.2994 O.2       3 UNK        -0.5000 
     57 CA         -2.7939  -13.6027  -44.5484 C.3       3 UNK         0.1400 
     58 CB         -4.3172  -13.4120  -44.6193 C.3       3 UNK        -0.1800 
     59 N          -2.1652  -12.7090  -45.5318 N.am      3 UNK        -0.5000 
     60 C          -0.8563  -12.6192  -45.8037 C.2       2 UNK         0.5000 
     61 O           0.0282  -13.1541  -45.1347 O.2       2 UNK        -0.5000 
     62 CA         -0.4604  -11.7701  -47.0145 C.3       2 UNK         0.1400 
     63 CB          0.2290  -10.4699  -46.5711 C.3       2 UNK        -0.1800 
     64 N           0.4598  -12.5558  -47.8307 N.am      2 UNK        -0.5000 
     65 C           0.3639  -12.7220  -49.1548 C.2       1 UNK         0.5000 
     66 O          -0.4929  -12.1678  -49.8479 O.2       1 UNK        -0.5000 
     67 C          -1.5069  -22.4559  -47.5339 C.2       11 UNK         0.5000 
     68 O          -1.8554  -23.4217  -48.2136 O.2       11 UNK        -0.5000 
     69 N          -2.3222  -21.7890  -46.7043 N.am      12 UNK        -0.5000 
     70 CA         -3.7332  -22.0990  -46.4795 C.3       12 UNK         0.1400 
     71 CB         -4.3556  -21.0248  -45.5759 C.3       12 UNK        -0.1800 
     72 C          -3.9589  -23.5057  -45.8998 C.2       12 UNK         0.5000 
     73 O          -4.8721  -24.1981  -46.3438 O.2       12 UNK        -0.5000 
     74 N          -3.1145  -23.9236  -44.9482 N.am      13 UNK        -0.5000 
     75 CA         -3.1434  -25.2647  -44.3631 C.3       13 UNK         0.1400 
     76 CB         -2.1974  -25.3194  -43.1540 C.3       13 UNK        -0.1800 
     77 C          -2.7960  -26.3713  -45.3778 C.2       13 UNK         0.5000 
     78 O          -3.4170  -27.4346  -45.3494 O.2       13 UNK        -0.5000 
     79 N          -1.8152  -26.1039  -46.2494 N.am      14 UNK        -0.5000 
     80 CA         -1.3380  -27.0362  -47.2660 C.3       14 UNK         0.1400 
     81 CB          0.0699  -26.6186  -47.7210 C.3       14 UNK        -0.1800 
     82 C          -2.2867  -27.1514  -48.4716 C.2       14 UNK         0.5000 
     83 O          -2.6560  -28.2663  -48.8438 O.2       14 UNK        -0.5000 
     84 N          -2.6281  -26.0105  -49.0843 N.am      15 UNK        -0.5000 
     85 CA         -3.2937  -25.9527  -50.3881 C.3       15 UNK         0.1400 
     86 CB         -2.5932  -24.8881  -51.2483 C.3       15 UNK        -0.1800 
     87 C          -4.8084  -25.6917  -50.3099 C.2       15 UNK         0.5000 
     88 O          -5.4786  -25.8089  -51.3368 O.2       15 UNK        -0.5000 
     89 N          -5.3371  -25.3492  -49.1252 N.am      16 UNK        -0.5000 
     90 CA         -6.7451  -25.0169  -48.8736 C.3       16 UNK         0.1400 
     91 CB         -7.6345  -26.2745  -49.0100 C.3       16 UNK        -0.1800 
     92 C          -7.1958  -23.8158  -49.7322 C.2       16 UNK         0.5000 
     93 O          -6.5508  -22.7673  -49.6846 O.2       16 UNK        -0.5000 
     94 N          -8.2633  -23.9838  -50.5238 N.am      17 UNK        -0.5000 
     95 CA         -8.7923  -22.9728  -51.4427 C.3       17 UNK         0.1400 
     96 CB        -10.1281  -23.4693  -52.0158 C.3       17 UNK        -0.1800 
     97 C          -7.8233  -22.5978  -52.5827 C.2       17 UNK         0.5000 
     98 O          -7.9030  -21.4824  -53.0982 O.2       17 UNK        -0.5000 
     99 N          -6.9076  -23.5108  -52.9398 N.am      18 UNK        -0.5000 
    100 CA        -5.8941  -23.3042  -53.9763 C.3       18 UNK         0.1400 
    101 CB        -5.4313  -24.6658  -54.5205 C.3       18 UNK        -0.1800 
    102 C         -4.6990  -22.4472  -53.5095 C.2       18 UNK         0.5000 
    103 O         -3.8234  -22.1646  -54.3261 O.2       18 UNK        -0.5000 
    104 N         -4.6756  -22.0372  -52.2309 N.am      19 UNK        -0.5000 
    105 CA        -3.6906  -21.1062  -51.6723 C.3       19 UNK         0.1400 
    106 CB        -3.7628  -21.1620  -50.1399 C.3       19 UNK        -0.1800 
    107 C         -3.9005  -19.6523  -52.1377 C.2       19 UNK         0.5000 
    108 O         -2.9689  -18.8519  -52.0492 O.2       19 UNK        -0.5000 
    109 N         -5.1180  -19.3256  -52.5995 N.am      20 UNK        -0.5000 
    110 CA        -5.5087  -18.0083  -53.1005 C.3       20 UNK         0.1400 
    111 CB        -6.9970  -18.0353  -53.4789 C.3       20 UNK        -0.1800 
    112 C         -4.6455  -17.5800  -54.3004 C.2       20 UNK         0.5000 
    113 O         -4.5091  -18.3502  -55.2537 O.2       20 UNK        -0.5000 
    114 N         -4.0499  -16.3820  -54.2077 N.am      21 UNK        -0.5000 
    115 CA        -3.1076  -15.7956  -55.1717 C.3       21 UNK         0.1400 
    116 CB        -3.8450  -15.3888  -56.4649 C.3       21 UNK        -0.1800 
    117 C         -1.8749  -16.6919  -55.4357 C.2       21 UNK         0.5000 
    118 O         -1.4097  -16.7817  -56.5729 O.2       21 UNK        -0.5000 
    119 N         -1.3982  -17.3571  -54.3736 N.am      22 UNK        -0.5000 
    120 CA        -0.3345  -18.3787  -54.3678 C.3       22 UNK         0.1400 
    121 C         -0.7713  -19.7678  -54.9229 C.2       22 UNK         0.5000 
    122 N         -2.0319  -19.9852  -55.2740 N.am      22 UNK        -0.7600 
    123 O          0.0415  -20.6853  -54.9951 O.2       22 UNK        -0.5000 
    124 C124        1.0154  -17.9025  -54.9781 C.3       23 UNK        -0.0398 
    125 S125        1.6799  -16.3882  -54.1978 S.3       23 UNK        -0.2404 
    126 C126        3.2623  -16.9801  -53.5190 C.3       23 UNK        -0.0205 
    127 H127       -0.3696  -17.8064  -50.2117 H         1 UNK         0.0600 
    128 H128        0.1507  -16.9632  -51.6687 H         1 UNK         0.0600 
    129 H129       -1.5158  -16.7968  -51.1028 H         1 UNK         0.0600 
    130 H130        1.1572  -15.0510  -51.3834 H         1 UNK         0.3000 
    131 H131        1.7063  -13.0448  -50.7140 H         1 UNK         0.0600 
    132 H132        3.0365  -12.9891  -48.5363 H         1 UNK         0.0800 
    133 H133        3.5182  -14.0759  -49.7718 H         1 UNK         0.0800 
    134 H134        4.2602  -17.0826  -47.7478 H         1 UNK         0.0800 
    135 H135        4.8334  -15.8549  -48.8332 H         1 UNK         0.0800 
    136 H136        3.9325  -15.7644  -51.1923 H         1 UNK         0.1150 
    137 H137        2.3249  -19.4271  -52.7194 H         1 UNK         0.1150 
    138 H138        2.8811  -18.9234  -48.4980 H         1 UNK         0.1150 
    139 H139        2.3371  -21.3625  -51.2378 H         1 UNK         0.0800 
    140 H140        2.5864  -21.2069  -49.5235 H         1 UNK         0.0800 
    141 H141       -0.6948  -19.9666  -48.1319 H         1 UNK         0.0800 
    142 H142        1.0195  -20.1348  -47.9927 H         1 UNK         0.0800 
    143 H143        0.5377  -22.7636  -48.0791 H         1 UNK         0.0600 
    144 H144        0.8975  -21.0321  -45.9115 H         1 UNK         0.3000 
    145 H145        0.7242  -23.4455  -43.2590 H         1 UNK         0.0600 
    146 H146        2.9470  -22.4231  -42.8159 H         1 UNK         0.0600 
    147 H147        3.0239  -21.8251  -44.4713 H         1 UNK         0.0600 
    148 H148        3.0328  -23.5544  -44.1583 H         1 UNK         0.0600 
    149 H149        1.1801  -20.6451  -43.1877 H         1 UNK         0.3000 
    150 H150       -2.2615  -19.6172  -43.0541 H         1 UNK         0.0600 
    151 H151       -1.5974  -20.1124  -40.7259 H         1 UNK         0.0600 
    152 H152       -1.3061  -18.4166  -41.0857 H         1 UNK         0.0600 
    153 H153        0.0395  -19.5529  -41.0303 H         1 UNK         0.0600 
    154 H154        0.1488  -18.1064  -43.1401 H         1 UNK         0.3000 
    155 H155        0.4776  -17.9411  -46.7031 H         1 UNK         0.0600 
    156 H156       -1.1711  -16.2047  -46.1115 H         1 UNK         0.0600 
    157 H157        0.4436  -15.5310  -46.1266 H         1 UNK         0.0600 
    158 H158       -0.3472  -15.8795  -44.5922 H         1 UNK         0.0600 
    159 H159        1.9306  -16.9178  -44.4081 H         1 UNK         0.3000 
    160 H160        4.2200  -19.6487  -44.2003 H         1 UNK         0.0600 
    161 H161        4.7126  -16.8559  -45.3601 H         1 UNK         0.0600 
    162 H162        5.2087  -18.3898  -46.0789 H         1 UNK         0.0600 
    163 H163        5.9220  -17.8643  -44.5661 H         1 UNK         0.0600 
    164 H164        4.1331  -17.0839  -42.9335 H         1 UNK         0.3000 
    165 H165        1.8388  -17.8668  -40.3679 H         1 UNK         0.0600 
    166 H166        3.7433  -17.3335  -38.8666 H         1 UNK         0.0600 
    167 H167        3.9115  -18.9610  -39.5048 H         1 UNK         0.0600 
    168 H168        4.8931  -17.6584  -40.1647 H         1 UNK         0.0600 
    169 H169        3.5896  -15.6489  -40.8095 H         1 UNK         0.3000 
    170 H170        2.8017  -13.6787  -41.5361 H         1 UNK         0.0600 
    171 H171        2.2200  -14.5424  -44.4244 H         1 UNK         0.0600 
    172 H172        3.0078  -13.0397  -43.9540 H         1 UNK         0.0600 
    173 H173        3.7867  -14.5797  -43.6272 H         1 UNK         0.0600 
    174 H174        0.4956  -13.2062  -43.2447 H         1 UNK         0.3000 
    175 H175       -1.7447  -12.3602  -40.6770 H         1 UNK         0.0600 
    176 H176       -0.0658  -10.2344  -42.1153 H         1 UNK         0.0600 
    177 H177       -1.6722   -9.9921  -41.4270 H         1 UNK         0.0600 
    178 H178       -0.3091  -10.3398  -40.3758 H         1 UNK         0.0600 
    179 H179       -1.5433  -11.6354  -43.4740 H         1 UNK         0.3000 
    180 H180       -2.5706  -14.6251  -44.8565 H         1 UNK         0.0600 
    181 H181       -4.6971  -13.6267  -45.6183 H         1 UNK         0.0600 
    182 H182       -4.6058  -12.3926  -44.3604 H         1 UNK         0.0600 
    183 H183       -4.8304  -14.0835  -43.9294 H         1 UNK         0.0600 
    184 H184       -2.8072  -12.2003  -46.1223 H         1 UNK         0.3000 
    185 H185       -1.3616  -11.5186  -47.5776 H         1 UNK         0.0600 
    186 H186       -0.4339   -9.8691  -45.9474 H         1 UNK         0.0600 
    187 H187        1.1336  -10.6691  -45.9946 H         1 UNK         0.0600 
    188 H188        0.5083   -9.8609  -47.4310 H         1 UNK         0.0600 
    189 H189        1.1203  -13.1180  -47.3086 H         1 UNK         0.3000 
    190 H190       -1.9486  -20.9912  -46.1946 H         1 UNK         0.3000 
    191 H191       -4.2406  -22.0608  -47.4445 H         1 UNK         0.0600 
    192 H192       -4.2647  -20.0345  -46.0225 H         1 UNK         0.0600 
    193 H193       -3.8767  -20.9946  -44.5970 H         1 UNK         0.0600 
    194 H194       -5.4178  -21.2153  -45.4177 H         1 UNK         0.0600 
    195 H195       -2.4239  -23.2754  -44.5802 H         1 UNK         0.3000 
    196 H196       -4.1582  -25.4508  -44.0054 H         1 UNK         0.0600 
    197 H197       -2.4835  -24.5897  -42.3963 H         1 UNK         0.0600 
    198 H198       -1.1656  -25.1166  -43.4410 H         1 UNK         0.0600 
    199 H199       -2.2207  -26.3031  -42.6838 H         1 UNK         0.0600 
    200 H200       -1.3201  -25.2205  -46.1745 H         1 UNK         0.3000 
    201 H201       -1.2567  -28.0265  -46.8125 H         1 UNK         0.0600 
    202 H202        0.7734  -26.6398  -46.8884 H         1 UNK         0.0600 
    203 H203        0.0785  -25.6102  -48.1369 H         1 UNK         0.0600 
    204 H204        0.4517  -27.2948  -48.4869 H         1 UNK         0.0600 
    205 H205       -2.3031  -25.1221  -48.7042 H         1 UNK         0.3000 
    206 H206       -3.1754  -26.9068  -50.9060 H         1 UNK         0.0600 
    207 H207       -2.6416  -23.9019  -50.7914 H         1 UNK         0.0600 
    208 H208       -3.0455  -24.8149  -52.2373 H         1 UNK         0.0600 
    209 H209       -1.5409  -25.1325  -51.3931 H         1 UNK         0.0600 
    210 H210       -4.7188  -25.2316  -48.3324 H         1 UNK         0.3000 
    211 H211       -6.8216  -24.6849  -47.8396 H         1 UNK         0.0600 
    212 H212       -7.6464  -26.6694  -50.0263 H         1 UNK         0.0600 
    213 H213       -8.6646  -26.0624  -48.7210 H         1 UNK         0.0600 
    214 H214       -7.2797  -27.0700  -48.3546 H         1 UNK         0.0600 
    215 H215       -8.7266  -24.8809  -50.5228 H         1 UNK         0.3000 
    216 H216       -8.9835  -22.0650  -50.8667 H         1 UNK         0.0600 
    217 H217      -10.5662  -22.7274  -52.6849 H         1 UNK         0.0600 
    218 H218      -10.8527  -23.6575  -51.2233 H         1 UNK         0.0600 
    219 H219      -10.0036  -24.3916  -52.5848 H         1 UNK         0.0600 
    220 H220       -6.8551  -24.3845  -52.4295 H         1 UNK         0.3000 
    221 H221       -6.3595  -22.7655  -54.8044 H         1 UNK         0.0600 
    222 H222       -4.8853  -25.2399  -53.7738 H         1 UNK         0.0600 
    223 H223       -6.2771  -25.2667  -54.8547 H         1 UNK         0.0600 
    224 H224       -4.7683  -24.5373  -55.3768 H         1 UNK         0.0600 
    225 H225       -5.4190  -22.3306  -51.6093 H         1 UNK         0.3000 
    226 H226       -2.6938  -21.4234  -51.9864 H         1 UNK         0.0600 
    227 H227       -2.9458  -20.5964  -49.6904 H         1 UNK         0.0600 
    228 H228       -4.6967  -20.7414  -49.7651 H         1 UNK         0.0600 
    229 H229       -3.6947  -22.1845  -49.7738 H         1 UNK         0.0600 
    230 H230       -5.8156  -20.0536  -52.6627 H         1 UNK         0.3000 
    231 H231       -5.3727  -17.2921  -52.2877 H         1 UNK         0.0600 
    232 H232       -7.6186  -18.2910  -52.6205 H         1 UNK         0.0600 
    233 H233       -7.1981  -18.7646  -54.2650 H         1 UNK         0.0600 
    234 H234       -7.3263  -17.0607  -53.8415 H         1 UNK         0.0600 
    235 H235       -4.2132  -15.8312  -53.3762 H         1 UNK         0.3000 
    236 H236       -2.7232  -14.8840  -54.7120 H         1 UNK         0.0600 
    237 H237       -4.2142  -16.2576  -57.0108 H         1 UNK         0.0600 
    238 H238       -4.6960  -14.7435  -56.2471 H         1 UNK         0.0600 
    239 H239       -3.1850  -14.8373  -57.1354 H         1 UNK         0.0600 
    240 H240       -1.8991  -17.2718  -53.4994 H         1 UNK         0.3000 
    241 H241       -0.1496  -18.5772  -53.3123 H         1 UNK         0.0600 
    242 H242       -2.3232  -20.9187  -55.5246 H         1 UNK         0.3800 
    243 H243       -2.7340  -19.2564  -55.2170 H         1 UNK         0.3800 
    244 H244        0.9114  -17.7166  -56.0471 H         1 UNK         0.0800 
    245 H245        1.7596  -18.6954  -54.9017 H         1 UNK         0.0800 
    246 H246        3.9652  -16.1456  -53.5242 H         1 UNK         0.0800 
    247 H247        3.7033  -17.7364  -54.1696 H         1 UNK         0.0800 
@<TRIPOS>BOND
     1    1    2 1    
     2    1  127 1    
     3    1  128 1    
     4    1  129 1    
     5    2    3 2    
     6    2    4 am   BACKBONE|DICT|INTERRES
     7    4    5 1    
     8    4  130 1    
     9    5    6 1    
    10    5   65 1    
    11    5  131 1    
    12    6    7 1    
    13    6  132 1    
    14    6  133 1    
    15    7    8 1    
    16    8    9 1    
    17    8  134 1    
    18    8  135 1    
    19    9   10 ar   
    20    9   14 ar   
    21   10   11 ar   
    22   10  136 1    
    23   11   12 ar   
    24   11  126 1    
    25   12   13 ar   
    26   12  137 1    
    27   13   14 ar   
    28   13   15 1    
    29   14  138 1    
    30   15   16 1    
    31   15  139 1    
    32   15  140 1    
    33   16   17 1    
    34   17   18 1    
    35   17  141 1    
    36   17  142 1    
    37   18   19 1    
    38   18   67 1    
    39   18  143 1    
    40   19   20 am   BACKBONE|DICT|INTERRES
    41   19  144 1    
    42   20   21 2    
    43   20   22 1    
    44   22   23 1    
    45   22   24 1    
    46   22  145 1    
    47   23  146 1    
    48   23  147 1    
    49   23  148 1    
    50   24   25 am   BACKBONE|DICT|INTERRES
    51   24  149 1    
    52   25   26 2    
    53   25   27 1    
    54   27   28 1    
    55   27   29 1    
    56   27  150 1    
    57   28  151 1    
    58   28  152 1    
    59   28  153 1    
    60   29   30 am   BACKBONE|DICT|INTERRES
    61   29  154 1    
    62   30   31 2    
    63   30   32 1    
    64   32   33 1    
    65   32   34 1    
    66   32  155 1    
    67   33  156 1    
    68   33  157 1    
    69   33  158 1    
    70   34   35 am   BACKBONE|DICT|INTERRES
    71   34  159 1    
    72   35   36 2    
    73   35   37 1    
    74   37   38 1    
    75   37   39 1    
    76   37  160 1    
    77   38  161 1    
    78   38  162 1    
    79   38  163 1    
    80   39   40 am   BACKBONE|DICT|INTERRES
    81   39  164 1    
    82   40   41 2    
    83   40   42 1    
    84   42   43 1    
    85   42   44 1    
    86   42  165 1    
    87   43  166 1    
    88   43  167 1    
    89   43  168 1    
    90   44   45 am   BACKBONE|DICT|INTERRES
    91   44  169 1    
    92   45   46 2    
    93   45   47 1    
    94   47   48 1    
    95   47   49 1    
    96   47  170 1    
    97   48  171 1    
    98   48  172 1    
    99   48  173 1    
   100   49   50 am   BACKBONE|DICT|INTERRES
   101   49  174 1    
   102   50   51 2    
   103   50   52 1    
   104   52   53 1    
   105   52   54 1    
   106   52  175 1    
   107   53  176 1    
   108   53  177 1    
   109   53  178 1    
   110   54   55 am   BACKBONE|DICT|INTERRES
   111   54  179 1    
   112   55   56 2    
   113   55   57 1    
   114   57   58 1    
   115   57   59 1    
   116   57  180 1    
   117   58  181 1    
   118   58  182 1    
   119   58  183 1    
   120   59   60 am   BACKBONE|DICT|INTERRES
   121   59  184 1    
   122   60   61 2    
   123   60   62 1    
   124   62   63 1    
   125   62   64 1    
   126   62  185 1    
   127   63  186 1    
   128   63  187 1    
   129   63  188 1    
   130   64   65 am   BACKBONE|DICT|INTERRES
   131   64  189 1    
   132   65   66 2    
   133   67   68 2    
   134   67   69 am   BACKBONE|DICT|INTERRES
   135   69   70 1    
   136   69  190 1    
   137   70   71 1    
   138   70   72 1    
   139   70  191 1    
   140   71  192 1    
   141   71  193 1    
   142   71  194 1    
   143   72   73 2    
   144   72   74 am   BACKBONE|DICT|INTERRES
   145   74   75 1    
   146   74  195 1    
   147   75   76 1    
   148   75   77 1    
   149   75  196 1    
   150   76  197 1    
   151   76  198 1    
   152   76  199 1    
   153   77   78 2    
   154   77   79 am   BACKBONE|DICT|INTERRES
   155   79   80 1    
   156   79  200 1    
   157   80   81 1    
   158   80   82 1    
   159   80  201 1    
   160   81  202 1    
   161   81  203 1    
   162   81  204 1    
   163   82   83 2    
   164   82   84 am   BACKBONE|DICT|INTERRES
   165   84   85 1    
   166   84  205 1    
   167   85   86 1    
   168   85   87 1    
   169   85  206 1    
   170   86  207 1    
   171   86  208 1    
   172   86  209 1    
   173   87   88 2    
   174   87   89 am   BACKBONE|DICT|INTERRES
   175   89   90 1    
   176   89  210 1    
   177   90   91 1    
   178   90   92 1    
   179   90  211 1    
   180   91  212 1    
   181   91  213 1    
   182   91  214 1    
   183   92   93 2    
   184   92   94 am   BACKBONE|DICT|INTERRES
   185   94   95 1    
   186   94  215 1    
   187   95   96 1    
   188   95   97 1    
   189   95  216 1    
   190   96  217 1    
   191   96  218 1    
   192   96  219 1    
   193   97   98 2    
   194   97   99 am   BACKBONE|DICT|INTERRES
   195   99  100 1    
   196   99  220 1    
   197  100  101 1    
   198  100  102 1    
   199  100  221 1    
   200  101  222 1    
   201  101  223 1    
   202  101  224 1    
   203  102  103 2    
   204  102  104 am   BACKBONE|DICT|INTERRES
   205  104  105 1    
   206  104  225 1    
   207  105  106 1    
   208  105  107 1    
   209  105  226 1    
   210  106  227 1    
   211  106  228 1    
   212  106  229 1    
   213  107  108 2    
   214  107  109 am   BACKBONE|DICT|INTERRES
   215  109  110 1    
   216  109  230 1    
   217  110  111 1    
   218  110  112 1    
   219  110  231 1    
   220  111  232 1    
   221  111  233 1    
   222  111  234 1    
   223  112  113 2    
   224  112  114 am   BACKBONE|DICT|INTERRES
   225  114  115 1    
   226  114  235 1    
   227  115  116 1    
   228  115  117 1    
   229  115  236 1    
   230  116  237 1    
   231  116  238 1    
   232  116  239 1    
   233  117  118 2    
   234  117  119 am   BACKBONE|DICT|INTERRES
   235  119  120 1    
   236  119  240 1    
   237  120  121 1    
   238  120  124 1    
   239  120  241 1    
   240  121  122 am   BACKBONE|DICT|INTERRES
   241  121  123 2    
   242  122  242 1    
   243  122  243 1    
   244  124  125 1    
   245  124  244 1    
   246  124  245 1    
   247  125  126 1    
   248  126  246 1    
   249  126  247 1    
@<TRIPOS>SUBSTRUCTURE
     1 UNK         1 GROUP             0       ****    0 ROOT    
