@<TRIPOS>MOLECULE
3R540
247   249    1
SMALL
USER_CHARGES


@<TRIPOS>ATOM
      1 CA          3.4866  -12.8654  -52.8124 C.3       0 UNK        -0.1800 
      2 C           2.9523  -13.3770  -51.4823 C.2       0 UNK         0.5000 
      3 O           3.4715  -14.3591  -50.9531 O.2       0 UNK        -0.5000 
      4 N           1.9140  -12.7197  -50.9490 N.am      1 UNK        -0.5000 
      5 CA          1.2802  -13.0549  -49.6685 C.3       1 UNK         0.1400 
      6 C6         -0.1147  -12.3918  -49.5446 C.3       23 UNK        -0.0398 
      7 S7         -1.2374  -13.2620  -48.3978 S.3       23 UNK        -0.2404 
      8 C8         -2.3085  -14.1952  -49.5382 C.3       23 UNK        -0.0205 
      9 C9         -1.7009  -15.5389  -49.9107 C.ar      23 UNK        -0.0193 
     10 C10        -0.7946  -15.6432  -50.9682 C.ar      23 UNK        -0.1150 
     11 C11        -0.2275  -16.8779  -51.2948 C.ar      23 UNK        -0.0193 
     12 C12        -0.6015  -18.0195  -50.5784 C.ar      23 UNK        -0.1150 
     13 C13        -1.5253  -17.9359  -49.5280 C.ar      23 UNK        -0.0193 
     14 C14        -2.0552  -16.6856  -49.1961 C.ar      23 UNK        -0.1150 
     15 C15        -2.0043  -19.1495  -48.7305 C.3       23 UNK        -0.0205 
     16 S16        -1.0765  -20.7009  -48.9772 S.3       23 UNK        -0.2404 
     17 C17        -1.9656  -21.7839  -47.8119 C.3       23 UNK        -0.0398 
     18 CA         -1.0698  -22.9149  -47.2560 C.3       11 UNK         0.1400 
     19 N          -0.0293  -22.4383  -46.3430 N.am      11 UNK        -0.5000 
     20 C           0.9569  -23.1984  -45.8466 C.2       10 UNK         0.5000 
     21 O           1.1224  -24.3812  -46.1444 O.2       10 UNK        -0.5000 
     22 CA          1.8804  -22.5486  -44.8010 C.3       10 UNK         0.1400 
     23 CB          2.9344  -21.6555  -45.4722 C.3       10 UNK        -0.1800 
     24 N           1.1394  -21.7803  -43.7997 N.am      10 UNK        -0.5000 
     25 C           0.2660  -22.3112  -42.9319 C.2       9 UNK         0.5000 
     26 O           0.0258  -23.5172  -42.8563 O.2       9 UNK        -0.5000 
     27 CA         -0.4985  -21.3280  -42.0245 C.3       9 UNK         0.1400 
     28 CB          0.3696  -20.8830  -40.8381 C.3       9 UNK        -0.1800 
     29 N          -0.9853  -20.1516  -42.7469 N.am      9 UNK        -0.5000 
     30 C          -1.8923  -20.1946  -43.7337 C.2       8 UNK         0.5000 
     31 O          -2.4472  -21.2262  -44.1109 O.2       8 UNK        -0.5000 
     32 CA         -2.1910  -18.8736  -44.4641 C.3       8 UNK         0.1400 
     33 CB         -3.1687  -18.0092  -43.6552 C.3       8 UNK        -0.1800 
     34 N          -0.9839  -18.1053  -44.7751 N.am      8 UNK        -0.5000 
     35 C           0.0362  -18.5586  -45.5184 C.2       7 UNK         0.5000 
     36 O           0.0536  -19.6688  -46.0414 O.2       7 UNK        -0.5000 
     37 CA          1.2729  -17.6572  -45.6483 C.3       7 UNK         0.1400 
     38 CB          1.0292  -16.5293  -46.6576 C.3       7 UNK        -0.1800 
     39 N           1.6948  -17.1098  -44.3594 N.am      7 UNK        -0.5000 
     40 C           2.1020  -17.8569  -43.3220 C.2       6 UNK         0.5000 
     41 O           2.2324  -19.0801  -43.3664 O.2       6 UNK        -0.5000 
     42 CA          2.3501  -17.1215  -41.9958 C.3       6 UNK         0.1400 
     43 CB          3.7563  -16.5044  -41.9581 C.3       6 UNK        -0.1800 
     44 N           1.3440  -16.0862  -41.7639 N.am      6 UNK        -0.5000 
     45 C           0.0703  -16.3387  -41.4307 C.2       5 UNK         0.5000 
     46 O          -0.3748  -17.4717  -41.2420 O.2       5 UNK        -0.5000 
     47 CA         -0.8693  -15.1224  -41.3244 C.3       5 UNK         0.1400 
     48 CB         -0.7494  -14.4645  -39.9418 C.3       5 UNK        -0.1800 
     49 N          -0.6190  -14.1197  -42.3623 N.am      5 UNK        -0.5000 
     50 C          -0.8503  -14.3160  -43.6677 C.2       4 UNK         0.5000 
     51 O          -1.3302  -15.3519  -44.1238 O.2       4 UNK        -0.5000 
     52 CA         -0.4457  -13.1871  -44.6333 C.3       4 UNK         0.1400 
     53 CB         -1.6064  -12.2001  -44.8243 C.3       4 UNK        -0.1800 
     54 N           0.7587  -12.4463  -44.2495 N.am      4 UNK        -0.5000 
     55 C           1.9647  -12.9854  -44.0302 C.2       3 UNK         0.5000 
     56 O           2.1798  -14.1986  -43.9969 O.2       3 UNK        -0.5000 
     57 CA          3.1310  -11.9939  -43.8659 C.3       3 UNK         0.1400 
     58 CB          4.2109  -12.5286  -42.9093 C.3       3 UNK        -0.1800 
     59 N           3.7341  -11.7426  -45.1720 N.am      3 UNK        -0.5000 
     60 C           3.1998  -10.9749  -46.1312 C.2       2 UNK         0.5000 
     61 O           2.2241  -10.2427  -45.9524 O.2       2 UNK        -0.5000 
     62 CA          3.8327  -11.0521  -47.5397 C.3       2 UNK         0.1400 
     63 CB          5.1525  -11.8544  -47.5987 C.3       2 UNK        -0.1800 
     64 N           2.8877  -11.5710  -48.5373 N.am      2 UNK        -0.5000 
     65 C           2.1924  -12.7198  -48.4689 C.2       1 UNK         0.5000 
     66 O           2.2722  -13.5148  -47.5347 O.2       1 UNK        -0.5000 
     67 C          -1.9294  -24.0167  -46.6115 C.2       11 UNK         0.5000 
     68 O          -2.1622  -25.0355  -47.2574 O.2       11 UNK        -0.5000 
     69 N          -2.3432  -23.8307  -45.3495 N.am      12 UNK        -0.5000 
     70 CA         -3.1069  -24.8178  -44.5824 C.3       12 UNK         0.1400 
     71 CB         -3.5224  -24.2213  -43.2295 C.3       12 UNK        -0.1800 
     72 C          -2.3510  -26.1459  -44.3892 C.2       12 UNK         0.5000 
     73 O          -2.9529  -27.2096  -44.5385 O.2       12 UNK        -0.5000 
     74 N          -1.0415  -26.0631  -44.1136 N.am      13 UNK        -0.5000 
     75 CA         -0.1424  -27.2149  -44.0148 C.3       13 UNK         0.1400 
     76 CB          1.2020  -26.7626  -43.4249 C.3       13 UNK        -0.1800 
     77 C           0.0637  -27.9356  -45.3629 C.2       13 UNK         0.5000 
     78 O           0.1312  -29.1649  -45.3905 O.2       13 UNK        -0.5000 
     79 N           0.1398  -27.1632  -46.4548 N.am      14 UNK        -0.5000 
     80 CA          0.2906  -27.6542  -47.8273 C.3       14 UNK         0.1400 
     81 CB          0.8566  -26.5168  -48.6933 C.3       14 UNK        -0.1800 
     82 C          -1.0142  -28.1957  -48.4498 C.2       14 UNK         0.5000 
     83 O          -0.9532  -28.8098  -49.5157 O.2       14 UNK        -0.5000 
     84 N          -2.1594  -27.9385  -47.8003 N.am      15 UNK        -0.5000 
     85 CA         -3.5301  -28.1848  -48.2663 C.3       15 UNK         0.1400 
     86 CB         -3.7996  -29.6912  -48.4654 C.3       15 UNK        -0.1800 
     87 C          -3.9056  -27.3236  -49.4947 C.2       15 UNK         0.5000 
     88 O          -4.6535  -27.7680  -50.3679 O.2       15 UNK        -0.5000 
     89 N          -3.3804  -26.0950  -49.5219 N.am      16 UNK        -0.5000 
     90 CA         -3.6823  -25.0329  -50.4761 C.3       16 UNK         0.1400 
     91 CB         -2.3556  -24.3483  -50.8469 C.3       16 UNK        -0.1800 
     92 C          -4.6705  -24.0305  -49.8463 C.2       16 UNK         0.5000 
     93 O          -5.0189  -24.1617  -48.6695 O.2       16 UNK        -0.5000 
     94 N          -5.1013  -23.0341  -50.6288 N.am      17 UNK        -0.5000 
     95 CA         -6.0132  -21.9809  -50.1892 C.3       17 UNK         0.1400 
     96 CB         -7.4474  -22.3283  -50.6194 C.3       17 UNK        -0.1800 
     97 C          -5.5755  -20.6284  -50.7653 C.2       17 UNK         0.5000 
     98 O          -5.1484  -20.5564  -51.9228 O.2       17 UNK        -0.5000 
     99 N          -5.7185  -19.5785  -49.9468 N.am      18 UNK        -0.5000 
    100 CA        -5.4506  -18.1864  -50.3031 C.3       18 UNK         0.1400 
    101 CB        -5.5635  -17.3172  -49.0411 C.3       18 UNK        -0.1800 
    102 C         -6.4206  -17.6892  -51.3878 C.2       18 UNK         0.5000 
    103 O         -7.6036  -18.0339  -51.3517 O.2       18 UNK        -0.5000 
    104 N         -5.8881  -16.9079  -52.3365 N.am      19 UNK        -0.5000 
    105 CA        -6.5584  -16.3622  -53.5268 C.3       19 UNK         0.1400 
    106 CB        -7.7357  -15.4443  -53.1351 C.3       19 UNK        -0.1800 
    107 C         -6.9713  -17.4214  -54.5766 C.2       19 UNK         0.5000 
    108 O         -7.5830  -17.0589  -55.5831 O.2       19 UNK        -0.5000 
    109 N         -6.6218  -18.6942  -54.3457 N.am      20 UNK        -0.5000 
    110 CA        -6.8411  -19.8121  -55.2596 C.3       20 UNK         0.1400 
    111 CB        -7.6596  -20.9032  -54.5516 C.3       20 UNK        -0.1800 
    112 C         -5.4912  -20.3599  -55.7417 C.2       20 UNK         0.5000 
    113 O         -5.2904  -20.4983  -56.9488 O.2       20 UNK        -0.5000 
    114 N         -4.5784  -20.6377  -54.7984 N.am      21 UNK        -0.5000 
    115 CA        -3.2258  -21.1227  -55.0848 C.3       21 UNK         0.1400 
    116 CB        -2.6570  -21.7776  -53.8189 C.3       21 UNK        -0.1800 
    117 C         -2.2799  -20.0191  -55.5960 C.2       21 UNK         0.5000 
    118 O         -1.3089  -20.3298  -56.2875 O.2       21 UNK        -0.5000 
    119 N         -2.5842  -18.7632  -55.2534 N.am      22 UNK        -0.5000 
    120 CA        -1.8584  -17.5551  -55.6618 C.3       22 UNK         0.1400 
    121 C         -2.8529  -16.5450  -56.2849 C.2       22 UNK         0.5000 
    122 N         -2.4666  -15.8531  -57.3476 N.am      22 UNK        -0.7600 
    123 O         -3.9615  -16.3569  -55.7900 O.2       22 UNK        -0.5000 
    124 C124       -1.1104  -16.9047  -54.4702 C.3       23 UNK        -0.0398 
    125 S125        0.2209  -17.9663  -53.8178 S.3       23 UNK        -0.2404 
    126 C126        0.8068  -16.9764  -52.4073 C.3       23 UNK        -0.0205 
    127 H127        2.9310  -11.9968  -53.1668 H         1 UNK         0.0600 
    128 H128        3.4157  -13.6461  -53.5698 H         1 UNK         0.0600 
    129 H129        4.5339  -12.5809  -52.7112 H         1 UNK         0.0600 
    130 H130        1.5345  -11.9215  -51.4381 H         1 UNK         0.3000 
    131 H131        1.1412  -14.1379  -49.6609 H         1 UNK         0.0600 
    132 H132       -0.0287  -11.3518  -49.2245 H         1 UNK         0.0800 
    133 H133       -0.5962  -12.3501  -50.5221 H         1 UNK         0.0800 
    134 H134       -3.2724  -14.3509  -49.0514 H         1 UNK         0.0800 
    135 H135       -2.5216  -13.6107  -50.4341 H         1 UNK         0.0800 
    136 H136       -0.5158  -14.7590  -51.5236 H         1 UNK         0.1150 
    137 H137       -0.1677  -18.9687  -50.8560 H         1 UNK         0.1150 
    138 H138       -2.7538  -16.6027  -48.3758 H         1 UNK         0.1150 
    139 H139       -1.9792  -18.8965  -47.6718 H         1 UNK         0.0800 
    140 H140       -3.0479  -19.3371  -48.9792 H         1 UNK         0.0800 
    141 H141       -2.8246  -22.1900  -48.3481 H         1 UNK         0.0800 
    142 H142       -2.3718  -21.1917  -46.9904 H         1 UNK         0.0800 
    143 H143       -0.5531  -23.3766  -48.0994 H         1 UNK         0.0600 
    144 H144       -0.0589  -21.4488  -46.0995 H         1 UNK         0.3000 
    145 H145        2.4043  -23.3522  -44.2793 H         1 UNK         0.0600 
    146 H146        3.6295  -21.2475  -44.7383 H         1 UNK         0.0600 
    147 H147        3.5201  -22.2219  -46.1972 H         1 UNK         0.0600 
    148 H148        2.4789  -20.8185  -46.0011 H         1 UNK         0.0600 
    149 H149        1.3072  -20.7787  -43.7786 H         1 UNK         0.3000 
    150 H150       -1.3679  -21.8552  -41.6263 H         1 UNK         0.0600 
    151 H151        0.7186  -21.7434  -40.2659 H         1 UNK         0.0600 
    152 H152       -0.1929  -20.2445  -40.1566 H         1 UNK         0.0600 
    153 H153        1.2486  -20.3276  -41.1653 H         1 UNK         0.0600 
    154 H154       -0.5925  -19.2559  -42.4817 H         1 UNK         0.3000 
    155 H155       -2.6733  -19.1262  -45.4096 H         1 UNK         0.0600 
    156 H156       -2.7273  -17.6711  -42.7175 H         1 UNK         0.0600 
    157 H157       -3.4724  -17.1271  -44.2191 H         1 UNK         0.0600 
    158 H158       -4.0743  -18.5661  -43.4114 H         1 UNK         0.0600 
    159 H159       -0.9485  -17.1542  -44.4158 H         1 UNK         0.3000 
    160 H160        2.0913  -18.2722  -46.0280 H         1 UNK         0.0600 
    161 H161        1.9367  -15.9465  -46.8057 H         1 UNK         0.0600 
    162 H162        0.2401  -15.8521  -46.3332 H         1 UNK         0.0600 
    163 H163        0.7375  -16.9286  -47.6300 H         1 UNK         0.0600 
    164 H164        1.6599  -16.1008  -44.2485 H         1 UNK         0.3000 
    165 H165        2.2824  -17.8537  -41.1882 H         1 UNK         0.0600 
    166 H166        3.9386  -15.9933  -41.0127 H         1 UNK         0.0600 
    167 H167        4.5199  -17.2758  -42.0638 H         1 UNK         0.0600 
    168 H168        3.9072  -15.7854  -42.7631 H         1 UNK         0.0600 
    169 H169        1.6107  -15.1387  -41.9928 H         1 UNK         0.3000 
    170 H170       -1.8933  -15.4837  -41.4415 H         1 UNK         0.0600 
    171 H171        0.2484  -14.0576  -39.7729 H         1 UNK         0.0600 
    172 H172       -1.4674  -13.6521  -39.8282 H         1 UNK         0.0600 
    173 H173       -0.9484  -15.1861  -39.1483 H         1 UNK         0.0600 
    174 H174       -0.2189  -13.2405  -42.0692 H         1 UNK         0.3000 
    175 H175       -0.2337  -13.6507  -45.5977 H         1 UNK         0.0600 
    176 H176       -1.3718  -11.4603  -45.5901 H         1 UNK         0.0600 
    177 H177       -1.8401  -11.6686  -43.9011 H         1 UNK         0.0600 
    178 H178       -2.5107  -12.7193  -45.1450 H         1 UNK         0.0600 
    179 H179        0.6963  -11.4394  -44.3084 H         1 UNK         0.3000 
    180 H180        2.7465  -11.0583  -43.4542 H         1 UNK         0.0600 
    181 H181        4.6815  -13.4348  -43.2927 H         1 UNK         0.0600 
    182 H182        3.7851  -12.7670  -41.9339 H         1 UNK         0.0600 
    183 H183        4.9951  -11.7884  -42.7500 H         1 UNK         0.0600 
    184 H184        4.5011  -12.3474  -45.4267 H         1 UNK         0.3000 
    185 H185        4.0582  -10.0243  -47.8274 H         1 UNK         0.0600 
    186 H186        5.0066  -12.9073  -47.3547 H         1 UNK         0.0600 
    187 H187        5.5876  -11.8092  -48.5972 H         1 UNK         0.0600 
    188 H188        5.8942  -11.4481  -46.9099 H         1 UNK         0.0600 
    189 H189        2.7470  -10.9837  -49.3465 H         1 UNK         0.3000 
    190 H190       -2.1483  -22.9474  -44.8850 H         1 UNK         0.3000 
    191 H191       -4.0155  -25.0371  -45.1471 H         1 UNK         0.0600 
    192 H192       -4.1423  -23.3348  -43.3642 H         1 UNK         0.0600 
    193 H193       -4.1031  -24.9382  -42.6478 H         1 UNK         0.0600 
    194 H194       -2.6572  -23.9362  -42.6309 H         1 UNK         0.0600 
    195 H195       -0.6305  -25.1469  -43.9663 H         1 UNK         0.3000 
    196 H196       -0.5905  -27.9308  -43.3227 H         1 UNK         0.0600 
    197 H197        1.8820  -27.6074  -43.3094 H         1 UNK         0.0600 
    198 H198        1.0689  -26.3140  -42.4402 H         1 UNK         0.0600 
    199 H199        1.6957  -26.0279  -44.0613 H         1 UNK         0.0600 
    200 H200        0.1366  -26.1550  -46.3358 H         1 UNK         0.3000 
    201 H201        1.0144  -28.4716  -47.8256 H         1 UNK         0.0600 
    202 H202        1.8057  -26.1541  -48.2984 H         1 UNK         0.0600 
    203 H203        0.1695  -25.6716  -48.7429 H         1 UNK         0.0600 
    204 H204        1.0373  -26.8523  -49.7152 H         1 UNK         0.0600 
    205 H205       -2.0864  -27.3830  -46.9577 H         1 UNK         0.3000 
    206 H206       -4.1791  -27.8447  -47.4579 H         1 UNK         0.0600 
    207 H207       -3.5173  -30.2621  -47.5809 H         1 UNK         0.0600 
    208 H208       -4.8592  -29.8757  -48.6453 H         1 UNK         0.0600 
    209 H209       -3.2514  -30.0954  -49.3165 H         1 UNK         0.0600 
    210 H210       -2.8575  -25.7934  -48.7005 H         1 UNK         0.3000 
    211 H211       -4.1382  -25.4455  -51.3782 H         1 UNK         0.0600 
    212 H212       -1.8534  -23.9431  -49.9702 H         1 UNK         0.0600 
    213 H213       -2.5058  -23.5240  -51.5411 H         1 UNK         0.0600 
    214 H214       -1.6724  -25.0519  -51.3229 H         1 UNK         0.0600 
    215 H215       -4.7475  -22.9308  -51.5700 H         1 UNK         0.3000 
    216 H216       -5.9902  -21.8968  -49.1004 H         1 UNK         0.0600 
    217 H217       -8.1406  -21.5251  -50.3660 H         1 UNK         0.0600 
    218 H218       -7.7977  -23.2308  -50.1183 H         1 UNK         0.0600 
    219 H219       -7.5164  -22.4977  -51.6937 H         1 UNK         0.0600 
    220 H220       -6.1276  -19.7268  -49.0362 H         1 UNK         0.3000 
    221 H221       -4.4283  -18.1267  -50.6826 H         1 UNK         0.0600 
    222 H222       -5.2914  -16.2828  -49.2550 H         1 UNK         0.0600 
    223 H223       -4.9015  -17.6725  -48.2517 H         1 UNK         0.0600 
    224 H224       -6.5800  -17.3135  -48.6453 H         1 UNK         0.0600 
    225 H225       -4.9047  -16.6845  -52.2704 H         1 UNK         0.3000 
    226 H226       -5.8157  -15.7322  -54.0166 H         1 UNK         0.0600 
    227 H227       -7.4300  -14.7022  -52.3976 H         1 UNK         0.0600 
    228 H228       -8.1110  -14.9009  -54.0029 H         1 UNK         0.0600 
    229 H229       -8.5725  -16.0068  -52.7207 H         1 UNK         0.0600 
    230 H230       -6.1403  -18.9058  -53.4836 H         1 UNK         0.3000 
    231 H231       -7.4012  -19.4891  -56.1395 H         1 UNK         0.0600 
    232 H232       -7.1464  -21.2861  -53.6705 H         1 UNK         0.0600 
    233 H233       -7.8438  -21.7470  -55.2177 H         1 UNK         0.0600 
    234 H234       -8.6294  -20.5211  -54.2325 H         1 UNK         0.0600 
    235 H235       -4.8201  -20.5434  -53.8157 H         1 UNK         0.3000 
    236 H236       -3.2876  -21.8884  -55.8611 H         1 UNK         0.0600 
    237 H237       -3.2897  -22.6051  -53.5006 H         1 UNK         0.0600 
    238 H238       -1.6587  -22.1789  -53.9978 H         1 UNK         0.0600 
    239 H239       -2.5839  -21.0678  -52.9934 H         1 UNK         0.0600 
    240 H240       -3.4380  -18.5991  -54.7413 H         1 UNK         0.3000 
    241 H241       -1.1246  -17.8091  -56.4293 H         1 UNK         0.0600 
    242 H242       -1.5584  -15.9841  -57.7664 H         1 UNK         0.3800 
    243 H243       -3.1039  -15.1842  -57.7515 H         1 UNK         0.3800 
    244 H244       -0.6611  -15.9566  -54.7712 H         1 UNK         0.0800 
    245 H245       -1.8091  -16.6745  -53.6640 H         1 UNK         0.0800 
    246 H246        1.1007  -15.9859  -52.7583 H         1 UNK         0.0800 
    247 H247        1.7109  -17.4364  -52.0061 H         1 UNK         0.0800 
@<TRIPOS>BOND
     1    1    2 1    
     2    1  127 1    
     3    1  128 1    
     4    1  129 1    
     5    2    3 2    
     6    2    4 am   BACKBONE|DICT|INTERRES
     7    4    5 1    
     8    4  130 1    
     9    5    6 1    
    10    5   65 1    
    11    5  131 1    
    12    6    7 1    
    13    6  132 1    
    14    6  133 1    
    15    7    8 1    
    16    8    9 1    
    17    8  134 1    
    18    8  135 1    
    19    9   10 ar   
    20    9   14 ar   
    21   10   11 ar   
    22   10  136 1    
    23   11   12 ar   
    24   11  126 1    
    25   12   13 ar   
    26   12  137 1    
    27   13   14 ar   
    28   13   15 1    
    29   14  138 1    
    30   15   16 1    
    31   15  139 1    
    32   15  140 1    
    33   16   17 1    
    34   17   18 1    
    35   17  141 1    
    36   17  142 1    
    37   18   19 1    
    38   18   67 1    
    39   18  143 1    
    40   19   20 am   BACKBONE|DICT|INTERRES
    41   19  144 1    
    42   20   21 2    
    43   20   22 1    
    44   22   23 1    
    45   22   24 1    
    46   22  145 1    
    47   23  146 1    
    48   23  147 1    
    49   23  148 1    
    50   24   25 am   BACKBONE|DICT|INTERRES
    51   24  149 1    
    52   25   26 2    
    53   25   27 1    
    54   27   28 1    
    55   27   29 1    
    56   27  150 1    
    57   28  151 1    
    58   28  152 1    
    59   28  153 1    
    60   29   30 am   BACKBONE|DICT|INTERRES
    61   29  154 1    
    62   30   31 2    
    63   30   32 1    
    64   32   33 1    
    65   32   34 1    
    66   32  155 1    
    67   33  156 1    
    68   33  157 1    
    69   33  158 1    
    70   34   35 am   BACKBONE|DICT|INTERRES
    71   34  159 1    
    72   35   36 2    
    73   35   37 1    
    74   37   38 1    
    75   37   39 1    
    76   37  160 1    
    77   38  161 1    
    78   38  162 1    
    79   38  163 1    
    80   39   40 am   BACKBONE|DICT|INTERRES
    81   39  164 1    
    82   40   41 2    
    83   40   42 1    
    84   42   43 1    
    85   42   44 1    
    86   42  165 1    
    87   43  166 1    
    88   43  167 1    
    89   43  168 1    
    90   44   45 am   BACKBONE|DICT|INTERRES
    91   44  169 1    
    92   45   46 2    
    93   45   47 1    
    94   47   48 1    
    95   47   49 1    
    96   47  170 1    
    97   48  171 1    
    98   48  172 1    
    99   48  173 1    
   100   49   50 am   BACKBONE|DICT|INTERRES
   101   49  174 1    
   102   50   51 2    
   103   50   52 1    
   104   52   53 1    
   105   52   54 1    
   106   52  175 1    
   107   53  176 1    
   108   53  177 1    
   109   53  178 1    
   110   54   55 am   BACKBONE|DICT|INTERRES
   111   54  179 1    
   112   55   56 2    
   113   55   57 1    
   114   57   58 1    
   115   57   59 1    
   116   57  180 1    
   117   58  181 1    
   118   58  182 1    
   119   58  183 1    
   120   59   60 am   BACKBONE|DICT|INTERRES
   121   59  184 1    
   122   60   61 2    
   123   60   62 1    
   124   62   63 1    
   125   62   64 1    
   126   62  185 1    
   127   63  186 1    
   128   63  187 1    
   129   63  188 1    
   130   64   65 am   BACKBONE|DICT|INTERRES
   131   64  189 1    
   132   65   66 2    
   133   67   68 2    
   134   67   69 am   BACKBONE|DICT|INTERRES
   135   69   70 1    
   136   69  190 1    
   137   70   71 1    
   138   70   72 1    
   139   70  191 1    
   140   71  192 1    
   141   71  193 1    
   142   71  194 1    
   143   72   73 2    
   144   72   74 am   BACKBONE|DICT|INTERRES
   145   74   75 1    
   146   74  195 1    
   147   75   76 1    
   148   75   77 1    
   149   75  196 1    
   150   76  197 1    
   151   76  198 1    
   152   76  199 1    
   153   77   78 2    
   154   77   79 am   BACKBONE|DICT|INTERRES
   155   79   80 1    
   156   79  200 1    
   157   80   81 1    
   158   80   82 1    
   159   80  201 1    
   160   81  202 1    
   161   81  203 1    
   162   81  204 1    
   163   82   83 2    
   164   82   84 am   BACKBONE|DICT|INTERRES
   165   84   85 1    
   166   84  205 1    
   167   85   86 1    
   168   85   87 1    
   169   85  206 1    
   170   86  207 1    
   171   86  208 1    
   172   86  209 1    
   173   87   88 2    
   174   87   89 am   BACKBONE|DICT|INTERRES
   175   89   90 1    
   176   89  210 1    
   177   90   91 1    
   178   90   92 1    
   179   90  211 1    
   180   91  212 1    
   181   91  213 1    
   182   91  214 1    
   183   92   93 2    
   184   92   94 am   BACKBONE|DICT|INTERRES
   185   94   95 1    
   186   94  215 1    
   187   95   96 1    
   188   95   97 1    
   189   95  216 1    
   190   96  217 1    
   191   96  218 1    
   192   96  219 1    
   193   97   98 2    
   194   97   99 am   BACKBONE|DICT|INTERRES
   195   99  100 1    
   196   99  220 1    
   197  100  101 1    
   198  100  102 1    
   199  100  221 1    
   200  101  222 1    
   201  101  223 1    
   202  101  224 1    
   203  102  103 2    
   204  102  104 am   BACKBONE|DICT|INTERRES
   205  104  105 1    
   206  104  225 1    
   207  105  106 1    
   208  105  107 1    
   209  105  226 1    
   210  106  227 1    
   211  106  228 1    
   212  106  229 1    
   213  107  108 2    
   214  107  109 am   BACKBONE|DICT|INTERRES
   215  109  110 1    
   216  109  230 1    
   217  110  111 1    
   218  110  112 1    
   219  110  231 1    
   220  111  232 1    
   221  111  233 1    
   222  111  234 1    
   223  112  113 2    
   224  112  114 am   BACKBONE|DICT|INTERRES
   225  114  115 1    
   226  114  235 1    
   227  115  116 1    
   228  115  117 1    
   229  115  236 1    
   230  116  237 1    
   231  116  238 1    
   232  116  239 1    
   233  117  118 2    
   234  117  119 am   BACKBONE|DICT|INTERRES
   235  119  120 1    
   236  119  240 1    
   237  120  121 1    
   238  120  124 1    
   239  120  241 1    
   240  121  122 am   BACKBONE|DICT|INTERRES
   241  121  123 2    
   242  122  242 1    
   243  122  243 1    
   244  124  125 1    
   245  124  244 1    
   246  124  245 1    
   247  125  126 1    
   248  126  246 1    
   249  126  247 1    
@<TRIPOS>SUBSTRUCTURE
     1 UNK         1 GROUP             0       ****    0 ROOT    
