@<TRIPOS>MOLECULE
3R540
247   249    1
SMALL
USER_CHARGES


@<TRIPOS>ATOM
      1 CA          3.2953  -10.0730  -46.0520 C.3       0 UNK        -0.1800 
      2 C           2.8931  -11.5390  -46.0999 C.2       0 UNK         0.5000 
      3 O           2.7009  -12.1550  -45.0508 O.2       0 UNK        -0.5000 
      4 N           2.7376  -12.0841  -47.3142 N.am      1 UNK        -0.5000 
      5 CA          2.4430  -13.4928  -47.6288 C.3       1 UNK         0.1400 
      6 C6          2.5004  -13.7509  -49.1553 C.3       23 UNK        -0.0398 
      7 S7          1.2561  -12.7988  -50.1010 S.3       23 UNK        -0.2404 
      8 C8          0.8800  -13.9231  -51.4843 C.3       23 UNK        -0.0205 
      9 C9          0.2825  -15.2537  -51.0424 C.ar      23 UNK        -0.0193 
     10 C10         0.9390  -16.4496  -51.3517 C.ar      23 UNK        -0.1150 
     11 C11         0.3759  -17.6800  -51.0029 C.ar      23 UNK        -0.0193 
     12 C12        -0.8454  -17.7091  -50.3286 C.ar      23 UNK        -0.1150 
     13 C13        -1.5071  -16.5230  -50.0022 C.ar      23 UNK        -0.0193 
     14 C14        -0.9406  -15.2969  -50.3643 C.ar      23 UNK        -0.1150 
     15 C15        -2.8495  -16.5796  -49.2896 C.3       23 UNK        -0.0205 
     16 S16        -2.7057  -16.4428  -47.4757 S.3       23 UNK        -0.2404 
     17 C17        -1.5514  -17.7852  -47.0289 C.3       23 UNK        -0.0398 
     18 CA         -2.1760  -19.1956  -47.1663 C.3       11 UNK         0.1400 
     19 N          -1.1557  -20.2314  -47.3678 N.am      11 UNK        -0.5000 
     20 C          -1.4071  -21.5154  -47.6680 C.2       10 UNK         0.5000 
     21 O          -2.5394  -21.9675  -47.8232 O.2       10 UNK        -0.5000 
     22 CA         -0.2054  -22.4700  -47.7683 C.3       10 UNK         0.1400 
     23 CB          0.2980  -22.5553  -49.2159 C.3       10 UNK        -0.1800 
     24 N           0.8911  -22.0791  -46.8839 N.am      10 UNK        -0.5000 
     25 C           0.8265  -22.0758  -45.5467 C.2       9 UNK         0.5000 
     26 O          -0.1500  -22.4766  -44.9136 O.2       9 UNK        -0.5000 
     27 CA          2.0127  -21.4567  -44.7912 C.3       9 UNK         0.1400 
     28 CB          3.1794  -22.4508  -44.6432 C.3       9 UNK        -0.1800 
     29 N           2.4477  -20.1675  -45.3448 N.am      9 UNK        -0.5000 
     30 C           3.0983  -19.9019  -46.4887 C.2       8 UNK         0.5000 
     31 O           3.3957  -20.7658  -47.3144 O.2       8 UNK        -0.5000 
     32 CA          3.4502  -18.4276  -46.7915 C.3       8 UNK         0.1400 
     33 CB          2.7405  -17.9472  -48.0676 C.3       8 UNK        -0.1800 
     34 N           3.1387  -17.4988  -45.7016 N.am      8 UNK        -0.5000 
     35 C           3.8032  -17.4283  -44.5388 C.2       7 UNK         0.5000 
     36 O           4.7878  -18.1192  -44.2739 O.2       7 UNK        -0.5000 
     37 CA          3.2781  -16.4413  -43.4789 C.3       7 UNK         0.1400 
     38 CB          2.3095  -15.3816  -44.0284 C.3       7 UNK        -0.1800 
     39 N           2.6530  -17.1080  -42.3390 N.am      7 UNK        -0.5000 
     40 C           1.6440  -17.9926  -42.3482 C.2       6 UNK         0.5000 
     41 O           1.1623  -18.4867  -43.3687 O.2       6 UNK        -0.5000 
     42 CA          1.0467  -18.3614  -40.9751 C.3       6 UNK         0.1400 
     43 CB          1.6948  -19.6440  -40.4335 C.3       6 UNK        -0.1800 
     44 N           1.1902  -17.2860  -39.9875 N.am      6 UNK        -0.5000 
     45 C           0.5550  -16.1067  -40.0583 C.2       5 UNK         0.5000 
     46 O          -0.3074  -15.8488  -40.8996 O.2       5 UNK        -0.5000 
     47 CA          0.9610  -15.0093  -39.0534 C.3       5 UNK         0.1400 
     48 CB          1.8457  -15.5017  -37.8852 C.3       5 UNK        -0.1800 
     49 N           1.5858  -13.8826  -39.7540 N.am      5 UNK        -0.5000 
     50 C           2.7109  -13.8956  -40.4823 C.2       4 UNK         0.5000 
     51 O           3.4466  -14.8802  -40.5773 O.2       4 UNK        -0.5000 
     52 CA          3.0524  -12.5952  -41.2471 C.3       4 UNK         0.1400 
     53 CB          4.3753  -12.6946  -42.0285 C.3       4 UNK        -0.1800 
     54 N           1.9977  -12.1798  -42.1788 N.am      4 UNK        -0.5000 
     55 C           0.8405  -11.5989  -41.8339 C.2       3 UNK         0.5000 
     56 O           0.5071  -11.3989  -40.6645 O.2       3 UNK        -0.5000 
     57 CA         -0.1007  -11.1520  -42.9627 C.3       3 UNK         0.1400 
     58 CB          0.2693   -9.7321  -43.4191 C.3       3 UNK        -0.1800 
     59 N          -0.0728  -12.0453  -44.1250 N.am      3 UNK        -0.5000 
     60 C          -1.1221  -12.7682  -44.5467 C.2       2 UNK         0.5000 
     61 O          -2.1727  -12.8659  -43.9109 O.2       2 UNK        -0.5000 
     62 CA         -1.0243  -13.4620  -45.9220 C.3       2 UNK         0.1400 
     63 CB         -2.1811  -13.0140  -46.8334 C.3       2 UNK        -0.1800 
     64 N           0.2284  -13.1559  -46.6082 N.am      2 UNK        -0.5000 
     65 C           1.1370  -14.0505  -47.0140 C.2       1 UNK         0.5000 
     66 O           1.0038  -15.2700  -46.9021 O.2       1 UNK        -0.5000 
     67 C          -3.1144  -19.5183  -45.9851 C.2       11 UNK         0.5000 
     68 O          -4.3307  -19.3759  -46.1153 O.2       11 UNK        -0.5000 
     69 N          -2.5409  -20.0289  -44.8853 N.am      12 UNK        -0.5000 
     70 CA         -3.2720  -20.4921  -43.7019 C.3       12 UNK         0.1400 
     71 CB         -2.2702  -20.7495  -42.5659 C.3       12 UNK        -0.1800 
     72 C          -4.1344  -21.7444  -43.9679 C.2       12 UNK         0.5000 
     73 O          -5.0840  -21.9959  -43.2260 O.2       12 UNK        -0.5000 
     74 N          -3.8061  -22.4831  -45.0350 N.am      13 UNK        -0.5000 
     75 CA         -4.5384  -23.6408  -45.5399 C.3       13 UNK         0.1400 
     76 CB         -3.5196  -24.7379  -45.8967 C.3       13 UNK        -0.1800 
     77 C          -5.4335  -23.2804  -46.7456 C.2       13 UNK         0.5000 
     78 O          -5.8481  -24.1865  -47.4668 O.2       13 UNK        -0.5000 
     79 N          -5.7096  -21.9837  -46.9637 N.am      14 UNK        -0.5000 
     80 CA         -6.5336  -21.4236  -48.0435 C.3       14 UNK         0.1400 
     81 CB         -8.0052  -21.8672  -47.9018 C.3       14 UNK        -0.1800 
     82 C          -5.9474  -21.7129  -49.4406 C.2       14 UNK         0.5000 
     83 O          -6.6212  -22.2840  -50.3000 O.2       14 UNK        -0.5000 
     84 N          -4.6711  -21.3437  -49.6140 N.am      15 UNK        -0.5000 
     85 CA         -3.8253  -21.5843  -50.7891 C.3       15 UNK         0.1400 
     86 CB         -4.3397  -20.8016  -52.0110 C.3       15 UNK        -0.1800 
     87 C          -3.6380  -23.0912  -51.0569 C.2       15 UNK         0.5000 
     88 O          -3.7266  -23.5388  -52.2042 O.2       15 UNK        -0.5000 
     89 N          -3.4134  -23.8348  -49.9619 N.am      16 UNK        -0.5000 
     90 CA         -3.3192  -25.2945  -49.8683 C.3       16 UNK         0.1400 
     91 CB         -2.0269  -25.7947  -50.5450 C.3       16 UNK        -0.1800 
     92 C          -4.5888  -25.9841  -50.4058 C.2       16 UNK         0.5000 
     93 O          -4.5060  -26.8034  -51.3189 O.2       16 UNK        -0.5000 
     94 N          -5.7528  -25.5846  -49.8732 N.am      17 UNK        -0.5000 
     95 CA         -7.1028  -25.9693  -50.3059 C.3       17 UNK         0.1400 
     96 CB         -7.3898  -27.4390  -49.9366 C.3       17 UNK        -0.1800 
     97 C          -7.3535  -25.6598  -51.7989 C.2       17 UNK         0.5000 
     98 O          -7.9591  -26.4619  -52.5118 O.2       17 UNK        -0.5000 
     99 N          -6.8290  -24.5083  -52.2407 N.am      18 UNK        -0.5000 
    100 CA        -6.7678  -24.0022  -53.6133 C.3       18 UNK         0.1400 
    101 CB        -8.1830  -23.7117  -54.1532 C.3       18 UNK        -0.1800 
    102 C         -5.9278  -24.8582  -54.5900 C.2       18 UNK         0.5000 
    103 O         -6.0037  -24.6215  -55.7965 O.2       18 UNK        -0.5000 
    104 N         -5.1288  -25.8143  -54.0893 N.am      19 UNK        -0.5000 
    105 CA        -4.2552  -26.6533  -54.9137 C.3       19 UNK         0.1400 
    106 CB        -3.9117  -27.9556  -54.1757 C.3       19 UNK        -0.1800 
    107 C         -2.9712  -25.9196  -55.3354 C.2       19 UNK         0.5000 
    108 O         -2.4848  -26.1557  -56.4423 O.2       19 UNK        -0.5000 
    109 N         -2.4511  -25.0380  -54.4674 N.am      20 UNK        -0.5000 
    110 CA        -1.3306  -24.1540  -54.7957 C.3       20 UNK         0.1400 
    111 CB        -0.5867  -23.7346  -53.5170 C.3       20 UNK        -0.1800 
    112 C         -1.8234  -22.9231  -55.5730 C.2       20 UNK         0.5000 
    113 O         -1.1482  -22.4825  -56.5031 O.2       20 UNK        -0.5000 
    114 N         -3.0002  -22.4095  -55.1774 N.am      21 UNK        -0.5000 
    115 CA        -3.7430  -21.2936  -55.7828 C.3       21 UNK         0.1400 
    116 CB        -4.2130  -21.6667  -57.2039 C.3       21 UNK        -0.1800 
    117 C         -3.0066  -19.9337  -55.7494 C.2       21 UNK         0.5000 
    118 O         -3.3896  -19.0129  -56.4736 O.2       21 UNK        -0.5000 
    119 N         -1.9694  -19.8281  -54.9121 N.am      22 UNK        -0.5000 
    120 CA        -1.1798  -18.6167  -54.6698 C.3       22 UNK         0.1400 
    121 C         -1.9482  -17.5222  -53.8736 C.2       22 UNK         0.5000 
    122 N         -1.5148  -16.2719  -53.9629 N.am      22 UNK        -0.7600 
    123 O         -2.9257  -17.7873  -53.1773 O.2       22 UNK        -0.5000 
    124 C124        0.1977  -18.9687  -54.0465 C.3       23 UNK        -0.0398 
    125 S125        0.1134  -19.9898  -52.5286 S.3       23 UNK        -0.2404 
    126 C126        1.0779  -18.9816  -51.3560 C.3       23 UNK        -0.0205 
    127 H127        3.9714   -9.8942  -45.2158 H         1 UNK         0.0600 
    128 H128        3.8029   -9.7687  -46.9675 H         1 UNK         0.0600 
    129 H129        2.4149   -9.4442  -45.9232 H         1 UNK         0.0600 
    130 H130        2.8696  -11.4954  -48.1248 H         1 UNK         0.3000 
    131 H131        3.2495  -14.0741  -47.1775 H         1 UNK         0.0600 
    132 H132        3.4882  -13.4898  -49.5370 H         1 UNK         0.0800 
    133 H133        2.3845  -14.8164  -49.3564 H         1 UNK         0.0800 
    134 H134        0.1738  -13.4294  -52.1530 H         1 UNK         0.0800 
    135 H135        1.7901  -14.0793  -52.0653 H         1 UNK         0.0800 
    136 H136        1.8812  -16.4236  -51.8805 H         1 UNK         0.1150 
    137 H137       -1.2859  -18.6610  -50.0690 H         1 UNK         0.1150 
    138 H138       -1.4533  -14.3762  -50.1248 H         1 UNK         0.1150 
    139 H139       -3.4834  -15.7674  -49.6480 H         1 UNK         0.0800 
    140 H140       -3.3754  -17.4991  -49.5498 H         1 UNK         0.0800 
    141 H141       -1.1919  -17.6095  -46.0130 H         1 UNK         0.0800 
    142 H142       -0.6656  -17.6868  -47.6535 H         1 UNK         0.0800 
    143 H143       -2.7902  -19.2122  -48.0679 H         1 UNK         0.0600 
    144 H144       -0.1942  -19.9544  -47.2417 H         1 UNK         0.3000 
    145 H145       -0.5481  -23.4621  -47.4674 H         1 UNK         0.0600 
    146 H146        1.0744  -23.3135  -49.3177 H         1 UNK         0.0600 
    147 H147       -0.5082  -22.8233  -49.9001 H         1 UNK         0.0600 
    148 H148        0.7125  -21.6067  -49.5538 H         1 UNK         0.0600 
    149 H149        1.7451  -21.7325  -47.3127 H         1 UNK         0.3000 
    150 H150        1.6547  -21.2317  -43.7853 H         1 UNK         0.0600 
    151 H151        2.8571  -23.3479  -44.1134 H         1 UNK         0.0600 
    152 H152        3.9987  -22.0128  -44.0729 H         1 UNK         0.0600 
    153 H153        3.5743  -22.7700  -45.6079 H         1 UNK         0.0600 
    154 H154        2.1878  -19.3726  -44.7668 H         1 UNK         0.3000 
    155 H155        4.5265  -18.3898  -46.9711 H         1 UNK         0.0600 
    156 H156        2.9955  -18.5766  -48.9208 H         1 UNK         0.0600 
    157 H157        3.0350  -16.9295  -48.3216 H         1 UNK         0.0600 
    158 H158        1.6565  -17.9625  -47.9583 H         1 UNK         0.0600 
    159 H159        2.3348  -16.8984  -45.8404 H         1 UNK         0.3000 
    160 H160        4.1530  -15.9189  -43.0900 H         1 UNK         0.0600 
    161 H161        1.3901  -15.8241  -44.4113 H         1 UNK         0.0600 
    162 H162        2.7850  -14.8087  -44.8222 H         1 UNK         0.0600 
    163 H163        2.0185  -14.6768  -43.2533 H         1 UNK         0.0600 
    164 H164        2.9565  -16.7513  -41.4403 H         1 UNK         0.3000 
    165 H165       -0.0186  -18.5507  -41.1188 H         1 UNK         0.0600 
    166 H166        1.2338  -19.9530  -39.4952 H         1 UNK         0.0600 
    167 H167        1.5770  -20.4677  -41.1390 H         1 UNK         0.0600 
    168 H168        2.7631  -19.5125  -40.2572 H         1 UNK         0.0600 
    169 H169        1.8889  -17.4152  -39.2701 H         1 UNK         0.3000 
    170 H170        0.0326  -14.6299  -38.6242 H         1 UNK         0.0600 
    171 H171        2.8094  -15.8863  -38.2196 H         1 UNK         0.0600 
    172 H172        2.0437  -14.6916  -37.1833 H         1 UNK         0.0600 
    173 H173        1.3481  -16.2942  -37.3249 H         1 UNK         0.0600 
    174 H174        1.0327  -13.0310  -39.7981 H         1 UNK         0.3000 
    175 H175        3.1767  -11.8127  -40.4958 H         1 UNK         0.0600 
    176 H176        4.3187  -13.4370  -42.8248 H         1 UNK         0.0600 
    177 H177        4.6339  -11.7391  -42.4852 H         1 UNK         0.0600 
    178 H178        5.2009  -12.9740  -41.3728 H         1 UNK         0.0600 
    179 H179        2.2101  -12.2958  -43.1648 H         1 UNK         0.3000 
    180 H180       -1.1058  -11.1067  -42.5384 H         1 UNK         0.0600 
    181 H181        1.2884   -9.6856  -43.8029 H         1 UNK         0.0600 
    182 H182        0.2001   -9.0259  -42.5906 H         1 UNK         0.0600 
    183 H183       -0.4025   -9.3806  -44.2023 H         1 UNK         0.0600 
    184 H184        0.7977  -12.0892  -44.6437 H         1 UNK         0.3000 
    185 H185       -1.1109  -14.5351  -45.7424 H         1 UNK         0.0600 
    186 H186       -2.1898  -11.9322  -46.9711 H         1 UNK         0.0600 
    187 H187       -2.1063  -13.4735  -47.8190 H         1 UNK         0.0600 
    188 H188       -3.1462  -13.3026  -46.4154 H         1 UNK         0.0600 
    189 H189        0.4251  -12.1788  -46.7688 H         1 UNK         0.3000 
    190 H190       -1.5399  -20.1613  -44.8710 H         1 UNK         0.3000 
    191 H191       -3.9457  -19.6920  -43.3881 H         1 UNK         0.0600 
    192 H192       -1.5752  -21.5520  -42.8142 H         1 UNK         0.0600 
    193 H193       -1.6863  -19.8560  -42.3459 H         1 UNK         0.0600 
    194 H194       -2.7855  -21.0353  -41.6481 H         1 UNK         0.0600 
    195 H195       -3.0227  -22.1843  -45.6001 H         1 UNK         0.3000 
    196 H196       -5.1976  -24.0347  -44.7641 H         1 UNK         0.0600 
    197 H197       -2.9129  -25.0046  -45.0312 H         1 UNK         0.0600 
    198 H198       -2.8431  -24.4175  -46.6885 H         1 UNK         0.0600 
    199 H199       -4.0171  -25.6483  -46.2332 H         1 UNK         0.0600 
    200 H200       -5.2874  -21.2987  -46.3484 H         1 UNK         0.3000 
    201 H201       -6.5065  -20.3401  -47.9187 H         1 UNK         0.0600 
    202 H202       -8.6347  -21.3622  -48.6353 H         1 UNK         0.0600 
    203 H203       -8.3969  -21.6223  -46.9147 H         1 UNK         0.0600 
    204 H204       -8.1268  -22.9399  -48.0544 H         1 UNK         0.0600 
    205 H205       -4.1764  -21.0043  -48.7992 H         1 UNK         0.3000 
    206 H206       -2.8365  -21.1924  -50.5461 H         1 UNK         0.0600 
    207 H207       -4.4654  -19.7448  -51.7756 H         1 UNK         0.0600 
    208 H208       -5.2954  -21.1807  -52.3717 H         1 UNK         0.0600 
    209 H209       -3.6258  -20.8625  -52.8300 H         1 UNK         0.0600 
    210 H210       -3.3529  -23.3345  -49.0815 H         1 UNK         0.3000 
    211 H211       -3.2566  -25.5419  -48.8085 H         1 UNK         0.0600 
    212 H212       -1.1476  -25.2996  -50.1335 H         1 UNK         0.0600 
    213 H213       -1.8980  -26.8666  -50.3920 H         1 UNK         0.0600 
    214 H214       -2.0384  -25.6199  -51.6202 H         1 UNK         0.0600 
    215 H215       -5.7268  -24.9277  -49.0940 H         1 UNK         0.3000 
    216 H216       -7.7946  -25.3418  -49.7420 H         1 UNK         0.0600 
    217 H217       -8.4284  -27.6988  -50.1440 H         1 UNK         0.0600 
    218 H218       -6.7606  -28.1284  -50.5005 H         1 UNK         0.0600 
    219 H219       -7.2169  -27.6184  -48.8755 H         1 UNK         0.0600 
    220 H220       -6.4002  -23.9025  -51.5480 H         1 UNK         0.3000 
    221 H221       -6.2465  -23.0473  -53.5459 H         1 UNK         0.0600 
    222 H222       -8.7496  -24.6282  -54.3190 H         1 UNK         0.0600 
    223 H223       -8.7477  -23.0873  -53.4608 H         1 UNK         0.0600 
    224 H224       -8.1393  -23.1794  -55.1039 H         1 UNK         0.0600 
    225 H225       -5.0928  -25.9675  -53.0866 H         1 UNK         0.3000 
    226 H226       -4.7983  -26.9263  -55.8212 H         1 UNK         0.0600 
    227 H227       -4.8078  -28.4465  -53.7954 H         1 UNK         0.0600 
    228 H228       -3.4133  -28.6576  -54.8451 H         1 UNK         0.0600 
    229 H229       -3.2390  -27.7801  -53.3359 H         1 UNK         0.0600 
    230 H230       -2.9318  -24.8637  -53.5913 H         1 UNK         0.3000 
    231 H231       -0.6211  -24.6918  -55.4284 H         1 UNK         0.0600 
    232 H232        0.2844  -23.1249  -53.7602 H         1 UNK         0.0600 
    233 H233       -0.2282  -24.6033  -52.9652 H         1 UNK         0.0600 
    234 H234       -1.2130  -23.1457  -52.8484 H         1 UNK         0.0600 
    235 H235       -3.4414  -22.8427  -54.3759 H         1 UNK         0.3000 
    236 H236       -4.6358  -21.1631  -55.1699 H         1 UNK         0.0600 
    237 H237       -4.7381  -22.6216  -57.2083 H         1 UNK         0.0600 
    238 H238       -4.9015  -20.9192  -57.5994 H         1 UNK         0.0600 
    239 H239       -3.3771  -21.7412  -57.8999 H         1 UNK         0.0600 
    240 H240       -1.7323  -20.6219  -54.3374 H         1 UNK         0.3000 
    241 H241       -0.9778  -18.1826  -55.6511 H         1 UNK         0.0600 
    242 H242       -0.7210  -16.0204  -54.5295 H         1 UNK         0.3800 
    243 H243       -1.9943  -15.5598  -53.4366 H         1 UNK         0.3800 
    244 H244        0.7816  -19.5310  -54.7764 H         1 UNK         0.0800 
    245 H245        0.7745  -18.0622  -53.8594 H         1 UNK         0.0800 
    246 H246        2.0688  -18.7936  -51.7721 H         1 UNK         0.0800 
    247 H247        1.2358  -19.5517  -50.4414 H         1 UNK         0.0800 
@<TRIPOS>BOND
     1    1    2 1    
     2    1  127 1    
     3    1  128 1    
     4    1  129 1    
     5    2    3 2    
     6    2    4 am   BACKBONE|DICT|INTERRES
     7    4    5 1    
     8    4  130 1    
     9    5    6 1    
    10    5   65 1    
    11    5  131 1    
    12    6    7 1    
    13    6  132 1    
    14    6  133 1    
    15    7    8 1    
    16    8    9 1    
    17    8  134 1    
    18    8  135 1    
    19    9   10 ar   
    20    9   14 ar   
    21   10   11 ar   
    22   10  136 1    
    23   11   12 ar   
    24   11  126 1    
    25   12   13 ar   
    26   12  137 1    
    27   13   14 ar   
    28   13   15 1    
    29   14  138 1    
    30   15   16 1    
    31   15  139 1    
    32   15  140 1    
    33   16   17 1    
    34   17   18 1    
    35   17  141 1    
    36   17  142 1    
    37   18   19 1    
    38   18   67 1    
    39   18  143 1    
    40   19   20 am   BACKBONE|DICT|INTERRES
    41   19  144 1    
    42   20   21 2    
    43   20   22 1    
    44   22   23 1    
    45   22   24 1    
    46   22  145 1    
    47   23  146 1    
    48   23  147 1    
    49   23  148 1    
    50   24   25 am   BACKBONE|DICT|INTERRES
    51   24  149 1    
    52   25   26 2    
    53   25   27 1    
    54   27   28 1    
    55   27   29 1    
    56   27  150 1    
    57   28  151 1    
    58   28  152 1    
    59   28  153 1    
    60   29   30 am   BACKBONE|DICT|INTERRES
    61   29  154 1    
    62   30   31 2    
    63   30   32 1    
    64   32   33 1    
    65   32   34 1    
    66   32  155 1    
    67   33  156 1    
    68   33  157 1    
    69   33  158 1    
    70   34   35 am   BACKBONE|DICT|INTERRES
    71   34  159 1    
    72   35   36 2    
    73   35   37 1    
    74   37   38 1    
    75   37   39 1    
    76   37  160 1    
    77   38  161 1    
    78   38  162 1    
    79   38  163 1    
    80   39   40 am   BACKBONE|DICT|INTERRES
    81   39  164 1    
    82   40   41 2    
    83   40   42 1    
    84   42   43 1    
    85   42   44 1    
    86   42  165 1    
    87   43  166 1    
    88   43  167 1    
    89   43  168 1    
    90   44   45 am   BACKBONE|DICT|INTERRES
    91   44  169 1    
    92   45   46 2    
    93   45   47 1    
    94   47   48 1    
    95   47   49 1    
    96   47  170 1    
    97   48  171 1    
    98   48  172 1    
    99   48  173 1    
   100   49   50 am   BACKBONE|DICT|INTERRES
   101   49  174 1    
   102   50   51 2    
   103   50   52 1    
   104   52   53 1    
   105   52   54 1    
   106   52  175 1    
   107   53  176 1    
   108   53  177 1    
   109   53  178 1    
   110   54   55 am   BACKBONE|DICT|INTERRES
   111   54  179 1    
   112   55   56 2    
   113   55   57 1    
   114   57   58 1    
   115   57   59 1    
   116   57  180 1    
   117   58  181 1    
   118   58  182 1    
   119   58  183 1    
   120   59   60 am   BACKBONE|DICT|INTERRES
   121   59  184 1    
   122   60   61 2    
   123   60   62 1    
   124   62   63 1    
   125   62   64 1    
   126   62  185 1    
   127   63  186 1    
   128   63  187 1    
   129   63  188 1    
   130   64   65 am   BACKBONE|DICT|INTERRES
   131   64  189 1    
   132   65   66 2    
   133   67   68 2    
   134   67   69 am   BACKBONE|DICT|INTERRES
   135   69   70 1    
   136   69  190 1    
   137   70   71 1    
   138   70   72 1    
   139   70  191 1    
   140   71  192 1    
   141   71  193 1    
   142   71  194 1    
   143   72   73 2    
   144   72   74 am   BACKBONE|DICT|INTERRES
   145   74   75 1    
   146   74  195 1    
   147   75   76 1    
   148   75   77 1    
   149   75  196 1    
   150   76  197 1    
   151   76  198 1    
   152   76  199 1    
   153   77   78 2    
   154   77   79 am   BACKBONE|DICT|INTERRES
   155   79   80 1    
   156   79  200 1    
   157   80   81 1    
   158   80   82 1    
   159   80  201 1    
   160   81  202 1    
   161   81  203 1    
   162   81  204 1    
   163   82   83 2    
   164   82   84 am   BACKBONE|DICT|INTERRES
   165   84   85 1    
   166   84  205 1    
   167   85   86 1    
   168   85   87 1    
   169   85  206 1    
   170   86  207 1    
   171   86  208 1    
   172   86  209 1    
   173   87   88 2    
   174   87   89 am   BACKBONE|DICT|INTERRES
   175   89   90 1    
   176   89  210 1    
   177   90   91 1    
   178   90   92 1    
   179   90  211 1    
   180   91  212 1    
   181   91  213 1    
   182   91  214 1    
   183   92   93 2    
   184   92   94 am   BACKBONE|DICT|INTERRES
   185   94   95 1    
   186   94  215 1    
   187   95   96 1    
   188   95   97 1    
   189   95  216 1    
   190   96  217 1    
   191   96  218 1    
   192   96  219 1    
   193   97   98 2    
   194   97   99 am   BACKBONE|DICT|INTERRES
   195   99  100 1    
   196   99  220 1    
   197  100  101 1    
   198  100  102 1    
   199  100  221 1    
   200  101  222 1    
   201  101  223 1    
   202  101  224 1    
   203  102  103 2    
   204  102  104 am   BACKBONE|DICT|INTERRES
   205  104  105 1    
   206  104  225 1    
   207  105  106 1    
   208  105  107 1    
   209  105  226 1    
   210  106  227 1    
   211  106  228 1    
   212  106  229 1    
   213  107  108 2    
   214  107  109 am   BACKBONE|DICT|INTERRES
   215  109  110 1    
   216  109  230 1    
   217  110  111 1    
   218  110  112 1    
   219  110  231 1    
   220  111  232 1    
   221  111  233 1    
   222  111  234 1    
   223  112  113 2    
   224  112  114 am   BACKBONE|DICT|INTERRES
   225  114  115 1    
   226  114  235 1    
   227  115  116 1    
   228  115  117 1    
   229  115  236 1    
   230  116  237 1    
   231  116  238 1    
   232  116  239 1    
   233  117  118 2    
   234  117  119 am   BACKBONE|DICT|INTERRES
   235  119  120 1    
   236  119  240 1    
   237  120  121 1    
   238  120  124 1    
   239  120  241 1    
   240  121  122 am   BACKBONE|DICT|INTERRES
   241  121  123 2    
   242  122  242 1    
   243  122  243 1    
   244  124  125 1    
   245  124  244 1    
   246  124  245 1    
   247  125  126 1    
   248  126  246 1    
   249  126  247 1    
@<TRIPOS>SUBSTRUCTURE
     1 UNK         1 GROUP             0       ****    0 ROOT    
