@<TRIPOS>MOLECULE
3R540
247   249    1
SMALL
USER_CHARGES


@<TRIPOS>ATOM
      1 CA          0.1251   -8.8207  -49.3203 C.3       0 UNK        -0.1800 
      2 C          -0.0528   -9.9026  -48.2655 C.2       0 UNK         0.5000 
      3 O           0.9318  -10.4826  -47.8081 O.2       0 UNK        -0.5000 
      4 N          -1.3023  -10.1650  -47.8559 N.am      1 UNK        -0.5000 
      5 CA         -1.6653  -11.2020  -46.8762 C.3       1 UNK         0.1400 
      6 C6         -3.1833  -11.5330  -46.9111 C.3       23 UNK        -0.0398 
      7 S7         -3.4749  -13.3337  -46.9730 S.3       23 UNK        -0.2404 
      8 C8         -4.1616  -13.5115  -48.6501 C.3       23 UNK        -0.0205 
      9 C9         -4.1891  -14.9641  -49.1003 C.ar      23 UNK        -0.0193 
     10 C10        -3.4124  -15.3783  -50.1877 C.ar      23 UNK        -0.1150 
     11 C11        -3.4439  -16.7081  -50.6158 C.ar      23 UNK        -0.0193 
     12 C12        -4.2414  -17.6286  -49.9336 C.ar      23 UNK        -0.1150 
     13 C13        -5.0251  -17.2306  -48.8478 C.ar      23 UNK        -0.0193 
     14 C14        -5.0058  -15.8918  -48.4453 C.ar      23 UNK        -0.1150 
     15 C15        -5.9009  -18.2493  -48.1285 C.3       23 UNK        -0.0205 
     16 S16        -5.5165  -18.4155  -46.3522 S.3       23 UNK        -0.2404 
     17 C17        -3.7003  -18.6200  -46.3246 C.3       23 UNK        -0.0398 
     18 CA         -3.1439  -19.8356  -47.1056 C.3       11 UNK         0.1400 
     19 N          -1.6840  -19.7862  -47.1818 N.am      11 UNK        -0.5000 
     20 C          -0.9265  -20.5586  -47.9714 C.2       10 UNK         0.5000 
     21 O          -1.3828  -21.3667  -48.7775 O.2       10 UNK        -0.5000 
     22 CA          0.5987  -20.4352  -47.8058 C.3       10 UNK         0.1400 
     23 CB          1.1359  -19.2562  -48.6272 C.3       10 UNK        -0.1800 
     24 N           1.0121  -20.2893  -46.4085 N.am      10 UNK        -0.5000 
     25 C           0.8161  -21.2144  -45.4576 C.2       9 UNK         0.5000 
     26 O           0.2975  -22.3096  -45.6658 O.2       9 UNK        -0.5000 
     27 CA          1.2128  -20.8341  -44.0211 C.3       9 UNK         0.1400 
     28 CB          2.7302  -20.9557  -43.8160 C.3       9 UNK        -0.1800 
     29 N           0.7740  -19.4874  -43.6610 N.am      9 UNK        -0.5000 
     30 C          -0.5034  -19.0872  -43.6019 C.2       8 UNK         0.5000 
     31 O          -1.4648  -19.8288  -43.8038 O.2       8 UNK        -0.5000 
     32 CA         -0.7424  -17.5920  -43.3303 C.3       8 UNK         0.1400 
     33 CB         -0.5895  -17.2635  -41.8371 C.3       8 UNK        -0.1800 
     34 N           0.1527  -16.7446  -44.1185 N.am      8 UNK        -0.5000 
     35 C           0.1019  -16.6308  -45.4531 C.2       7 UNK         0.5000 
     36 O          -0.7228  -17.2127  -46.1561 O.2       7 UNK        -0.5000 
     37 CA          1.1768  -15.7505  -46.1151 C.3       7 UNK         0.1400 
     38 CB          0.7436  -14.2784  -46.1055 C.3       7 UNK        -0.1800 
     39 N           2.4912  -15.8850  -45.4832 N.am      7 UNK        -0.5000 
     40 C           3.2165  -17.0117  -45.4956 C.2       6 UNK         0.5000 
     41 O           2.8561  -18.0502  -46.0497 O.2       6 UNK        -0.5000 
     42 CA          4.5436  -16.9933  -44.7154 C.3       6 UNK         0.1400 
     43 CB          5.6256  -16.2251  -45.4896 C.3       6 UNK        -0.1800 
     44 N           4.4285  -16.4479  -43.3592 N.am      6 UNK        -0.5000 
     45 C           3.6151  -16.9193  -42.4029 C.2       5 UNK         0.5000 
     46 O           2.8074  -17.8273  -42.5874 O.2       5 UNK        -0.5000 
     47 CA          3.7003  -16.2833  -41.0017 C.3       5 UNK         0.1400 
     48 CB          4.2647  -17.2993  -39.9969 C.3       5 UNK        -0.1800 
     49 N           4.5296  -15.0753  -40.9538 N.am      5 UNK        -0.5000 
     50 C           4.1800  -13.8230  -41.2787 C.2       4 UNK         0.5000 
     51 O           4.9890  -12.8985  -41.1873 O.2       4 UNK        -0.5000 
     52 CA          2.7366  -13.5147  -41.7438 C.3       4 UNK         0.1400 
     53 CB          1.8356  -13.1797  -40.5450 C.3       4 UNK        -0.1800 
     54 N           2.7182  -12.3837  -42.6662 N.am      4 UNK        -0.5000 
     55 C           3.1829  -12.4059  -43.9189 C.2       3 UNK         0.5000 
     56 O           3.5598  -13.4405  -44.4731 O.2       3 UNK        -0.5000 
     57 CA          3.2170  -11.0535  -44.6668 C.3       3 UNK         0.1400 
     58 CB          3.7628  -11.1891  -46.0993 C.3       3 UNK        -0.1800 
     59 N           1.9071  -10.3976  -44.7209 N.am      3 UNK        -0.5000 
     60 C           1.2859   -9.7882  -43.6986 C.2       2 UNK         0.5000 
     61 O           1.7812   -9.6848  -42.5750 O.2       2 UNK        -0.5000 
     62 CA         -0.1184   -9.1983  -43.9504 C.3       2 UNK         0.1400 
     63 CB         -0.0611   -7.6628  -43.9674 C.3       2 UNK        -0.1800 
     64 N          -0.7379   -9.6558  -45.1942 N.am      2 UNK        -0.5000 
     65 C          -1.1776  -10.8985  -45.4382 C.2       1 UNK         0.5000 
     66 O          -1.1868  -11.7893  -44.5889 O.2       1 UNK        -0.5000 
     67 C          -3.6448  -21.1847  -46.5458 C.2       11 UNK         0.5000 
     68 O          -4.5825  -21.7590  -47.1008 O.2       11 UNK        -0.5000 
     69 N          -3.0000  -21.6774  -45.4808 N.am      12 UNK        -0.5000 
     70 CA         -3.3491  -22.9276  -44.8059 C.3       12 UNK         0.1400 
     71 CB         -2.6941  -22.9343  -43.4159 C.3       12 UNK        -0.1800 
     72 C          -2.9609  -24.2019  -45.5828 C.2       12 UNK         0.5000 
     73 O          -3.5770  -25.2438  -45.3562 O.2       12 UNK        -0.5000 
     74 N          -1.9336  -24.1145  -46.4393 N.am      13 UNK        -0.5000 
     75 CA         -1.3326  -25.2325  -47.1701 C.3       13 UNK         0.1400 
     76 CB         -0.1499  -24.7114  -48.0020 C.3       13 UNK        -0.1800 
     77 C          -2.3122  -25.9953  -48.0816 C.2       13 UNK         0.5000 
     78 O          -3.1190  -25.3689  -48.7729 O.2       13 UNK        -0.5000 
     79 N          -2.1602  -27.3283  -48.1063 N.am      14 UNK        -0.5000 
     80 CA         -2.8864  -28.3020  -48.9301 C.3       14 UNK         0.1400 
     81 CB         -2.4124  -28.2079  -50.3969 C.3       14 UNK        -0.1800 
     82 C          -4.4177  -28.1992  -48.7560 C.2       14 UNK         0.5000 
     83 O          -4.8929  -28.1078  -47.6231 O.2       14 UNK        -0.5000 
     84 N          -5.1665  -28.1848  -49.8660 N.am      15 UNK        -0.5000 
     85 CA         -6.6196  -27.9955  -49.9226 C.3       15 UNK         0.1400 
     86 CB         -7.1494  -28.6934  -51.1890 C.3       15 UNK        -0.1800 
     87 C          -7.0158  -26.5010  -49.8618 C.2       15 UNK         0.5000 
     88 O          -7.9299  -26.0810  -50.5732 O.2       15 UNK        -0.5000 
     89 N          -6.2998  -25.7380  -49.0238 N.am      16 UNK        -0.5000 
     90 CA         -6.2605  -24.2808  -48.8836 C.3       16 UNK         0.1400 
     91 CB         -7.6519  -23.6803  -48.6081 C.3       16 UNK        -0.1800 
     92 C          -5.5736  -23.5957  -50.0797 C.2       16 UNK         0.5000 
     93 O          -5.6725  -24.0532  -51.2216 O.2       16 UNK        -0.5000 
     94 N          -4.8628  -22.5006  -49.7844 N.am      17 UNK        -0.5000 
     95 CA         -4.1192  -21.6524  -50.7211 C.3       17 UNK         0.1400 
     96 CB         -5.1028  -20.8808  -51.6268 C.3       17 UNK        -0.1800 
     97 C          -3.0450  -22.4092  -51.5306 C.2       17 UNK         0.5000 
     98 O          -2.7762  -22.0368  -52.6732 O.2       17 UNK        -0.5000 
     99 N          -2.4869  -23.4875  -50.9604 N.am      18 UNK        -0.5000 
    100 CA        -1.5682  -24.4380  -51.5974 C.3       18 UNK         0.1400 
    101 CB        -0.2172  -23.7673  -51.9162 C.3       18 UNK        -0.1800 
    102 C         -2.2037  -25.1356  -52.8207 C.2       18 UNK         0.5000 
    103 O         -1.5146  -25.3969  -53.8067 O.2       18 UNK        -0.5000 
    104 N         -3.5176  -25.3985  -52.7272 N.am      19 UNK        -0.5000 
    105 CA        -4.4075  -25.8859  -53.7841 C.3       19 UNK         0.1400 
    106 CB        -3.9961  -27.2905  -54.2734 C.3       19 UNK        -0.1800 
    107 C         -4.5600  -24.8451  -54.9132 C.2       19 UNK         0.5000 
    108 O         -4.4399  -25.1807  -56.0927 O.2       19 UNK        -0.5000 
    109 N         -4.8253  -23.5948  -54.5036 N.am      20 UNK        -0.5000 
    110 CA        -5.0100  -22.3968  -55.3304 C.3       20 UNK         0.1400 
    111 CB        -6.2944  -22.5123  -56.1778 C.3       20 UNK        -0.1800 
    112 C         -3.7592  -22.0389  -56.1611 C.2       20 UNK         0.5000 
    113 O         -3.8482  -21.8675  -57.3790 O.2       20 UNK        -0.5000 
    114 N         -2.6143  -21.9318  -55.4773 N.am      21 UNK        -0.5000 
    115 CA        -1.3166  -21.5848  -56.0625 C.3       21 UNK         0.1400 
    116 CB        -0.5120  -22.8723  -56.3042 C.3       21 UNK        -0.1800 
    117 C         -0.5116  -20.5982  -55.1959 C.2       21 UNK         0.5000 
    118 O          0.3147  -19.8639  -55.7380 O.2       21 UNK        -0.5000 
    119 N         -0.7516  -20.5929  -53.8777 N.am      22 UNK        -0.5000 
    120 CA        -0.0618  -19.7848  -52.8566 C.3       22 UNK         0.1400 
    121 C          1.4549  -20.1046  -52.6589 C.2       22 UNK         0.5000 
    122 N          1.9631  -21.2330  -53.1392 N.am      22 UNK        -0.7600 
    123 O          2.1849  -19.3334  -52.0435 O.2       22 UNK        -0.5000 
    124 C124       -0.3584  -18.2607  -52.9972 C.3       23 UNK        -0.0398 
    125 S125       -0.9203  -17.5219  -51.4232 S.3       23 UNK        -0.2404 
    126 C126       -2.6500  -17.1475  -51.8358 C.3       23 UNK        -0.0205 
    127 H127       -0.8284   -8.3852  -49.6198 H         1 UNK         0.0600 
    128 H128        0.6025   -9.2378  -50.2070 H         1 UNK         0.0600 
    129 H129        0.7586   -8.0219  -48.9347 H         1 UNK         0.0600 
    130 H130       -2.0701   -9.6421  -48.2533 H         1 UNK         0.3000 
    131 H131       -1.1117  -12.0891  -47.1885 H         1 UNK         0.0600 
    132 H132       -3.7146  -11.1243  -46.0492 H         1 UNK         0.0800 
    133 H133       -3.6629  -11.0739  -47.7764 H         1 UNK         0.0800 
    134 H134       -5.1740  -13.1056  -48.6722 H         1 UNK         0.0800 
    135 H135       -3.5702  -12.9133  -49.3455 H         1 UNK         0.0800 
    136 H136       -2.7894  -14.6660  -50.7103 H         1 UNK         0.1150 
    137 H137       -4.2581  -18.6557  -50.2596 H         1 UNK         0.1150 
    138 H138       -5.6128  -15.5749  -47.6086 H         1 UNK         0.1150 
    139 H139       -6.9445  -17.9501  -48.2327 H         1 UNK         0.0800 
    140 H140       -5.8220  -19.2319  -48.5965 H         1 UNK         0.0800 
    141 H141       -3.3858  -18.6643  -45.2814 H         1 UNK         0.0800 
    142 H142       -3.2654  -17.7011  -46.7200 H         1 UNK         0.0800 
    143 H143       -3.5042  -19.7628  -48.1304 H         1 UNK         0.0600 
    144 H144       -1.2262  -19.0930  -46.5982 H         1 UNK         0.3000 
    145 H145        1.0475  -21.3526  -48.1924 H         1 UNK         0.0600 
    146 H146        2.2247  -19.2141  -48.5960 H         1 UNK         0.0600 
    147 H147        0.8439  -19.3494  -49.6727 H         1 UNK         0.0600 
    148 H148        0.7516  -18.3025  -48.2652 H         1 UNK         0.0600 
    149 H149        1.4913  -19.4270  -46.1636 H         1 UNK         0.3000 
    150 H150        0.7213  -21.5355  -43.3439 H         1 UNK         0.0600 
    151 H151        3.0785  -21.9595  -44.0619 H         1 UNK         0.0600 
    152 H152        3.0034  -20.7602  -42.7789 H         1 UNK         0.0600 
    153 H153        3.2801  -20.2531  -44.4426 H         1 UNK         0.0600 
    154 H154        1.5069  -18.8171  -43.4393 H         1 UNK         0.3000 
    155 H155       -1.7689  -17.3604  -43.6228 H         1 UNK         0.0600 
    156 H156       -1.2848  -17.8532  -41.2384 H         1 UNK         0.0600 
    157 H157       -0.8026  -16.2126  -41.6405 H         1 UNK         0.0600 
    158 H158        0.4151  -17.4761  -41.4721 H         1 UNK         0.0600 
    159 H159        0.8973  -16.2786  -43.6242 H         1 UNK         0.3000 
    160 H160        1.2696  -16.0686  -47.1555 H         1 UNK         0.0600 
    161 H161        0.6736  -13.8842  -45.0910 H         1 UNK         0.0600 
    162 H162       -0.2365  -14.1647  -46.5694 H         1 UNK         0.0600 
    163 H163        1.4427  -13.6544  -46.6619 H         1 UNK         0.0600 
    164 H164        2.8802  -15.0549  -45.0395 H         1 UNK         0.3000 
    165 H165        4.8740  -18.0295  -44.6180 H         1 UNK         0.0600 
    166 H166        6.5951  -16.3067  -44.9980 H         1 UNK         0.0600 
    167 H167        5.7398  -16.6226  -46.4990 H         1 UNK         0.0600 
    168 H168        5.3837  -15.1656  -45.5799 H         1 UNK         0.0600 
    169 H169        5.0438  -15.6811  -43.1302 H         1 UNK         0.3000 
    170 H170        2.6834  -16.0467  -40.6864 H         1 UNK         0.0600 
    171 H171        3.6562  -18.2045  -39.9691 H         1 UNK         0.0600 
    172 H172        5.2827  -17.5967  -40.2521 H         1 UNK         0.0600 
    173 H173        4.2777  -16.8896  -38.9866 H         1 UNK         0.0600 
    174 H174        5.4779  -15.2261  -40.6421 H         1 UNK         0.3000 
    175 H175        2.3150  -14.3695  -42.2724 H         1 UNK         0.0600 
    176 H176        2.1913  -12.2976  -40.0108 H         1 UNK         0.0600 
    177 H177        0.8115  -12.9858  -40.8651 H         1 UNK         0.0600 
    178 H178        1.8014  -14.0021  -39.8300 H         1 UNK         0.0600 
    179 H179        2.4324  -11.4849  -42.2903 H         1 UNK         0.3000 
    180 H180        3.9013  -10.4055  -44.1156 H         1 UNK         0.0600 
    181 H181        3.1305  -11.8331  -46.7113 H         1 UNK         0.0600 
    182 H182        4.7656  -11.6180  -46.0983 H         1 UNK         0.0600 
    183 H183        3.8256  -10.2185  -46.5916 H         1 UNK         0.0600 
    184 H184        1.4297  -10.4443  -45.6129 H         1 UNK         0.3000 
    185 H185       -0.7544   -9.5090  -43.1189 H         1 UNK         0.0600 
    186 H186        0.3613   -7.2759  -43.0391 H         1 UNK         0.0600 
    187 H187        0.5552   -7.2926  -44.7877 H         1 UNK         0.0600 
    188 H188       -1.0567   -7.2314  -44.0729 H         1 UNK         0.0600 
    189 H189       -0.7664   -8.9906  -45.9531 H         1 UNK         0.3000 
    190 H190       -2.2615  -21.1247  -45.0549 H         1 UNK         0.3000 
    191 H191       -4.4323  -22.9477  -44.6687 H         1 UNK         0.0600 
    192 H192       -3.0275  -22.0853  -42.8188 H         1 UNK         0.0600 
    193 H193       -2.9500  -23.8401  -42.8646 H         1 UNK         0.0600 
    194 H194       -1.6066  -22.8868  -43.4862 H         1 UNK         0.0600 
    195 H195       -1.4496  -23.2275  -46.5078 H         1 UNK         0.3000 
    196 H196       -0.9442  -25.9282  -46.4238 H         1 UNK         0.0600 
    197 H197        0.2972  -25.5080  -48.5981 H         1 UNK         0.0600 
    198 H198        0.6369  -24.3093  -47.3646 H         1 UNK         0.0600 
    199 H199       -0.4604  -23.9233  -48.6881 H         1 UNK         0.0600 
    200 H200       -1.4822  -27.7343  -47.4771 H         1 UNK         0.3000 
    201 H201       -2.6071  -29.2879  -48.5561 H         1 UNK         0.0600 
    202 H202       -1.3257  -28.2625  -50.4622 H         1 UNK         0.0600 
    203 H203       -2.7239  -27.2736  -50.8592 H         1 UNK         0.0600 
    204 H204       -2.8077  -29.0281  -50.9975 H         1 UNK         0.0600 
    205 H205       -4.6944  -28.2350  -50.7565 H         1 UNK         0.3000 
    206 H206       -7.0763  -28.4823  -49.0584 H         1 UNK         0.0600 
    207 H207       -6.8716  -29.7474  -51.2041 H         1 UNK         0.0600 
    208 H208       -8.2380  -28.6480  -51.2376 H         1 UNK         0.0600 
    209 H209       -6.7588  -28.2299  -52.0960 H         1 UNK         0.0600 
    210 H210       -5.5741  -26.2166  -48.5040 H         1 UNK         0.3000 
    211 H211       -5.6419  -24.1023  -48.0026 H         1 UNK         0.0600 
    212 H212       -8.3025  -23.7363  -49.4810 H         1 UNK         0.0600 
    213 H213       -7.5680  -22.6275  -48.3360 H         1 UNK         0.0600 
    214 H214       -8.1473  -24.1911  -47.7825 H         1 UNK         0.0600 
    215 H215       -4.7999  -22.2279  -48.8036 H         1 UNK         0.3000 
    216 H216       -3.5790  -20.9224  -50.1222 H         1 UNK         0.0600 
    217 H217       -4.5804  -20.1647  -52.2621 H         1 UNK         0.0600 
    218 H218       -5.8264  -20.3208  -51.0348 H         1 UNK         0.0600 
    219 H219       -5.6626  -21.5504  -52.2790 H         1 UNK         0.0600 
    220 H220       -2.7924  -23.7471  -50.0279 H         1 UNK         0.3000 
    221 H221       -1.3752  -25.2209  -50.8648 H         1 UNK         0.0600 
    222 H222       -0.3015  -23.0737  -52.7503 H         1 UNK         0.0600 
    223 H223        0.1672  -23.2165  -51.0576 H         1 UNK         0.0600 
    224 H224        0.5313  -24.5119  -52.1886 H         1 UNK         0.0600 
    225 H225       -3.9995  -25.0776  -51.8940 H         1 UNK         0.3000 
    226 H226       -5.3934  -25.9816  -53.3261 H         1 UNK         0.0600 
    227 H227       -3.8993  -27.9860  -53.4400 H         1 UNK         0.0600 
    228 H228       -4.7466  -27.6984  -54.9512 H         1 UNK         0.0600 
    229 H229       -3.0482  -27.2764  -54.8115 H         1 UNK         0.0600 
    230 H230       -4.8830  -23.4438  -53.5053 H         1 UNK         0.3000 
    231 H231       -5.1546  -21.5663  -54.6388 H         1 UNK         0.0600 
    232 H232       -6.2212  -23.3046  -56.9233 H         1 UNK         0.0600 
    233 H233       -6.4954  -21.5816  -56.7095 H         1 UNK         0.0600 
    234 H234       -7.1617  -22.7206  -55.5512 H         1 UNK         0.0600 
    235 H235       -2.6463  -22.0769  -54.4709 H         1 UNK         0.3000 
    236 H236       -1.4674  -21.0904  -57.0244 H         1 UNK         0.0600 
    237 H237       -1.0389  -23.5435  -56.9826 H         1 UNK         0.0600 
    238 H238        0.4581  -22.6521  -56.7516 H         1 UNK         0.0600 
    239 H239       -0.3326  -23.4130  -55.3744 H         1 UNK         0.0600 
    240 H240       -1.4679  -21.2097  -53.5026 H         1 UNK         0.3000 
    241 H241       -0.5143  -20.1328  -51.9270 H         1 UNK         0.0600 
    242 H242        2.9417  -21.4294  -53.0009 H         1 UNK         0.3800 
    243 H243        1.3903  -21.8770  -53.6577 H         1 UNK         0.3800 
    244 H244        0.5136  -17.7097  -53.3535 H         1 UNK         0.0800 
    245 H245       -1.1231  -18.0847  -53.7546 H         1 UNK         0.0800 
    246 H246       -2.6787  -16.3653  -52.5960 H         1 UNK         0.0800 
    247 H247       -3.1128  -18.0286  -52.2834 H         1 UNK         0.0800 
@<TRIPOS>BOND
     1    1    2 1    
     2    1  127 1    
     3    1  128 1    
     4    1  129 1    
     5    2    3 2    
     6    2    4 am   BACKBONE|DICT|INTERRES
     7    4    5 1    
     8    4  130 1    
     9    5    6 1    
    10    5   65 1    
    11    5  131 1    
    12    6    7 1    
    13    6  132 1    
    14    6  133 1    
    15    7    8 1    
    16    8    9 1    
    17    8  134 1    
    18    8  135 1    
    19    9   10 ar   
    20    9   14 ar   
    21   10   11 ar   
    22   10  136 1    
    23   11   12 ar   
    24   11  126 1    
    25   12   13 ar   
    26   12  137 1    
    27   13   14 ar   
    28   13   15 1    
    29   14  138 1    
    30   15   16 1    
    31   15  139 1    
    32   15  140 1    
    33   16   17 1    
    34   17   18 1    
    35   17  141 1    
    36   17  142 1    
    37   18   19 1    
    38   18   67 1    
    39   18  143 1    
    40   19   20 am   BACKBONE|DICT|INTERRES
    41   19  144 1    
    42   20   21 2    
    43   20   22 1    
    44   22   23 1    
    45   22   24 1    
    46   22  145 1    
    47   23  146 1    
    48   23  147 1    
    49   23  148 1    
    50   24   25 am   BACKBONE|DICT|INTERRES
    51   24  149 1    
    52   25   26 2    
    53   25   27 1    
    54   27   28 1    
    55   27   29 1    
    56   27  150 1    
    57   28  151 1    
    58   28  152 1    
    59   28  153 1    
    60   29   30 am   BACKBONE|DICT|INTERRES
    61   29  154 1    
    62   30   31 2    
    63   30   32 1    
    64   32   33 1    
    65   32   34 1    
    66   32  155 1    
    67   33  156 1    
    68   33  157 1    
    69   33  158 1    
    70   34   35 am   BACKBONE|DICT|INTERRES
    71   34  159 1    
    72   35   36 2    
    73   35   37 1    
    74   37   38 1    
    75   37   39 1    
    76   37  160 1    
    77   38  161 1    
    78   38  162 1    
    79   38  163 1    
    80   39   40 am   BACKBONE|DICT|INTERRES
    81   39  164 1    
    82   40   41 2    
    83   40   42 1    
    84   42   43 1    
    85   42   44 1    
    86   42  165 1    
    87   43  166 1    
    88   43  167 1    
    89   43  168 1    
    90   44   45 am   BACKBONE|DICT|INTERRES
    91   44  169 1    
    92   45   46 2    
    93   45   47 1    
    94   47   48 1    
    95   47   49 1    
    96   47  170 1    
    97   48  171 1    
    98   48  172 1    
    99   48  173 1    
   100   49   50 am   BACKBONE|DICT|INTERRES
   101   49  174 1    
   102   50   51 2    
   103   50   52 1    
   104   52   53 1    
   105   52   54 1    
   106   52  175 1    
   107   53  176 1    
   108   53  177 1    
   109   53  178 1    
   110   54   55 am   BACKBONE|DICT|INTERRES
   111   54  179 1    
   112   55   56 2    
   113   55   57 1    
   114   57   58 1    
   115   57   59 1    
   116   57  180 1    
   117   58  181 1    
   118   58  182 1    
   119   58  183 1    
   120   59   60 am   BACKBONE|DICT|INTERRES
   121   59  184 1    
   122   60   61 2    
   123   60   62 1    
   124   62   63 1    
   125   62   64 1    
   126   62  185 1    
   127   63  186 1    
   128   63  187 1    
   129   63  188 1    
   130   64   65 am   BACKBONE|DICT|INTERRES
   131   64  189 1    
   132   65   66 2    
   133   67   68 2    
   134   67   69 am   BACKBONE|DICT|INTERRES
   135   69   70 1    
   136   69  190 1    
   137   70   71 1    
   138   70   72 1    
   139   70  191 1    
   140   71  192 1    
   141   71  193 1    
   142   71  194 1    
   143   72   73 2    
   144   72   74 am   BACKBONE|DICT|INTERRES
   145   74   75 1    
   146   74  195 1    
   147   75   76 1    
   148   75   77 1    
   149   75  196 1    
   150   76  197 1    
   151   76  198 1    
   152   76  199 1    
   153   77   78 2    
   154   77   79 am   BACKBONE|DICT|INTERRES
   155   79   80 1    
   156   79  200 1    
   157   80   81 1    
   158   80   82 1    
   159   80  201 1    
   160   81  202 1    
   161   81  203 1    
   162   81  204 1    
   163   82   83 2    
   164   82   84 am   BACKBONE|DICT|INTERRES
   165   84   85 1    
   166   84  205 1    
   167   85   86 1    
   168   85   87 1    
   169   85  206 1    
   170   86  207 1    
   171   86  208 1    
   172   86  209 1    
   173   87   88 2    
   174   87   89 am   BACKBONE|DICT|INTERRES
   175   89   90 1    
   176   89  210 1    
   177   90   91 1    
   178   90   92 1    
   179   90  211 1    
   180   91  212 1    
   181   91  213 1    
   182   91  214 1    
   183   92   93 2    
   184   92   94 am   BACKBONE|DICT|INTERRES
   185   94   95 1    
   186   94  215 1    
   187   95   96 1    
   188   95   97 1    
   189   95  216 1    
   190   96  217 1    
   191   96  218 1    
   192   96  219 1    
   193   97   98 2    
   194   97   99 am   BACKBONE|DICT|INTERRES
   195   99  100 1    
   196   99  220 1    
   197  100  101 1    
   198  100  102 1    
   199  100  221 1    
   200  101  222 1    
   201  101  223 1    
   202  101  224 1    
   203  102  103 2    
   204  102  104 am   BACKBONE|DICT|INTERRES
   205  104  105 1    
   206  104  225 1    
   207  105  106 1    
   208  105  107 1    
   209  105  226 1    
   210  106  227 1    
   211  106  228 1    
   212  106  229 1    
   213  107  108 2    
   214  107  109 am   BACKBONE|DICT|INTERRES
   215  109  110 1    
   216  109  230 1    
   217  110  111 1    
   218  110  112 1    
   219  110  231 1    
   220  111  232 1    
   221  111  233 1    
   222  111  234 1    
   223  112  113 2    
   224  112  114 am   BACKBONE|DICT|INTERRES
   225  114  115 1    
   226  114  235 1    
   227  115  116 1    
   228  115  117 1    
   229  115  236 1    
   230  116  237 1    
   231  116  238 1    
   232  116  239 1    
   233  117  118 2    
   234  117  119 am   BACKBONE|DICT|INTERRES
   235  119  120 1    
   236  119  240 1    
   237  120  121 1    
   238  120  124 1    
   239  120  241 1    
   240  121  122 am   BACKBONE|DICT|INTERRES
   241  121  123 2    
   242  122  242 1    
   243  122  243 1    
   244  124  125 1    
   245  124  244 1    
   246  124  245 1    
   247  125  126 1    
   248  126  246 1    
   249  126  247 1    
@<TRIPOS>SUBSTRUCTURE
     1 UNK         1 GROUP             0       ****    0 ROOT    
