@<TRIPOS>MOLECULE
3R540
247   249    1
SMALL
USER_CHARGES


@<TRIPOS>ATOM
      1 CA         -0.8025  -10.5351  -49.8408 C.3       0 UNK        -0.1800 
      2 C           0.0433  -11.6887  -49.3204 C.2       0 UNK         0.5000 
      3 O          -0.2628  -12.2410  -48.2648 O.2       0 UNK        -0.5000 
      4 N           1.1089  -12.0412  -50.0534 N.am      1 UNK        -0.5000 
      5 CA          2.0461  -13.1425  -49.7709 C.3       1 UNK         0.1400 
      6 C6          1.3826  -14.5481  -49.7812 C.3       23 UNK        -0.0398 
      7 S7          0.6401  -14.9441  -51.4035 S.3       23 UNK        -0.2404 
      8 C8          1.9211  -15.9996  -52.1569 C.3       23 UNK        -0.0205 
      9 C9          1.8406  -17.4324  -51.6520 C.ar      23 UNK        -0.0193 
     10 C10         0.9751  -18.3446  -52.2651 C.ar      23 UNK        -0.1150 
     11 C11         0.8838  -19.6595  -51.7985 C.ar      23 UNK        -0.0193 
     12 C12         1.6576  -20.0541  -50.7059 C.ar      23 UNK        -0.1150 
     13 C13         2.5116  -19.1478  -50.0733 C.ar      23 UNK        -0.0193 
     14 C14         2.6194  -17.8460  -50.5671 C.ar      23 UNK        -0.1150 
     15 C15         3.2816  -19.5643  -48.8294 C.3       23 UNK        -0.0205 
     16 S16         2.6204  -18.7950  -47.3094 S.3       23 UNK        -0.2404 
     17 C17         0.8193  -19.0852  -47.4352 C.3       23 UNK        -0.0398 
     18 CA          0.4177  -20.5762  -47.3519 C.3       11 UNK         0.1400 
     19 N           0.7763  -21.1993  -46.0759 N.am      11 UNK        -0.5000 
     20 C           0.6994  -22.5149  -45.8310 C.2       10 UNK         0.5000 
     21 O           0.3742  -23.3488  -46.6757 O.2       10 UNK        -0.5000 
     22 CA          0.9690  -22.9688  -44.3866 C.3       10 UNK         0.1400 
     23 CB          2.4745  -23.1214  -44.1220 C.3       10 UNK        -0.1800 
     24 N           0.3784  -22.0485  -43.4146 N.am      10 UNK        -0.5000 
     25 C          -0.9405  -21.9126  -43.2153 C.2       9 UNK         0.5000 
     26 O          -1.7902  -22.5937  -43.7888 O.2       9 UNK        -0.5000 
     27 CA         -1.3861  -20.7995  -42.2504 C.3       9 UNK         0.1400 
     28 CB         -1.3595  -21.2960  -40.7977 C.3       9 UNK        -0.1800 
     29 N          -0.5646  -19.5945  -42.3748 N.am      9 UNK        -0.5000 
     30 C          -0.5827  -18.7837  -43.4444 C.2       8 UNK         0.5000 
     31 O          -1.3157  -18.9578  -44.4164 O.2       8 UNK        -0.5000 
     32 CA          0.4094  -17.6045  -43.4576 C.3       8 UNK         0.1400 
     33 CB         -0.2315  -16.3806  -42.7916 C.3       8 UNK        -0.1800 
     34 N           1.6833  -17.9014  -42.8005 N.am      8 UNK        -0.5000 
     35 C           2.4970  -18.9192  -43.1190 C.2       7 UNK         0.5000 
     36 O           2.2872  -19.6891  -44.0550 O.2       7 UNK        -0.5000 
     37 CA          3.7096  -19.1670  -42.2009 C.3       7 UNK         0.1400 
     38 CB          4.9730  -18.5435  -42.8114 C.3       7 UNK        -0.1800 
     39 N           3.5373  -18.6592  -40.8367 N.am      7 UNK        -0.5000 
     40 C           2.5516  -18.9864  -39.9881 C.2       6 UNK         0.5000 
     41 O           1.6701  -19.8074  -40.2459 O.2       6 UNK        -0.5000 
     42 CA          2.4988  -18.2191  -38.6528 C.3       6 UNK         0.1400 
     43 CB          3.8841  -17.7465  -38.1585 C.3       6 UNK        -0.1800 
     44 N           1.5586  -17.0916  -38.7005 N.am      6 UNK        -0.5000 
     45 C           1.5739  -16.0529  -39.5491 C.2       5 UNK         0.5000 
     46 O           2.3799  -15.9298  -40.4777 O.2       5 UNK        -0.5000 
     47 CA          0.5089  -14.9662  -39.3249 C.3       5 UNK         0.1400 
     48 CB          0.6257  -14.3316  -37.9248 C.3       5 UNK        -0.1800 
     49 N           0.6837  -13.9397  -40.3464 N.am      5 UNK        -0.5000 
     50 C          -0.2265  -13.0486  -40.7534 C.2       4 UNK         0.5000 
     51 O          -1.3723  -12.9947  -40.3052 O.2       4 UNK        -0.5000 
     52 CA          0.2130  -12.0377  -41.8318 C.3       4 UNK         0.1400 
     53 CB          0.3637  -10.6367  -41.2167 C.3       4 UNK        -0.1800 
     54 N           1.4853  -12.4078  -42.4604 N.am      4 UNK        -0.5000 
     55 C           1.6013  -13.0124  -43.6482 C.2       3 UNK         0.5000 
     56 O           0.6470  -13.2962  -44.3746 O.2       3 UNK        -0.5000 
     57 CA          3.0285  -13.3809  -44.0909 C.3       3 UNK         0.1400 
     58 CB          3.2055  -14.9062  -44.1701 C.3       3 UNK        -0.1800 
     59 N           3.3535  -12.7904  -45.3863 N.am      3 UNK        -0.5000 
     60 C           3.5493  -11.4873  -45.6135 C.2       2 UNK         0.5000 
     61 O           3.4840  -10.6292  -44.7320 O.2       2 UNK        -0.5000 
     62 CA          3.8999  -11.0564  -47.0526 C.3       2 UNK         0.1400 
     63 CB          5.3947  -11.2880  -47.3456 C.3       2 UNK        -0.1800 
     64 N           3.0594  -11.6246  -48.1165 N.am      2 UNK        -0.5000 
     65 C           2.9254  -12.8981  -48.5191 C.2       1 UNK         0.5000 
     66 O           3.4904  -13.8472  -47.9732 O.2       1 UNK        -0.5000 
     67 C          -1.0770  -20.7631  -47.6849 C.2       11 UNK         0.5000 
     68 O          -1.4013  -21.1151  -48.8186 O.2       11 UNK        -0.5000 
     69 N          -1.9572  -20.5783  -46.6897 N.am      12 UNK        -0.5000 
     70 CA         -3.3968  -20.8183  -46.8051 C.3       12 UNK         0.1400 
     71 CB         -4.1133  -20.3243  -45.5404 C.3       12 UNK        -0.1800 
     72 C          -3.7368  -22.2934  -47.0811 C.2       12 UNK         0.5000 
     73 O          -4.6247  -22.5633  -47.8897 O.2       12 UNK        -0.5000 
     74 N          -3.0089  -23.2186  -46.4393 N.am      13 UNK        -0.5000 
     75 CA         -3.1138  -24.6588  -46.6752 C.3       13 UNK         0.1400 
     76 CB         -2.3240  -25.4257  -45.6044 C.3       13 UNK        -0.1800 
     77 C          -2.6589  -25.0548  -48.0918 C.2       13 UNK         0.5000 
     78 O          -3.3536  -25.8266  -48.7526 O.2       13 UNK        -0.5000 
     79 N          -1.5387  -24.4821  -48.5567 N.am      14 UNK        -0.5000 
     80 CA         -1.0145  -24.6525  -49.9159 C.3       14 UNK         0.1400 
     81 CB          0.3713  -23.9994  -50.0160 C.3       14 UNK        -0.1800 
     82 C          -1.9611  -24.0986  -50.9995 C.2       14 UNK         0.5000 
     83 O          -2.1048  -24.7133  -52.0561 O.2       14 UNK        -0.5000 
     84 N          -2.6304  -22.9796  -50.6924 N.am      15 UNK        -0.5000 
     85 CA         -3.6840  -22.3727  -51.5067 C.3       15 UNK         0.1400 
     86 CB         -3.8214  -20.8922  -51.1147 C.3       15 UNK        -0.1800 
     87 C          -5.0466  -23.0880  -51.3849 C.2       15 UNK         0.5000 
     88 O          -6.0033  -22.6496  -52.0221 O.2       15 UNK        -0.5000 
     89 N          -5.1422  -24.1409  -50.5584 N.am      16 UNK        -0.5000 
     90 CA         -6.3384  -24.9450  -50.2867 C.3       16 UNK         0.1400 
     91 CB         -6.7112  -25.7803  -51.5300 C.3       16 UNK        -0.1800 
     92 C          -7.5143  -24.1005  -49.7509 C.2       16 UNK         0.5000 
     93 O          -8.6444  -24.2486  -50.2157 O.2       16 UNK        -0.5000 
     94 N          -7.2099  -23.1892  -48.8146 N.am      17 UNK        -0.5000 
     95 CA         -8.1081  -22.1778  -48.2435 C.3       17 UNK         0.1400 
     96 CB         -9.2417  -22.8332  -47.4270 C.3       17 UNK        -0.1800 
     97 C          -8.6156  -21.1764  -49.3048 C.2       17 UNK         0.5000 
     98 O          -9.7759  -20.7641  -49.2707 O.2       17 UNK        -0.5000 
     99 N          -7.7161  -20.8192  -50.2331 N.am      18 UNK        -0.5000 
    100 CA        -7.9003  -19.9272  -51.3830 C.3       18 UNK         0.1400 
    101 CB        -8.3201  -18.5103  -50.9385 C.3       18 UNK        -0.1800 
    102 C         -8.8035  -20.5038  -52.4946 C.2       18 UNK         0.5000 
    103 O         -9.2733  -19.7468  -53.3463 O.2       18 UNK        -0.5000 
    104 N         -9.0072  -21.8293  -52.5030 N.am      19 UNK        -0.5000 
    105 CA        -9.6544  -22.5515  -53.6014 C.3       19 UNK         0.1400 
    106 CB       -10.1849  -23.8973  -53.0865 C.3       19 UNK        -0.1800 
    107 C         -8.7009  -22.7693  -54.7938 C.2       19 UNK         0.5000 
    108 O         -9.1696  -22.9373  -55.9206 O.2       19 UNK        -0.5000 
    109 N         -7.3909  -22.7578  -54.5257 N.am      20 UNK        -0.5000 
    110 CA        -6.3035  -22.8456  -55.4922 C.3       20 UNK         0.1400 
    111 CB        -5.5535  -24.1702  -55.2560 C.3       20 UNK        -0.1800 
    112 C         -5.3734  -21.6290  -55.3240 C.2       20 UNK         0.5000 
    113 O         -5.6359  -20.7463  -54.5022 O.2       20 UNK        -0.5000 
    114 N         -4.2932  -21.6017  -56.1081 N.am      21 UNK        -0.5000 
    115 CA        -3.2344  -20.6014  -56.0446 C.3       21 UNK         0.1400 
    116 CB        -3.5499  -19.4487  -57.0129 C.3       21 UNK        -0.1800 
    117 C         -1.9027  -21.2772  -56.3954 C.2       21 UNK         0.5000 
    118 O         -1.8976  -22.2966  -57.0917 O.2       21 UNK        -0.5000 
    119 N         -0.8044  -20.6902  -55.9121 N.am      22 UNK        -0.5000 
    120 CA         0.5697  -21.1861  -56.1069 C.3       22 UNK         0.1400 
    121 C          1.2791  -20.6020  -57.3648 C.2       22 UNK         0.5000 
    122 N          0.6591  -19.7129  -58.1316 N.am      22 UNK        -0.7600 
    123 O          2.4113  -20.9733  -57.6620 O.2       22 UNK        -0.5000 
    124 C124        1.4276  -20.9843  -54.8308 C.3       23 UNK        -0.0398 
    125 S125        0.7888  -21.9302  -53.4040 S.3       23 UNK        -0.2404 
    126 C126       -0.0755  -20.6500  -52.4404 C.3       23 UNK        -0.0205 
    127 H127       -1.8255  -10.8691  -50.0136 H         1 UNK         0.0600 
    128 H128       -0.4129  -10.1358  -50.7776 H         1 UNK         0.0600 
    129 H129       -0.8255   -9.7268  -49.1098 H         1 UNK         0.0600 
    130 H130        1.2932  -11.5386  -50.9109 H         1 UNK         0.3000 
    131 H131        2.7579  -13.1274  -50.5977 H         1 UNK         0.0600 
    132 H132        2.1056  -15.3212  -49.5283 H         1 UNK         0.0800 
    133 H133        0.6068  -14.6167  -49.0181 H         1 UNK         0.0800 
    134 H134        1.7908  -15.9883  -53.2401 H         1 UNK         0.0800 
    135 H135        2.9097  -15.5784  -51.9675 H         1 UNK         0.0800 
    136 H136        0.3666  -18.0252  -53.0994 H         1 UNK         0.1150 
    137 H137        1.5787  -21.0671  -50.3413 H         1 UNK         0.1150 
    138 H138        3.2899  -17.1509  -50.0825 H         1 UNK         0.1150 
    139 H139        3.2726  -20.6490  -48.7135 H         1 UNK         0.0800 
    140 H140        4.3290  -19.2812  -48.9412 H         1 UNK         0.0800 
    141 H141        0.4636  -18.6374  -48.3648 H         1 UNK         0.0800 
    142 H142        0.3348  -18.5221  -46.6370 H         1 UNK         0.0800 
    143 H143        0.9686  -21.1164  -48.1213 H         1 UNK         0.0600 
    144 H144        1.1256  -20.5850  -45.3457 H         1 UNK         0.3000 
    145 H145        0.5045  -23.9479  -44.2521 H         1 UNK         0.0600 
    146 H146        2.6636  -23.4634  -43.1044 H         1 UNK         0.0600 
    147 H147        2.9126  -23.8562  -44.7985 H         1 UNK         0.0600 
    148 H148        3.0135  -22.1855  -44.2672 H         1 UNK         0.0600 
    149 H149        1.0081  -21.4089  -42.9516 H         1 UNK         0.3000 
    150 H150       -2.4164  -20.5353  -42.4979 H         1 UNK         0.0600 
    151 H151       -2.0151  -22.1582  -40.6697 H         1 UNK         0.0600 
    152 H152       -1.7004  -20.5225  -40.1094 H         1 UNK         0.0600 
    153 H153       -0.3574  -21.5990  -40.4922 H         1 UNK         0.0600 
    154 H154        0.1053  -19.4232  -41.6334 H         1 UNK         0.3000 
    155 H155        0.6290  -17.3573  -44.4978 H         1 UNK         0.0600 
    156 H156       -1.1188  -16.0584  -43.3380 H         1 UNK         0.0600 
    157 H157       -0.5360  -16.5925  -41.7665 H         1 UNK         0.0600 
    158 H158        0.4580  -15.5396  -42.7684 H         1 UNK         0.0600 
    159 H159        1.9429  -17.3138  -42.0164 H         1 UNK         0.3000 
    160 H160        3.8527  -20.2474  -42.1358 H         1 UNK         0.0600 
    161 H161        4.8964  -17.4569  -42.8693 H         1 UNK         0.0600 
    162 H162        5.1421  -18.9148  -43.8233 H         1 UNK         0.0600 
    163 H163        5.8582  -18.7883  -42.2243 H         1 UNK         0.0600 
    164 H164        4.1719  -17.9270  -40.5519 H         1 UNK         0.3000 
    165 H165        2.1097  -18.9205  -37.9131 H         1 UNK         0.0600 
    166 H166        3.8159  -17.3404  -37.1493 H         1 UNK         0.0600 
    167 H167        4.5919  -18.5758  -38.1232 H         1 UNK         0.0600 
    168 H168        4.3130  -16.9707  -38.7934 H         1 UNK         0.0600 
    169 H169        0.8314  -17.1180  -37.9995 H         1 UNK         0.3000 
    170 H170       -0.4740  -15.4269  -39.4415 H         1 UNK         0.0600 
    171 H171        1.6104  -13.8897  -37.7677 H         1 UNK         0.0600 
    172 H172       -0.1174  -13.5471  -37.7811 H         1 UNK         0.0600 
    173 H173        0.4654  -15.0681  -37.1371 H         1 UNK         0.0600 
    174 H174        1.5819  -13.9822  -40.8101 H         1 UNK         0.3000 
    175 H175       -0.5809  -11.9938  -42.5803 H         1 UNK         0.0600 
    176 H176        0.6351   -9.9017  -41.9748 H         1 UNK         0.0600 
    177 H177        1.1294  -10.6171  -40.4403 H         1 UNK         0.0600 
    178 H178       -0.5716  -10.3045  -40.7642 H         1 UNK         0.0600 
    179 H179        2.3221  -12.1787  -41.9429 H         1 UNK         0.3000 
    180 H180        3.7417  -12.9982  -43.3576 H         1 UNK         0.0600 
    181 H181        2.5185  -15.3576  -44.8875 H         1 UNK         0.0600 
    182 H182        3.0207  -15.3684  -43.2001 H         1 UNK         0.0600 
    183 H183        4.2201  -15.1724  -44.4667 H         1 UNK         0.0600 
    184 H184        3.3977  -13.4157  -46.1871 H         1 UNK         0.3000 
    185 H185        3.7285   -9.9797  -47.0977 H         1 UNK         0.0600 
    186 H186        6.0185  -10.7838  -46.6065 H         1 UNK         0.0600 
    187 H187        5.6562  -12.3463  -47.3233 H         1 UNK         0.0600 
    188 H188        5.6700  -10.8951  -48.3244 H         1 UNK         0.0600 
    189 H189        2.5157  -10.9431  -48.6272 H         1 UNK         0.3000 
    190 H190       -1.6282  -20.2227  -45.7960 H         1 UNK         0.3000 
    191 H191       -3.7633  -20.2325  -47.6503 H         1 UNK         0.0600 
    192 H192       -3.9472  -19.2583  -45.3846 H         1 UNK         0.0600 
    193 H193       -5.1906  -20.4777  -45.6164 H         1 UNK         0.0600 
    194 H194       -3.7684  -20.8503  -44.6501 H         1 UNK         0.0600 
    195 H195       -2.3408  -22.9177  -45.7380 H         1 UNK         0.3000 
    196 H196       -4.1658  -24.9350  -46.5767 H         1 UNK         0.0600 
    197 H197       -2.4233  -26.5028  -45.7441 H         1 UNK         0.0600 
    198 H198       -2.6887  -25.1924  -44.6039 H         1 UNK         0.0600 
    199 H199       -1.2610  -25.1884  -45.6357 H         1 UNK         0.0600 
    200 H200       -0.9948  -23.8946  -47.9303 H         1 UNK         0.3000 
    201 H201       -0.8986  -25.7232  -50.0953 H         1 UNK         0.0600 
    202 H202        1.0704  -24.4453  -49.3084 H         1 UNK         0.0600 
    203 H203        0.3230  -22.9315  -49.8091 H         1 UNK         0.0600 
    204 H204        0.7924  -24.1226  -51.0145 H         1 UNK         0.0600 
    205 H205       -2.3961  -22.4992  -49.8285 H         1 UNK         0.3000 
    206 H206       -3.3856  -22.4195  -52.5560 H         1 UNK         0.0600 
    207 H207       -2.8707  -20.3667  -51.1961 H         1 UNK         0.0600 
    208 H208       -4.5267  -20.3783  -51.7685 H         1 UNK         0.0600 
    209 H209       -4.1766  -20.7797  -50.0901 H         1 UNK         0.0600 
    210 H210       -4.3149  -24.4199  -50.0455 H         1 UNK         0.3000 
    211 H211       -6.0723  -25.6385  -49.4881 H         1 UNK         0.0600 
    212 H212       -7.0059  -25.1506  -52.3700 H         1 UNK         0.0600 
    213 H213       -7.5429  -26.4526  -51.3165 H         1 UNK         0.0600 
    214 H214       -5.8722  -26.3957  -51.8544 H         1 UNK         0.0600 
    215 H215       -6.2367  -23.1118  -48.5199 H         1 UNK         0.3000 
    216 H216       -7.5008  -21.5963  -47.5483 H         1 UNK         0.0600 
    217 H217       -9.8155  -22.0810  -46.8845 H         1 UNK         0.0600 
    218 H218       -8.8436  -23.5303  -46.6898 H         1 UNK         0.0600 
    219 H219       -9.9399  -23.3783  -48.0625 H         1 UNK         0.0600 
    220 H220       -6.8163  -21.2774  -50.1976 H         1 UNK         0.3000 
    221 H221       -6.9138  -19.8383  -51.8396 H         1 UNK         0.0600 
    222 H222       -9.3410  -18.4890  -50.5569 H         1 UNK         0.0600 
    223 H223       -7.6603  -18.1292  -50.1590 H         1 UNK         0.0600 
    224 H224       -8.2716  -17.8093  -51.7725 H         1 UNK         0.0600 
    225 H225       -8.5867  -22.3908  -51.7738 H         1 UNK         0.3000 
    226 H226      -10.5063  -21.9671  -53.9552 H         1 UNK         0.0600 
    227 H227      -10.8457  -23.7617  -52.2301 H         1 UNK         0.0600 
    228 H228      -10.7547  -24.4124  -53.8607 H         1 UNK         0.0600 
    229 H229       -9.3743  -24.5601  -52.7836 H         1 UNK         0.0600 
    230 H230       -7.0847  -22.5646  -53.5744 H         1 UNK         0.3000 
    231 H231       -6.6920  -22.8282  -56.5122 H         1 UNK         0.0600 
    232 H232       -5.0745  -24.1933  -54.2765 H         1 UNK         0.0600 
    233 H233       -4.7783  -24.3305  -56.0057 H         1 UNK         0.0600 
    234 H234       -6.2333  -25.0206  -55.3119 H         1 UNK         0.0600 
    235 H235       -4.0935  -22.3757  -56.7295 H         1 UNK         0.3000 
    236 H236       -3.1574  -20.2111  -55.0269 H         1 UNK         0.0600 
    237 H237       -4.4930  -18.9660  -56.7557 H         1 UNK         0.0600 
    238 H238       -2.7748  -18.6824  -56.9786 H         1 UNK         0.0600 
    239 H239       -3.6236  -19.7989  -58.0433 H         1 UNK         0.0600 
    240 H240       -0.8933  -19.8371  -55.3809 H         1 UNK         0.3000 
    241 H241        0.5247  -22.2619  -56.2875 H         1 UNK         0.0600 
    242 H242       -0.2753  -19.4077  -57.9137 H         1 UNK         0.3800 
    243 H243        1.1280  -19.3486  -58.9465 H         1 UNK         0.3800 
    244 H244        1.5054  -19.9257  -54.5821 H         1 UNK         0.0800 
    245 H245        2.4500  -21.3265  -54.9996 H         1 UNK         0.0800 
    246 H246       -0.6451  -21.1422  -51.6517 H         1 UNK         0.0800 
    247 H247       -0.8057  -20.1397  -53.0688 H         1 UNK         0.0800 
@<TRIPOS>BOND
     1    1    2 1    
     2    1  127 1    
     3    1  128 1    
     4    1  129 1    
     5    2    3 2    
     6    2    4 am   BACKBONE|DICT|INTERRES
     7    4    5 1    
     8    4  130 1    
     9    5    6 1    
    10    5   65 1    
    11    5  131 1    
    12    6    7 1    
    13    6  132 1    
    14    6  133 1    
    15    7    8 1    
    16    8    9 1    
    17    8  134 1    
    18    8  135 1    
    19    9   10 ar   
    20    9   14 ar   
    21   10   11 ar   
    22   10  136 1    
    23   11   12 ar   
    24   11  126 1    
    25   12   13 ar   
    26   12  137 1    
    27   13   14 ar   
    28   13   15 1    
    29   14  138 1    
    30   15   16 1    
    31   15  139 1    
    32   15  140 1    
    33   16   17 1    
    34   17   18 1    
    35   17  141 1    
    36   17  142 1    
    37   18   19 1    
    38   18   67 1    
    39   18  143 1    
    40   19   20 am   BACKBONE|DICT|INTERRES
    41   19  144 1    
    42   20   21 2    
    43   20   22 1    
    44   22   23 1    
    45   22   24 1    
    46   22  145 1    
    47   23  146 1    
    48   23  147 1    
    49   23  148 1    
    50   24   25 am   BACKBONE|DICT|INTERRES
    51   24  149 1    
    52   25   26 2    
    53   25   27 1    
    54   27   28 1    
    55   27   29 1    
    56   27  150 1    
    57   28  151 1    
    58   28  152 1    
    59   28  153 1    
    60   29   30 am   BACKBONE|DICT|INTERRES
    61   29  154 1    
    62   30   31 2    
    63   30   32 1    
    64   32   33 1    
    65   32   34 1    
    66   32  155 1    
    67   33  156 1    
    68   33  157 1    
    69   33  158 1    
    70   34   35 am   BACKBONE|DICT|INTERRES
    71   34  159 1    
    72   35   36 2    
    73   35   37 1    
    74   37   38 1    
    75   37   39 1    
    76   37  160 1    
    77   38  161 1    
    78   38  162 1    
    79   38  163 1    
    80   39   40 am   BACKBONE|DICT|INTERRES
    81   39  164 1    
    82   40   41 2    
    83   40   42 1    
    84   42   43 1    
    85   42   44 1    
    86   42  165 1    
    87   43  166 1    
    88   43  167 1    
    89   43  168 1    
    90   44   45 am   BACKBONE|DICT|INTERRES
    91   44  169 1    
    92   45   46 2    
    93   45   47 1    
    94   47   48 1    
    95   47   49 1    
    96   47  170 1    
    97   48  171 1    
    98   48  172 1    
    99   48  173 1    
   100   49   50 am   BACKBONE|DICT|INTERRES
   101   49  174 1    
   102   50   51 2    
   103   50   52 1    
   104   52   53 1    
   105   52   54 1    
   106   52  175 1    
   107   53  176 1    
   108   53  177 1    
   109   53  178 1    
   110   54   55 am   BACKBONE|DICT|INTERRES
   111   54  179 1    
   112   55   56 2    
   113   55   57 1    
   114   57   58 1    
   115   57   59 1    
   116   57  180 1    
   117   58  181 1    
   118   58  182 1    
   119   58  183 1    
   120   59   60 am   BACKBONE|DICT|INTERRES
   121   59  184 1    
   122   60   61 2    
   123   60   62 1    
   124   62   63 1    
   125   62   64 1    
   126   62  185 1    
   127   63  186 1    
   128   63  187 1    
   129   63  188 1    
   130   64   65 am   BACKBONE|DICT|INTERRES
   131   64  189 1    
   132   65   66 2    
   133   67   68 2    
   134   67   69 am   BACKBONE|DICT|INTERRES
   135   69   70 1    
   136   69  190 1    
   137   70   71 1    
   138   70   72 1    
   139   70  191 1    
   140   71  192 1    
   141   71  193 1    
   142   71  194 1    
   143   72   73 2    
   144   72   74 am   BACKBONE|DICT|INTERRES
   145   74   75 1    
   146   74  195 1    
   147   75   76 1    
   148   75   77 1    
   149   75  196 1    
   150   76  197 1    
   151   76  198 1    
   152   76  199 1    
   153   77   78 2    
   154   77   79 am   BACKBONE|DICT|INTERRES
   155   79   80 1    
   156   79  200 1    
   157   80   81 1    
   158   80   82 1    
   159   80  201 1    
   160   81  202 1    
   161   81  203 1    
   162   81  204 1    
   163   82   83 2    
   164   82   84 am   BACKBONE|DICT|INTERRES
   165   84   85 1    
   166   84  205 1    
   167   85   86 1    
   168   85   87 1    
   169   85  206 1    
   170   86  207 1    
   171   86  208 1    
   172   86  209 1    
   173   87   88 2    
   174   87   89 am   BACKBONE|DICT|INTERRES
   175   89   90 1    
   176   89  210 1    
   177   90   91 1    
   178   90   92 1    
   179   90  211 1    
   180   91  212 1    
   181   91  213 1    
   182   91  214 1    
   183   92   93 2    
   184   92   94 am   BACKBONE|DICT|INTERRES
   185   94   95 1    
   186   94  215 1    
   187   95   96 1    
   188   95   97 1    
   189   95  216 1    
   190   96  217 1    
   191   96  218 1    
   192   96  219 1    
   193   97   98 2    
   194   97   99 am   BACKBONE|DICT|INTERRES
   195   99  100 1    
   196   99  220 1    
   197  100  101 1    
   198  100  102 1    
   199  100  221 1    
   200  101  222 1    
   201  101  223 1    
   202  101  224 1    
   203  102  103 2    
   204  102  104 am   BACKBONE|DICT|INTERRES
   205  104  105 1    
   206  104  225 1    
   207  105  106 1    
   208  105  107 1    
   209  105  226 1    
   210  106  227 1    
   211  106  228 1    
   212  106  229 1    
   213  107  108 2    
   214  107  109 am   BACKBONE|DICT|INTERRES
   215  109  110 1    
   216  109  230 1    
   217  110  111 1    
   218  110  112 1    
   219  110  231 1    
   220  111  232 1    
   221  111  233 1    
   222  111  234 1    
   223  112  113 2    
   224  112  114 am   BACKBONE|DICT|INTERRES
   225  114  115 1    
   226  114  235 1    
   227  115  116 1    
   228  115  117 1    
   229  115  236 1    
   230  116  237 1    
   231  116  238 1    
   232  116  239 1    
   233  117  118 2    
   234  117  119 am   BACKBONE|DICT|INTERRES
   235  119  120 1    
   236  119  240 1    
   237  120  121 1    
   238  120  124 1    
   239  120  241 1    
   240  121  122 am   BACKBONE|DICT|INTERRES
   241  121  123 2    
   242  122  242 1    
   243  122  243 1    
   244  124  125 1    
   245  124  244 1    
   246  124  245 1    
   247  125  126 1    
   248  126  246 1    
   249  126  247 1    
@<TRIPOS>SUBSTRUCTURE
     1 UNK         1 GROUP             0       ****    0 ROOT    
