@<TRIPOS>MOLECULE
3R540
247   249    1
SMALL
USER_CHARGES


@<TRIPOS>ATOM
      1 CA         -2.5356  -12.9762  -49.9953 C.3       0 UNK        -0.1800 
      2 C          -1.2325  -12.3753  -49.4880 C.2       0 UNK         0.5000 
      3 O          -1.0575  -11.1569  -49.5279 O.2       0 UNK        -0.5000 
      4 N          -0.3226  -13.2211  -48.9908 N.am      1 UNK        -0.5000 
      5 CA          0.9964  -12.8518  -48.4613 C.3       1 UNK         0.1400 
      6 C6          2.0294  -14.0018  -48.6080 C.3       23 UNK        -0.0398 
      7 S7          2.2757  -14.5139  -50.3446 S.3       23 UNK        -0.2404 
      8 C8          2.7419  -16.2732  -50.1549 C.3       23 UNK        -0.0205 
      9 C9          1.5876  -17.2740  -50.0414 C.ar      23 UNK        -0.0193 
     10 C10         0.2879  -16.8995  -49.6782 C.ar      23 UNK        -0.1150 
     11 C11        -0.7308  -17.8496  -49.5715 C.ar      23 UNK        -0.0193 
     12 C12        -0.4447  -19.1934  -49.8187 C.ar      23 UNK        -0.1150 
     13 C13         0.8401  -19.5861  -50.1985 C.ar      23 UNK        -0.0193 
     14 C14         1.8485  -18.6233  -50.3050 C.ar      23 UNK        -0.1150 
     15 C15         1.1272  -21.0507  -50.5020 C.3       23 UNK        -0.0205 
     16 S16         2.3465  -21.7950  -49.3671 S.3       23 UNK        -0.2404 
     17 C17         1.6518  -21.4060  -47.7242 C.3       23 UNK        -0.0398 
     18 CA          0.8577  -22.5596  -47.0718 C.3       11 UNK         0.1400 
     19 N           0.6340  -22.2927  -45.6508 N.am      11 UNK        -0.5000 
     20 C           0.1287  -23.1566  -44.7625 C.2       10 UNK         0.5000 
     21 O          -0.1725  -24.3176  -45.0342 O.2       10 UNK        -0.5000 
     22 CA         -0.1256  -22.6152  -43.3431 C.3       10 UNK         0.1400 
     23 CB          1.1713  -22.5966  -42.5209 C.3       10 UNK        -0.1800 
     24 N          -0.7250  -21.2788  -43.3506 N.am      10 UNK        -0.5000 
     25 C          -1.9394  -21.0027  -43.8483 C.2       9 UNK         0.5000 
     26 O          -2.6963  -21.8548  -44.3128 O.2       9 UNK        -0.5000 
     27 CA         -2.3646  -19.5239  -43.8740 C.3       9 UNK         0.1400 
     28 CB         -2.8519  -19.0713  -42.4897 C.3       9 UNK        -0.1800 
     29 N          -1.2985  -18.6354  -44.3364 N.am      9 UNK        -0.5000 
     30 C          -0.7446  -18.6799  -45.5568 C.2       8 UNK         0.5000 
     31 O          -1.0984  -19.4592  -46.4396 O.2       8 UNK        -0.5000 
     32 CA          0.4433  -17.7352  -45.8119 C.3       8 UNK         0.1400 
     33 CB         -0.0428  -16.2944  -46.0303 C.3       8 UNK        -0.1800 
     34 N           1.4126  -17.7616  -44.7161 N.am      8 UNK        -0.5000 
     35 C           2.0820  -18.8479  -44.3046 C.2       7 UNK         0.5000 
     36 O           1.9980  -19.9494  -44.8428 O.2       7 UNK        -0.5000 
     37 CA          2.9476  -18.6934  -43.0447 C.3       7 UNK         0.1400 
     38 CB          4.3322  -18.1269  -43.3928 C.3       7 UNK        -0.1800 
     39 N           2.2946  -17.8448  -42.0494 N.am      7 UNK        -0.5000 
     40 C           1.2286  -18.2169  -41.3271 C.2       6 UNK         0.5000 
     41 O           0.7164  -19.3354  -41.3906 O.2       6 UNK        -0.5000 
     42 CA          0.6098  -17.1438  -40.4114 C.3       6 UNK         0.1400 
     43 CB          1.3782  -17.0529  -39.0847 C.3       6 UNK        -0.1800 
     44 N           0.5671  -15.8217  -41.0411 N.am      6 UNK        -0.5000 
     45 C          -0.2044  -15.5180  -42.0939 C.2       5 UNK         0.5000 
     46 O          -0.9860  -16.3133  -42.6139 O.2       5 UNK        -0.5000 
     47 CA         -0.0579  -14.1047  -42.6922 C.3       5 UNK         0.1400 
     48 CB         -1.0102  -13.1279  -41.9868 C.3       5 UNK        -0.1800 
     49 N           1.3023  -13.5549  -42.6723 N.am      5 UNK        -0.5000 
     50 C           2.3937  -14.1453  -43.1820 C.2       4 UNK         0.5000 
     51 O           2.4019  -15.2903  -43.6337 O.2       4 UNK        -0.5000 
     52 CA          3.6672  -13.2875  -43.2241 C.3       4 UNK         0.1400 
     53 CB          4.8650  -14.0048  -43.8735 C.3       4 UNK        -0.1800 
     54 N           3.3647  -12.0713  -43.9682 N.am      4 UNK        -0.5000 
     55 C           3.7845  -10.8386  -43.6578 C.2       3 UNK         0.5000 
     56 O           4.5516  -10.5938  -42.7259 O.2       3 UNK        -0.5000 
     57 CA          3.2488   -9.6741  -44.5199 C.3       3 UNK         0.1400 
     58 CB          4.2977   -9.2508  -45.5597 C.3       3 UNK        -0.1800 
     59 N           1.9958   -9.9841  -45.2138 N.am      3 UNK        -0.5000 
     60 C           0.8252  -10.2452  -44.6154 C.2       2 UNK         0.5000 
     61 O           0.6477  -10.1515  -43.4007 O.2       2 UNK        -0.5000 
     62 CA         -0.3322  -10.7316  -45.5113 C.3       2 UNK         0.1400 
     63 CB         -1.3349   -9.5948  -45.7587 C.3       2 UNK        -0.1800 
     64 N           0.0689  -11.2968  -46.8053 N.am      2 UNK        -0.5000 
     65 C           0.8648  -12.3572  -47.0028 C.2       1 UNK         0.5000 
     66 O           1.4558  -12.9368  -46.0914 O.2       1 UNK        -0.5000 
     67 C          -0.4653  -22.8546  -47.8100 C.2       11 UNK         0.5000 
     68 O          -0.5404  -23.8377  -48.5464 O.2       11 UNK        -0.5000 
     69 N          -1.4997  -22.0371  -47.5664 N.am      12 UNK        -0.5000 
     70 CA         -2.8494  -22.2280  -48.0990 C.3       12 UNK         0.1400 
     71 CB         -3.7213  -21.0160  -47.7457 C.3       12 UNK        -0.1800 
     72 C          -3.5066  -23.5339  -47.6176 C.2       12 UNK         0.5000 
     73 O          -4.1388  -24.2201  -48.4200 O.2       12 UNK        -0.5000 
     74 N          -3.3141  -23.8752  -46.3355 N.am      13 UNK        -0.5000 
     75 CA         -3.7650  -25.1321  -45.7371 C.3       13 UNK         0.1400 
     76 CB         -3.6076  -25.0676  -44.2107 C.3       13 UNK        -0.1800 
     77 C          -3.0373  -26.3607  -46.3142 C.2       13 UNK         0.5000 
     78 O          -3.6834  -27.3780  -46.5641 O.2       13 UNK        -0.5000 
     79 N          -1.7224  -26.2384  -46.5472 N.am      14 UNK        -0.5000 
     80 CA         -0.8890  -27.2614  -47.1834 C.3       14 UNK         0.1400 
     81 CB          0.5941  -26.8913  -47.0298 C.3       14 UNK        -0.1800 
     82 C          -1.2492  -27.4837  -48.6643 C.2       14 UNK         0.5000 
     83 O          -1.2812  -28.6295  -49.1150 O.2       14 UNK        -0.5000 
     84 N          -1.5467  -26.3918  -49.3838 N.am      15 UNK        -0.5000 
     85 CA         -2.0578  -26.4079  -50.7570 C.3       15 UNK         0.1400 
     86 CB         -1.9922  -24.9861  -51.3370 C.3       15 UNK        -0.1800 
     87 C          -3.4937  -26.9606  -50.8587 C.2       15 UNK         0.5000 
     88 O          -3.8805  -27.4507  -51.9201 O.2       15 UNK        -0.5000 
     89 N          -4.2560  -26.8520  -49.7616 N.am      16 UNK        -0.5000 
     90 CA         -5.6293  -27.3035  -49.5101 C.3       16 UNK         0.1400 
     91 CB         -5.7690  -28.8242  -49.7076 C.3       16 UNK        -0.1800 
     92 C          -6.7069  -26.5325  -50.2935 C.2       16 UNK         0.5000 
     93 O          -7.7456  -26.1992  -49.7219 O.2       16 UNK        -0.5000 
     94 N          -6.4460  -26.2511  -51.5748 N.am      17 UNK        -0.5000 
     95 CA         -7.3140  -25.4754  -52.4591 C.3       17 UNK         0.1400 
     96 CB         -6.8645  -25.6938  -53.9120 C.3       17 UNK        -0.1800 
     97 C          -7.3269  -23.9720  -52.1240 C.2       17 UNK         0.5000 
     98 O          -8.3364  -23.3128  -52.3771 O.2       17 UNK        -0.5000 
     99 N          -6.2098  -23.4672  -51.5729 N.am      18 UNK        -0.5000 
    100 CA        -5.9310  -22.0576  -51.2752 C.3       18 UNK         0.1400 
    101 CB        -6.7943  -21.5801  -50.0865 C.3       18 UNK        -0.1800 
    102 C         -6.0523  -21.1787  -52.5425 C.2       18 UNK         0.5000 
    103 O         -5.6153  -21.6157  -53.6104 O.2       18 UNK        -0.5000 
    104 N         -6.6409  -19.9797  -52.4096 N.am      19 UNK        -0.5000 
    105 CA        -7.0141  -19.0405  -53.4740 C.3       19 UNK         0.1400 
    106 CB        -8.2678  -19.5609  -54.2112 C.3       19 UNK        -0.1800 
    107 C         -5.8423  -18.7054  -54.4189 C.2       19 UNK         0.5000 
    108 O         -4.9825  -17.9037  -54.0535 O.2       19 UNK        -0.5000 
    109 N         -5.8076  -19.3512  -55.5934 N.am      20 UNK        -0.5000 
    110 CA        -4.7568  -19.2432  -56.6075 C.3       20 UNK         0.1400 
    111 CB        -5.1493  -20.0939  -57.8246 C.3       20 UNK        -0.1800 
    112 C         -3.3522  -19.6349  -56.1065 C.2       20 UNK         0.5000 
    113 O         -2.3653  -19.1229  -56.6375 O.2       20 UNK        -0.5000 
    114 N         -3.2768  -20.4822  -55.0669 N.am      21 UNK        -0.5000 
    115 CA        -2.0372  -20.8379  -54.3673 C.3       21 UNK         0.1400 
    116 CB        -2.3354  -21.9052  -53.3024 C.3       21 UNK        -0.1800 
    117 C         -1.3310  -19.6287  -53.7206 C.2       21 UNK         0.5000 
    118 O         -0.1087  -19.6540  -53.5779 O.2       21 UNK        -0.5000 
    119 N         -2.1055  -18.5919  -53.3743 N.am      22 UNK        -0.5000 
    120 CA        -1.6153  -17.3107  -52.8497 C.3       22 UNK         0.1400 
    121 C         -1.1302  -16.3203  -53.9502 C.2       22 UNK         0.5000 
    122 N         -1.1986  -16.6491  -55.2362 N.am      22 UNK        -0.7600 
    123 O         -0.6737  -15.2260  -53.6324 O.2       22 UNK        -0.5000 
    124 C124       -2.6453  -16.6342  -51.9019 C.3       23 UNK        -0.0398 
    125 S125       -3.3043  -17.7361  -50.5976 S.3       23 UNK        -0.2404 
    126 C126       -2.1488  -17.4222  -49.2244 C.3       23 UNK        -0.0205 
    127 H127       -2.5669  -12.9380  -51.0841 H         1 UNK         0.0600 
    128 H128       -2.6504  -14.0143  -49.6848 H         1 UNK         0.0600 
    129 H129       -3.3853  -12.4139  -49.6081 H         1 UNK         0.0600 
    130 H130       -0.5417  -14.2032  -48.9539 H         1 UNK         0.3000 
    131 H131        1.3773  -12.0072  -49.0397 H         1 UNK         0.0600 
    132 H132        1.7283  -14.8685  -48.0204 H         1 UNK         0.0800 
    133 H133        2.9997  -13.6929  -48.2151 H         1 UNK         0.0800 
    134 H134        3.3928  -16.3828  -49.2865 H         1 UNK         0.0800 
    135 H135        3.3468  -16.5392  -51.0230 H         1 UNK         0.0800 
    136 H136        0.0541  -15.8665  -49.4897 H         1 UNK         0.1150 
    137 H137       -1.2336  -19.9277  -49.7380 H         1 UNK         0.1150 
    138 H138        2.8441  -18.9314  -50.5924 H         1 UNK         0.1150 
    139 H139        0.2091  -21.6394  -50.4728 H         1 UNK         0.0800 
    140 H140        1.5017  -21.1297  -51.5235 H         1 UNK         0.0800 
    141 H141        1.0593  -20.4923  -47.7488 H         1 UNK         0.0800 
    142 H142        2.5117  -21.1691  -47.0972 H         1 UNK         0.0800 
    143 H143        1.4697  -23.4622  -47.1288 H         1 UNK         0.0600 
    144 H144        0.9045  -21.3677  -45.3244 H         1 UNK         0.3000 
    145 H145       -0.8274  -23.2920  -42.8515 H         1 UNK         0.0600 
    146 H146        0.9838  -22.2729  -41.4969 H         1 UNK         0.0600 
    147 H147        1.6162  -23.5912  -42.4723 H         1 UNK         0.0600 
    148 H148        1.9142  -21.9255  -42.9519 H         1 UNK         0.0600 
    149 H149       -0.1724  -20.5258  -42.9570 H         1 UNK         0.3000 
    150 H150       -3.1980  -19.4317  -44.5733 H         1 UNK         0.0600 
    151 H151       -3.6518  -19.7173  -42.1259 H         1 UNK         0.0600 
    152 H152       -3.2449  -18.0550  -42.5245 H         1 UNK         0.0600 
    153 H153       -2.0490  -19.0930  -41.7523 H         1 UNK         0.0600 
    154 H154       -0.9827  -17.9265  -43.6804 H         1 UNK         0.3000 
    155 H155        0.9577  -18.0670  -46.7163 H         1 UNK         0.0600 
    156 H156       -0.7097  -15.9653  -45.2352 H         1 UNK         0.0600 
    157 H157       -0.5925  -16.2054  -46.9660 H         1 UNK         0.0600 
    158 H158        0.7926  -15.5971  -46.0671 H         1 UNK         0.0600 
    159 H159        1.5946  -16.8807  -44.2418 H         1 UNK         0.3000 
    160 H160        3.0895  -19.6849  -42.6095 H         1 UNK         0.0600 
    161 H161        4.9494  -18.0141  -42.5015 H         1 UNK         0.0600 
    162 H162        4.2634  -17.1548  -43.8804 H         1 UNK         0.0600 
    163 H163        4.8620  -18.7942  -44.0736 H         1 UNK         0.0600 
    164 H164        2.5961  -16.8811  -42.0126 H         1 UNK         0.3000 
    165 H165       -0.4155  -17.4484  -40.1902 H         1 UNK         0.0600 
    166 H166        0.8998  -16.3529  -38.3994 H         1 UNK         0.0600 
    167 H167        1.4113  -18.0227  -38.5863 H         1 UNK         0.0600 
    168 H168        2.4077  -16.7257  -39.2352 H         1 UNK         0.0600 
    169 H169        1.1846  -15.1133  -40.6730 H         1 UNK         0.3000 
    170 H170       -0.3560  -14.1640  -43.7402 H         1 UNK         0.0600 
    171 H171       -2.0352  -13.5012  -42.0010 H         1 UNK         0.0600 
    172 H172       -0.7300  -12.9763  -40.9438 H         1 UNK         0.0600 
    173 H173       -1.0160  -12.1548  -42.4769 H         1 UNK         0.0600 
    174 H174        1.3891  -12.6025  -42.3463 H         1 UNK         0.3000 
    175 H175        3.9229  -13.0467  -42.1903 H         1 UNK         0.0600 
    176 H176        4.6469  -14.3003  -44.9006 H         1 UNK         0.0600 
    177 H177        5.7465  -13.3639  -43.8894 H         1 UNK         0.0600 
    178 H178        5.1288  -14.9050  -43.3176 H         1 UNK         0.0600 
    179 H179        2.7115  -12.1941  -44.7378 H         1 UNK         0.3000 
    180 H180        3.0644   -8.8299  -43.8525 H         1 UNK         0.0600 
    181 H181        4.5089  -10.0537  -46.2672 H         1 UNK         0.0600 
    182 H182        5.2389   -8.9816  -45.0783 H         1 UNK         0.0600 
    183 H183        3.9642   -8.3812  -46.1262 H         1 UNK         0.0600 
    184 H184        2.0464  -10.0837  -46.2166 H         1 UNK         0.3000 
    185 H185       -0.8449  -11.5235  -44.9619 H         1 UNK         0.0600 
    186 H186       -1.6876   -9.1701  -44.8178 H         1 UNK         0.0600 
    187 H187       -0.8882   -8.7859  -46.3382 H         1 UNK         0.0600 
    188 H188       -2.2109   -9.9521  -46.3005 H         1 UNK         0.0600 
    189 H189       -0.3817  -10.9054  -47.6264 H         1 UNK         0.3000 
    190 H190       -1.3542  -21.2143  -46.9847 H         1 UNK         0.3000 
    191 H191       -2.7719  -22.2819  -49.1868 H         1 UNK         0.0600 
    192 H192       -3.7451  -20.8357  -46.6710 H         1 UNK         0.0600 
    193 H193       -4.7494  -21.1597  -48.0755 H         1 UNK         0.0600 
    194 H194       -3.3492  -20.1143  -48.2289 H         1 UNK         0.0600 
    195 H195       -2.8352  -23.2234  -45.7209 H         1 UNK         0.3000 
    196 H196       -4.8281  -25.2437  -45.9606 H         1 UNK         0.0600 
    197 H197       -3.9619  -25.9867  -43.7424 H         1 UNK         0.0600 
    198 H198       -4.1855  -24.2445  -43.7901 H         1 UNK         0.0600 
    199 H199       -2.5673  -24.9291  -43.9168 H         1 UNK         0.0600 
    200 H200       -1.2500  -25.3904  -46.2470 H         1 UNK         0.3000 
    201 H201       -1.0570  -28.2033  -46.6571 H         1 UNK         0.0600 
    202 H202        0.8715  -26.8052  -45.9791 H         1 UNK         0.0600 
    203 H203        0.8268  -25.9435  -47.5152 H         1 UNK         0.0600 
    204 H204        1.2348  -27.6539  -47.4742 H         1 UNK         0.0600 
    205 H205       -1.4055  -25.4774  -48.9611 H         1 UNK         0.3000 
    206 H206       -1.4110  -27.0532  -51.3547 H         1 UNK         0.0600 
    207 H207       -0.9723  -24.6011  -51.3239 H         1 UNK         0.0600 
    208 H208       -2.3324  -24.9704  -52.3731 H         1 UNK         0.0600 
    209 H209       -2.6173  -24.2918  -50.7750 H         1 UNK         0.0600 
    210 H210       -3.8507  -26.3341  -48.9916 H         1 UNK         0.3000 
    211 H211       -5.8090  -27.0954  -48.4541 H         1 UNK         0.0600 
    212 H212       -5.6244  -29.1174  -50.7476 H         1 UNK         0.0600 
    213 H213       -6.7613  -29.1643  -49.4093 H         1 UNK         0.0600 
    214 H214       -5.0431  -29.3662  -49.1011 H         1 UNK         0.0600 
    215 H215       -5.5737  -26.6010  -51.9615 H         1 UNK         0.3000 
    216 H216       -8.3348  -25.8493  -52.3557 H         1 UNK         0.0600 
    217 H217       -7.5050  -25.1471  -54.6054 H         1 UNK         0.0600 
    218 H218       -6.9133  -26.7477  -54.1862 H         1 UNK         0.0600 
    219 H219       -5.8410  -25.3518  -54.0716 H         1 UNK         0.0600 
    220 H220       -5.4464  -24.1067  -51.4113 H         1 UNK         0.3000 
    221 H221       -4.8861  -22.0097  -50.9663 H         1 UNK         0.0600 
    222 H222       -7.8534  -21.5346  -50.3426 H         1 UNK         0.0600 
    223 H223       -6.6912  -22.2562  -49.2373 H         1 UNK         0.0600 
    224 H224       -6.4898  -20.5904  -49.7448 H         1 UNK         0.0600 
    225 H225       -6.9238  -19.7030  -51.4806 H         1 UNK         0.3000 
    226 H226       -7.2859  -18.1045  -52.9839 H         1 UNK         0.0600 
    227 H227       -9.1137  -19.6370  -53.5278 H         1 UNK         0.0600 
    228 H228       -8.5644  -18.8839  -55.0135 H         1 UNK         0.0600 
    229 H229       -8.1125  -20.5490  -54.6460 H         1 UNK         0.0600 
    230 H230       -6.5344  -20.0274  -55.7766 H         1 UNK         0.3000 
    231 H231       -4.7094  -18.1980  -56.9195 H         1 UNK         0.0600 
    232 H232       -6.0994  -19.7659  -58.2464 H         1 UNK         0.0600 
    233 H233       -5.2427  -21.1488  -57.5632 H         1 UNK         0.0600 
    234 H234       -4.4006  -20.0161  -58.6142 H         1 UNK         0.0600 
    235 H235       -4.1394  -20.8554  -54.6796 H         1 UNK         0.3000 
    236 H236       -1.3543  -21.2672  -55.1031 H         1 UNK         0.0600 
    237 H237       -1.4141  -22.2586  -52.8377 H         1 UNK         0.0600 
    238 H238       -2.9690  -21.5112  -52.5078 H         1 UNK         0.0600 
    239 H239       -2.8362  -22.7711  -53.7357 H         1 UNK         0.0600 
    240 H240       -3.1019  -18.6316  -53.5557 H         1 UNK         0.3000 
    241 H241       -0.7226  -17.5217  -52.2622 H         1 UNK         0.0600 
    242 H242       -0.8747  -15.9926  -55.9286 H         1 UNK         0.3800 
    243 H243       -1.5621  -17.5468  -55.5323 H         1 UNK         0.3800 
    244 H244       -2.2032  -15.7564  -51.4289 H         1 UNK         0.0800 
    245 H245       -3.4954  -16.2659  -52.4779 H         1 UNK         0.0800 
    246 H246       -2.1891  -16.3660  -48.9576 H         1 UNK         0.0800 
    247 H247       -2.4802  -17.9693  -48.3420 H         1 UNK         0.0800 
@<TRIPOS>BOND
     1    1    2 1    
     2    1  127 1    
     3    1  128 1    
     4    1  129 1    
     5    2    3 2    
     6    2    4 am   BACKBONE|DICT|INTERRES
     7    4    5 1    
     8    4  130 1    
     9    5    6 1    
    10    5   65 1    
    11    5  131 1    
    12    6    7 1    
    13    6  132 1    
    14    6  133 1    
    15    7    8 1    
    16    8    9 1    
    17    8  134 1    
    18    8  135 1    
    19    9   10 ar   
    20    9   14 ar   
    21   10   11 ar   
    22   10  136 1    
    23   11   12 ar   
    24   11  126 1    
    25   12   13 ar   
    26   12  137 1    
    27   13   14 ar   
    28   13   15 1    
    29   14  138 1    
    30   15   16 1    
    31   15  139 1    
    32   15  140 1    
    33   16   17 1    
    34   17   18 1    
    35   17  141 1    
    36   17  142 1    
    37   18   19 1    
    38   18   67 1    
    39   18  143 1    
    40   19   20 am   BACKBONE|DICT|INTERRES
    41   19  144 1    
    42   20   21 2    
    43   20   22 1    
    44   22   23 1    
    45   22   24 1    
    46   22  145 1    
    47   23  146 1    
    48   23  147 1    
    49   23  148 1    
    50   24   25 am   BACKBONE|DICT|INTERRES
    51   24  149 1    
    52   25   26 2    
    53   25   27 1    
    54   27   28 1    
    55   27   29 1    
    56   27  150 1    
    57   28  151 1    
    58   28  152 1    
    59   28  153 1    
    60   29   30 am   BACKBONE|DICT|INTERRES
    61   29  154 1    
    62   30   31 2    
    63   30   32 1    
    64   32   33 1    
    65   32   34 1    
    66   32  155 1    
    67   33  156 1    
    68   33  157 1    
    69   33  158 1    
    70   34   35 am   BACKBONE|DICT|INTERRES
    71   34  159 1    
    72   35   36 2    
    73   35   37 1    
    74   37   38 1    
    75   37   39 1    
    76   37  160 1    
    77   38  161 1    
    78   38  162 1    
    79   38  163 1    
    80   39   40 am   BACKBONE|DICT|INTERRES
    81   39  164 1    
    82   40   41 2    
    83   40   42 1    
    84   42   43 1    
    85   42   44 1    
    86   42  165 1    
    87   43  166 1    
    88   43  167 1    
    89   43  168 1    
    90   44   45 am   BACKBONE|DICT|INTERRES
    91   44  169 1    
    92   45   46 2    
    93   45   47 1    
    94   47   48 1    
    95   47   49 1    
    96   47  170 1    
    97   48  171 1    
    98   48  172 1    
    99   48  173 1    
   100   49   50 am   BACKBONE|DICT|INTERRES
   101   49  174 1    
   102   50   51 2    
   103   50   52 1    
   104   52   53 1    
   105   52   54 1    
   106   52  175 1    
   107   53  176 1    
   108   53  177 1    
   109   53  178 1    
   110   54   55 am   BACKBONE|DICT|INTERRES
   111   54  179 1    
   112   55   56 2    
   113   55   57 1    
   114   57   58 1    
   115   57   59 1    
   116   57  180 1    
   117   58  181 1    
   118   58  182 1    
   119   58  183 1    
   120   59   60 am   BACKBONE|DICT|INTERRES
   121   59  184 1    
   122   60   61 2    
   123   60   62 1    
   124   62   63 1    
   125   62   64 1    
   126   62  185 1    
   127   63  186 1    
   128   63  187 1    
   129   63  188 1    
   130   64   65 am   BACKBONE|DICT|INTERRES
   131   64  189 1    
   132   65   66 2    
   133   67   68 2    
   134   67   69 am   BACKBONE|DICT|INTERRES
   135   69   70 1    
   136   69  190 1    
   137   70   71 1    
   138   70   72 1    
   139   70  191 1    
   140   71  192 1    
   141   71  193 1    
   142   71  194 1    
   143   72   73 2    
   144   72   74 am   BACKBONE|DICT|INTERRES
   145   74   75 1    
   146   74  195 1    
   147   75   76 1    
   148   75   77 1    
   149   75  196 1    
   150   76  197 1    
   151   76  198 1    
   152   76  199 1    
   153   77   78 2    
   154   77   79 am   BACKBONE|DICT|INTERRES
   155   79   80 1    
   156   79  200 1    
   157   80   81 1    
   158   80   82 1    
   159   80  201 1    
   160   81  202 1    
   161   81  203 1    
   162   81  204 1    
   163   82   83 2    
   164   82   84 am   BACKBONE|DICT|INTERRES
   165   84   85 1    
   166   84  205 1    
   167   85   86 1    
   168   85   87 1    
   169   85  206 1    
   170   86  207 1    
   171   86  208 1    
   172   86  209 1    
   173   87   88 2    
   174   87   89 am   BACKBONE|DICT|INTERRES
   175   89   90 1    
   176   89  210 1    
   177   90   91 1    
   178   90   92 1    
   179   90  211 1    
   180   91  212 1    
   181   91  213 1    
   182   91  214 1    
   183   92   93 2    
   184   92   94 am   BACKBONE|DICT|INTERRES
   185   94   95 1    
   186   94  215 1    
   187   95   96 1    
   188   95   97 1    
   189   95  216 1    
   190   96  217 1    
   191   96  218 1    
   192   96  219 1    
   193   97   98 2    
   194   97   99 am   BACKBONE|DICT|INTERRES
   195   99  100 1    
   196   99  220 1    
   197  100  101 1    
   198  100  102 1    
   199  100  221 1    
   200  101  222 1    
   201  101  223 1    
   202  101  224 1    
   203  102  103 2    
   204  102  104 am   BACKBONE|DICT|INTERRES
   205  104  105 1    
   206  104  225 1    
   207  105  106 1    
   208  105  107 1    
   209  105  226 1    
   210  106  227 1    
   211  106  228 1    
   212  106  229 1    
   213  107  108 2    
   214  107  109 am   BACKBONE|DICT|INTERRES
   215  109  110 1    
   216  109  230 1    
   217  110  111 1    
   218  110  112 1    
   219  110  231 1    
   220  111  232 1    
   221  111  233 1    
   222  111  234 1    
   223  112  113 2    
   224  112  114 am   BACKBONE|DICT|INTERRES
   225  114  115 1    
   226  114  235 1    
   227  115  116 1    
   228  115  117 1    
   229  115  236 1    
   230  116  237 1    
   231  116  238 1    
   232  116  239 1    
   233  117  118 2    
   234  117  119 am   BACKBONE|DICT|INTERRES
   235  119  120 1    
   236  119  240 1    
   237  120  121 1    
   238  120  124 1    
   239  120  241 1    
   240  121  122 am   BACKBONE|DICT|INTERRES
   241  121  123 2    
   242  122  242 1    
   243  122  243 1    
   244  124  125 1    
   245  124  244 1    
   246  124  245 1    
   247  125  126 1    
   248  126  246 1    
   249  126  247 1    
@<TRIPOS>SUBSTRUCTURE
     1 UNK         1 GROUP             0       ****    0 ROOT    
