@<TRIPOS>MOLECULE
3R540
247   249    1
SMALL
USER_CHARGES


@<TRIPOS>ATOM
      1 CA         -3.4770  -16.9852  -45.9873 C.3       0 UNK        -0.1800 
      2 C          -3.1702  -15.6305  -46.6088 C.2       0 UNK         0.5000 
      3 O          -3.9605  -14.6971  -46.4719 O.2       0 UNK        -0.5000 
      4 N          -2.0292  -15.5262  -47.3021 N.am      1 UNK        -0.5000 
      5 CA         -1.5764  -14.3122  -47.9982 C.3       1 UNK         0.1400 
      6 C6         -0.4620  -14.6142  -49.0288 C.3       23 UNK        -0.0398 
      7 S7         -0.9506  -15.8832  -50.2412 S.3       23 UNK        -0.2404 
      8 C8          0.4861  -15.8496  -51.3547 C.3       23 UNK        -0.0205 
      9 C9          0.6843  -17.2116  -51.9931 C.ar      23 UNK        -0.0193 
     10 C10         0.0431  -17.5347  -53.1921 C.ar      23 UNK        -0.1150 
     11 C11         0.1724  -18.8138  -53.7409 C.ar      23 UNK        -0.0193 
     12 C12         0.9691  -19.7628  -53.0905 C.ar      23 UNK        -0.1150 
     13 C13         1.6182  -19.4470  -51.8940 C.ar      23 UNK        -0.0193 
     14 C14         1.4762  -18.1678  -51.3530 C.ar      23 UNK        -0.1150 
     15 C15         2.4499  -20.4938  -51.1697 C.3       23 UNK        -0.0205 
     16 S16         1.4073  -21.7008  -50.2927 S.3       23 UNK        -0.2404 
     17 C17         0.5924  -20.6630  -49.0298 C.3       23 UNK        -0.0398 
     18 CA          0.0603  -21.5286  -47.8620 C.3       11 UNK         0.1400 
     19 N           1.1646  -22.0854  -47.0692 N.am      11 UNK        -0.5000 
     20 C           1.1115  -23.1582  -46.2714 C.2       10 UNK         0.5000 
     21 O           0.0778  -23.7928  -46.0628 O.2       10 UNK        -0.5000 
     22 CA          2.4109  -23.5560  -45.5393 C.3       10 UNK         0.1400 
     23 CB          2.9556  -24.8721  -46.1143 C.3       10 UNK        -0.1800 
     24 N           3.4736  -22.5422  -45.6118 N.am      10 UNK        -0.5000 
     25 C           3.5825  -21.3911  -44.9278 C.2       9 UNK         0.5000 
     26 O           4.5548  -20.6522  -45.0832 O.2       9 UNK        -0.5000 
     27 CA          2.5010  -20.9989  -43.8914 C.3       9 UNK         0.1400 
     28 CB          2.9324  -21.4526  -42.4879 C.3       9 UNK        -0.1800 
     29 N           2.1944  -19.5659  -43.8572 N.am      9 UNK        -0.5000 
     30 C           1.8563  -18.7917  -44.9002 C.2       8 UNK         0.5000 
     31 O           1.7834  -19.1937  -46.0610 O.2       8 UNK        -0.5000 
     32 CA          1.5043  -17.3213  -44.6005 C.3       8 UNK         0.1400 
     33 CB         -0.0092  -17.1651  -44.3856 C.3       8 UNK        -0.1800 
     34 N           2.2137  -16.7767  -43.4429 N.am      8 UNK        -0.5000 
     35 C           3.5185  -16.4675  -43.4319 C.2       7 UNK         0.5000 
     36 O           4.2577  -16.5794  -44.4101 O.2       7 UNK        -0.5000 
     37 CA          4.0976  -15.9513  -42.1034 C.3       7 UNK         0.1400 
     38 CB          3.9128  -14.4310  -41.9801 C.3       7 UNK        -0.1800 
     39 N           3.4810  -16.6147  -40.9548 N.am      7 UNK        -0.5000 
     40 C           3.8639  -17.8108  -40.4850 C.2       6 UNK         0.5000 
     41 O           4.8253  -18.4411  -40.9253 O.2       6 UNK        -0.5000 
     42 CA          3.0323  -18.4155  -39.3358 C.3       6 UNK         0.1400 
     43 CB          3.6553  -18.0593  -37.9776 C.3       6 UNK        -0.1800 
     44 N           1.6307  -17.9927  -39.3421 N.am      6 UNK        -0.5000 
     45 C           0.7413  -18.3140  -40.2918 C.2       5 UNK         0.5000 
     46 O           1.0057  -19.0184  -41.2627 O.2       5 UNK        -0.5000 
     47 CA         -0.6597  -17.6880  -40.1706 C.3       5 UNK         0.1400 
     48 CB         -1.5785  -18.5778  -39.3212 C.3       5 UNK        -0.1800 
     49 N          -0.6374  -16.3313  -39.6158 N.am      5 UNK        -0.5000 
     50 C          -0.0132  -15.2934  -40.1869 C.2       4 UNK         0.5000 
     51 O           0.6323  -15.3753  -41.2354 O.2       4 UNK        -0.5000 
     52 CA         -0.0838  -13.9508  -39.4473 C.3       4 UNK         0.1400 
     53 CB          1.3144  -13.5099  -38.9860 C.3       4 UNK        -0.1800 
     54 N          -0.6355  -12.9440  -40.3453 N.am      4 UNK        -0.5000 
     55 C          -1.9426  -12.6930  -40.4914 C.2       3 UNK         0.5000 
     56 O          -2.8206  -13.1954  -39.7885 O.2       3 UNK        -0.5000 
     57 CA         -2.3371  -11.7283  -41.6264 C.3       3 UNK         0.1400 
     58 CB         -2.3955  -10.2823  -41.1101 C.3       3 UNK        -0.1800 
     59 N          -1.4312  -11.7932  -42.7772 N.am      3 UNK        -0.5000 
     60 C          -1.3305  -12.8457  -43.5993 C.2       2 UNK         0.5000 
     61 O          -1.9982  -13.8765  -43.4816 O.2       2 UNK        -0.5000 
     62 CA         -0.2890  -12.7313  -44.7221 C.3       2 UNK         0.1400 
     63 CB          1.0957  -13.1593  -44.2096 C.3       2 UNK        -0.1800 
     64 N          -0.6757  -13.6084  -45.8226 N.am      2 UNK        -0.5000 
     65 C          -1.1048  -13.2088  -47.0254 C.2       1 UNK         0.5000 
     66 O          -1.1362  -12.0312  -47.3859 O.2       1 UNK        -0.5000 
     67 C          -1.0195  -20.7990  -47.0227 C.2       11 UNK         0.5000 
     68 O          -1.9431  -20.2181  -47.5924 O.2       11 UNK        -0.5000 
     69 N          -0.9437  -20.8901  -45.6877 N.am      12 UNK        -0.5000 
     70 CA         -2.0052  -20.5089  -44.7548 C.3       12 UNK         0.1400 
     71 CB         -1.4724  -20.6237  -43.3186 C.3       12 UNK        -0.1800 
     72 C          -3.2740  -21.3698  -44.9222 C.2       12 UNK         0.5000 
     73 O          -4.3738  -20.8891  -44.6481 O.2       12 UNK        -0.5000 
     74 N          -3.0929  -22.6187  -45.3783 N.am      13 UNK        -0.5000 
     75 CA         -4.1420  -23.5892  -45.6748 C.3       13 UNK         0.1400 
     76 CB         -3.4842  -24.9345  -46.0232 C.3       13 UNK        -0.1800 
     77 C          -5.0662  -23.1091  -46.8097 C.2       13 UNK         0.5000 
     78 O          -4.6797  -23.1612  -47.9799 O.2       13 UNK        -0.5000 
     79 N          -6.2620  -22.6383  -46.4273 N.am      14 UNK        -0.5000 
     80 CA         -7.3713  -22.2119  -47.2884 C.3       14 UNK         0.1400 
     81 CB         -8.0398  -23.4456  -47.9298 C.3       14 UNK        -0.1800 
     82 C          -6.9865  -21.1329  -48.3235 C.2       14 UNK         0.5000 
     83 O          -7.4616  -21.1818  -49.4588 O.2       14 UNK        -0.5000 
     84 N          -6.1173  -20.1945  -47.9139 N.am      15 UNK        -0.5000 
     85 CA         -5.5501  -19.1074  -48.7217 C.3       15 UNK         0.1400 
     86 CB         -6.6246  -18.0475  -49.0378 C.3       15 UNK        -0.1800 
     87 C          -4.8486  -19.6451  -49.9842 C.2       15 UNK         0.5000 
     88 O          -5.3297  -19.4496  -51.1033 O.2       15 UNK        -0.5000 
     89 N          -3.7451  -20.3696  -49.7580 N.am      16 UNK        -0.5000 
     90 CA         -2.9167  -21.0438  -50.7583 C.3       16 UNK         0.1400 
     91 CB         -2.2204  -20.0003  -51.6510 C.3       16 UNK        -0.1800 
     92 C          -3.6933  -22.1026  -51.5659 C.2       16 UNK         0.5000 
     93 O          -3.4922  -22.2193  -52.7762 O.2       16 UNK        -0.5000 
     94 N          -4.5889  -22.8326  -50.8827 N.am      17 UNK        -0.5000 
     95 CA         -5.5425  -23.7970  -51.4401 C.3       17 UNK         0.1400 
     96 CB         -4.8021  -25.0545  -51.9428 C.3       17 UNK        -0.1800 
     97 C          -6.4496  -23.1571  -52.5134 C.2       17 UNK         0.5000 
     98 O          -6.5608  -23.6817  -53.6211 O.2       17 UNK        -0.5000 
     99 N          -7.0336  -21.9966  -52.1796 N.am      18 UNK        -0.5000 
    100 CA        -7.7833  -21.0987  -53.0656 C.3       18 UNK         0.1400 
    101 CB        -9.1247  -21.7351  -53.4848 C.3       18 UNK        -0.1800 
    102 C         -6.9320  -20.6176  -54.2622 C.2       18 UNK         0.5000 
    103 O         -7.3907  -20.6382  -55.4057 O.2       18 UNK        -0.5000 
    104 N         -5.6874  -20.2220  -53.9593 N.am      19 UNK        -0.5000 
    105 CA        -4.6268  -19.7775  -54.8714 C.3       19 UNK         0.1400 
    106 CB        -5.0299  -18.4740  -55.5903 C.3       19 UNK        -0.1800 
    107 C         -4.0998  -20.8510  -55.8511 C.2       19 UNK         0.5000 
    108 O         -3.3551  -20.5066  -56.7699 O.2       19 UNK        -0.5000 
    109 N         -4.4509  -22.1281  -55.6464 N.am      20 UNK        -0.5000 
    110 CA        -4.0089  -23.2431  -56.4852 C.3       20 UNK         0.1400 
    111 CB        -4.9395  -24.4457  -56.2766 C.3       20 UNK        -0.1800 
    112 C         -2.5473  -23.6568  -56.2342 C.2       20 UNK         0.5000 
    113 O         -1.9147  -24.1871  -57.1490 O.2       20 UNK        -0.5000 
    114 N         -2.0251  -23.4087  -55.0221 N.am      21 UNK        -0.5000 
    115 CA        -0.6998  -23.8550  -54.5680 C.3       21 UNK         0.1400 
    116 CB        -0.5602  -23.5791  -53.0629 C.3       21 UNK        -0.1800 
    117 C          0.5006  -23.2655  -55.3405 C.2       21 UNK         0.5000 
    118 O          1.6063  -23.7951  -55.2226 O.2       21 UNK        -0.5000 
    119 N          0.2671  -22.2013  -56.1151 N.am      22 UNK        -0.5000 
    120 CA         1.2361  -21.5538  -57.0100 C.3       22 UNK         0.1400 
    121 C          0.8248  -21.6302  -58.5107 C.2       22 UNK         0.5000 
    122 N         -0.1767  -22.4185  -58.8884 N.am      22 UNK        -0.7600 
    123 O          1.4420  -20.9892  -59.3572 O.2       22 UNK        -0.5000 
    124 C124        1.6013  -20.1226  -56.5275 C.3       23 UNK        -0.0398 
    125 S125        0.2350  -18.9046  -56.5457 S.3       23 UNK        -0.2404 
    126 C126       -0.6349  -19.1991  -54.9720 C.3       23 UNK        -0.0205 
    127 H127       -4.5414  -17.2071  -46.0647 H         1 UNK         0.0600 
    128 H128       -2.9287  -17.7835  -46.4875 H         1 UNK         0.0600 
    129 H129       -3.2048  -16.9836  -44.9318 H         1 UNK         0.0600 
    130 H130       -1.4426  -16.3392  -47.4225 H         1 UNK         0.3000 
    131 H131       -2.4312  -13.9074  -48.5446 H         1 UNK         0.0600 
    132 H132       -0.1945  -13.7076  -49.5753 H         1 UNK         0.0800 
    133 H133        0.4455  -14.9529  -48.5249 H         1 UNK         0.0800 
    134 H134        0.3389  -15.0844  -52.1183 H         1 UNK         0.0800 
    135 H135        1.3849  -15.5692  -50.8032 H         1 UNK         0.0800 
    136 H136       -0.5902  -16.8037  -53.6748 H         1 UNK         0.1150 
    137 H137        1.0536  -20.7625  -53.4918 H         1 UNK         0.1150 
    138 H138        1.9601  -17.9228  -50.4179 H         1 UNK         0.1150 
    139 H139        3.0707  -21.0243  -51.8930 H         1 UNK         0.0800 
    140 H140        3.1367  -20.0252  -50.4632 H         1 UNK         0.0800 
    141 H141       -0.2100  -20.1168  -49.5220 H         1 UNK         0.0800 
    142 H142        1.2895  -19.9085  -48.6624 H         1 UNK         0.0800 
    143 H143       -0.4723  -22.3738  -48.3036 H         1 UNK         0.0600 
    144 H144        2.0443  -21.5947  -47.1499 H         1 UNK         0.3000 
    145 H145        2.1602  -23.7326  -44.4919 H         1 UNK         0.0600 
    146 H146        3.2320  -24.7692  -47.1645 H         1 UNK         0.0600 
    147 H147        3.8362  -25.2081  -45.5663 H         1 UNK         0.0600 
    148 H148        2.2120  -25.6676  -46.0476 H         1 UNK         0.0600 
    149 H149        4.2125  -22.7580  -46.2649 H         1 UNK         0.3000 
    150 H150        1.5601  -21.4911  -44.1236 H         1 UNK         0.0600 
    151 H151        3.2130  -22.5066  -42.4811 H         1 UNK         0.0600 
    152 H152        2.1247  -21.3339  -41.7663 H         1 UNK         0.0600 
    153 H153        3.7906  -20.8825  -42.1297 H         1 UNK         0.0600 
    154 H154        2.1431  -19.1524  -42.9329 H         1 UNK         0.3000 
    155 H155        1.7812  -16.7332  -45.4782 H         1 UNK         0.0600 
    156 H156       -0.5659  -17.5563  -45.2376 H         1 UNK         0.0600 
    157 H157       -0.2892  -16.1200  -44.2616 H         1 UNK         0.0600 
    158 H158       -0.3452  -17.7003  -43.4986 H         1 UNK         0.0600 
    159 H159        1.6647  -16.5983  -42.6099 H         1 UNK         0.3000 
    160 H160        5.1704  -16.1565  -42.1035 H         1 UNK         0.0600 
    161 H161        2.8609  -14.1483  -41.9853 H         1 UNK         0.0600 
    162 H162        4.3935  -13.9120  -42.8103 H         1 UNK         0.0600 
    163 H163        4.3569  -14.0533  -41.0591 H         1 UNK         0.0600 
    164 H164        2.6520  -16.1803  -40.5736 H         1 UNK         0.3000 
    165 H165        3.0564  -19.5014  -39.4503 H         1 UNK         0.0600 
    166 H166        3.1247  -18.5471  -37.1597 H         1 UNK         0.0600 
    167 H167        4.6955  -18.3842  -37.9277 H         1 UNK         0.0600 
    168 H168        3.6382  -16.9838  -37.7965 H         1 UNK         0.0600 
    169 H169        1.3292  -17.4021  -38.5814 H         1 UNK         0.3000 
    170 H170       -1.0811  -17.6281  -41.1760 H         1 UNK         0.0600 
    171 H171       -1.2267  -18.6554  -38.2918 H         1 UNK         0.0600 
    172 H172       -2.5963  -18.1878  -39.3008 H         1 UNK         0.0600 
    173 H173       -1.6276  -19.5884  -39.7293 H         1 UNK         0.0600 
    174 H174       -1.1501  -16.1860  -38.7578 H         1 UNK         0.3000 
    175 H175       -0.7171  -14.0519  -38.5632 H         1 UNK         0.0600 
    176 H176        1.7643  -14.2570  -38.3310 H         1 UNK         0.0600 
    177 H177        1.9918  -13.3589  -39.8267 H         1 UNK         0.0600 
    178 H178        1.2654  -12.5753  -38.4271 H         1 UNK         0.0600 
    179 H179        0.0080  -12.5290  -41.0022 H         1 UNK         0.3000 
    180 H180       -3.3367  -12.0094  -41.9650 H         1 UNK         0.0600 
    181 H181       -2.7483   -9.6006  -41.8841 H         1 UNK         0.0600 
    182 H182       -1.4179   -9.9340  -40.7745 H         1 UNK         0.0600 
    183 H183       -3.0816  -10.1967  -40.2664 H         1 UNK         0.0600 
    184 H184       -0.8502  -10.9831  -42.9390 H         1 UNK         0.3000 
    185 H185       -0.2383  -11.6920  -45.0531 H         1 UNK         0.0600 
    186 H186        1.4452  -12.4920  -43.4211 H         1 UNK         0.0600 
    187 H187        1.0790  -14.1684  -43.7984 H         1 UNK         0.0600 
    188 H188        1.8381  -13.1360  -45.0074 H         1 UNK         0.0600 
    189 H189       -0.7889  -14.5820  -45.5819 H         1 UNK         0.3000 
    190 H190       -0.1585  -21.3879  -45.3014 H         1 UNK         0.3000 
    191 H191       -2.2727  -19.4690  -44.9435 H         1 UNK         0.0600 
    192 H192       -1.2164  -21.6528  -43.0633 H         1 UNK         0.0600 
    193 H193       -2.2152  -20.2806  -42.5972 H         1 UNK         0.0600 
    194 H194       -0.5804  -20.0169  -43.1763 H         1 UNK         0.0600 
    195 H195       -2.1493  -22.9150  -45.5883 H         1 UNK         0.3000 
    196 H196       -4.7375  -23.7313  -44.7706 H         1 UNK         0.0600 
    197 H197       -4.2365  -25.6875  -46.2614 H         1 UNK         0.0600 
    198 H198       -2.8966  -25.3143  -45.1872 H         1 UNK         0.0600 
    199 H199       -2.8200  -24.8486  -46.8846 H         1 UNK         0.0600 
    200 H200       -6.4419  -22.5726  -45.4346 H         1 UNK         0.3000 
    201 H201       -8.1075  -21.7441  -46.6333 H         1 UNK         0.0600 
    202 H202       -8.3701  -24.1525  -47.1688 H         1 UNK         0.0600 
    203 H203       -7.3588  -23.9715  -48.5979 H         1 UNK         0.0600 
    204 H204       -8.9197  -23.1641  -48.5097 H         1 UNK         0.0600 
    205 H205       -5.7632  -20.2722  -46.9700 H         1 UNK         0.3000 
    206 H206       -4.7811  -18.6285  -48.1150 H         1 UNK         0.0600 
    207 H207       -7.4340  -18.4541  -49.6451 H         1 UNK         0.0600 
    208 H208       -7.0611  -17.6455  -48.1236 H         1 UNK         0.0600 
    209 H209       -6.1930  -17.2104  -49.5878 H         1 UNK         0.0600 
    210 H210       -3.3975  -20.4415  -48.8055 H         1 UNK         0.3000 
    211 H211       -2.1445  -21.5887  -50.2148 H         1 UNK         0.0600 
    212 H212       -2.9326  -19.3914  -52.2026 H         1 UNK         0.0600 
    213 H213       -1.5737  -20.4863  -52.3768 H         1 UNK         0.0600 
    214 H214       -1.6059  -19.3159  -51.0682 H         1 UNK         0.0600 
    215 H215       -4.6532  -22.6944  -49.8773 H         1 UNK         0.3000 
    216 H216       -6.1953  -24.1008  -50.6223 H         1 UNK         0.0600 
    217 H217       -5.5082  -25.8161  -52.2753 H         1 UNK         0.0600 
    218 H218       -4.1970  -25.4960  -51.1512 H         1 UNK         0.0600 
    219 H219       -4.1429  -24.8317  -52.7824 H         1 UNK         0.0600 
    220 H220       -6.9128  -21.6502  -51.2303 H         1 UNK         0.3000 
    221 H221       -8.0097  -20.2101  -52.4742 H         1 UNK         0.0600 
    222 H222       -8.9798  -22.6094  -54.1198 H         1 UNK         0.0600 
    223 H223       -9.7018  -22.0449  -52.6135 H         1 UNK         0.0600 
    224 H224       -9.7353  -21.0242  -54.0424 H         1 UNK         0.0600 
    225 H225       -5.4342  -20.2194  -52.9751 H         1 UNK         0.3000 
    226 H226       -3.7773  -19.5382  -54.2357 H         1 UNK         0.0600 
    227 H227       -5.8336  -18.6386  -56.3082 H         1 UNK         0.0600 
    228 H228       -5.3630  -17.7185  -54.8787 H         1 UNK         0.0600 
    229 H229       -4.1867  -18.0506  -56.1375 H         1 UNK         0.0600 
    230 H230       -5.0311  -22.3551  -54.8483 H         1 UNK         0.3000 
    231 H231       -4.0904  -22.9368  -57.5303 H         1 UNK         0.0600 
    232 H232       -4.6994  -25.2492  -56.9739 H         1 UNK         0.0600 
    233 H233       -5.9827  -24.1736  -56.4391 H         1 UNK         0.0600 
    234 H234       -4.8499  -24.8523  -55.2688 H         1 UNK         0.0600 
    235 H235       -2.6122  -22.9583  -54.3232 H         1 UNK         0.3000 
    236 H236       -0.6601  -24.9365  -54.7118 H         1 UNK         0.0600 
    237 H237       -0.6100  -22.5135  -52.8454 H         1 UNK         0.0600 
    238 H238       -1.3461  -24.0769  -52.4947 H         1 UNK         0.0600 
    239 H239        0.3942  -23.9441  -52.6812 H         1 UNK         0.0600 
    240 H240       -0.6784  -21.8524  -56.1769 H         1 UNK         0.3000 
    241 H241        2.1662  -22.1235  -56.9807 H         1 UNK         0.0600 
    242 H242       -0.4230  -22.4637  -59.8645 H         1 UNK         0.3800 
    243 H243       -0.6701  -23.0037  -58.2233 H         1 UNK         0.3800 
    244 H244        2.3982  -19.7210  -57.1553 H         1 UNK         0.0800 
    245 H245        2.0372  -20.1691  -55.5316 H         1 UNK         0.0800 
    246 H246       -1.5577  -18.6177  -54.9905 H         1 UNK         0.0800 
    247 H247       -0.9551  -20.2370  -54.8987 H         1 UNK         0.0800 
@<TRIPOS>BOND
     1    1    2 1    
     2    1  127 1    
     3    1  128 1    
     4    1  129 1    
     5    2    3 2    
     6    2    4 am   BACKBONE|DICT|INTERRES
     7    4    5 1    
     8    4  130 1    
     9    5    6 1    
    10    5   65 1    
    11    5  131 1    
    12    6    7 1    
    13    6  132 1    
    14    6  133 1    
    15    7    8 1    
    16    8    9 1    
    17    8  134 1    
    18    8  135 1    
    19    9   10 ar   
    20    9   14 ar   
    21   10   11 ar   
    22   10  136 1    
    23   11   12 ar   
    24   11  126 1    
    25   12   13 ar   
    26   12  137 1    
    27   13   14 ar   
    28   13   15 1    
    29   14  138 1    
    30   15   16 1    
    31   15  139 1    
    32   15  140 1    
    33   16   17 1    
    34   17   18 1    
    35   17  141 1    
    36   17  142 1    
    37   18   19 1    
    38   18   67 1    
    39   18  143 1    
    40   19   20 am   BACKBONE|DICT|INTERRES
    41   19  144 1    
    42   20   21 2    
    43   20   22 1    
    44   22   23 1    
    45   22   24 1    
    46   22  145 1    
    47   23  146 1    
    48   23  147 1    
    49   23  148 1    
    50   24   25 am   BACKBONE|DICT|INTERRES
    51   24  149 1    
    52   25   26 2    
    53   25   27 1    
    54   27   28 1    
    55   27   29 1    
    56   27  150 1    
    57   28  151 1    
    58   28  152 1    
    59   28  153 1    
    60   29   30 am   BACKBONE|DICT|INTERRES
    61   29  154 1    
    62   30   31 2    
    63   30   32 1    
    64   32   33 1    
    65   32   34 1    
    66   32  155 1    
    67   33  156 1    
    68   33  157 1    
    69   33  158 1    
    70   34   35 am   BACKBONE|DICT|INTERRES
    71   34  159 1    
    72   35   36 2    
    73   35   37 1    
    74   37   38 1    
    75   37   39 1    
    76   37  160 1    
    77   38  161 1    
    78   38  162 1    
    79   38  163 1    
    80   39   40 am   BACKBONE|DICT|INTERRES
    81   39  164 1    
    82   40   41 2    
    83   40   42 1    
    84   42   43 1    
    85   42   44 1    
    86   42  165 1    
    87   43  166 1    
    88   43  167 1    
    89   43  168 1    
    90   44   45 am   BACKBONE|DICT|INTERRES
    91   44  169 1    
    92   45   46 2    
    93   45   47 1    
    94   47   48 1    
    95   47   49 1    
    96   47  170 1    
    97   48  171 1    
    98   48  172 1    
    99   48  173 1    
   100   49   50 am   BACKBONE|DICT|INTERRES
   101   49  174 1    
   102   50   51 2    
   103   50   52 1    
   104   52   53 1    
   105   52   54 1    
   106   52  175 1    
   107   53  176 1    
   108   53  177 1    
   109   53  178 1    
   110   54   55 am   BACKBONE|DICT|INTERRES
   111   54  179 1    
   112   55   56 2    
   113   55   57 1    
   114   57   58 1    
   115   57   59 1    
   116   57  180 1    
   117   58  181 1    
   118   58  182 1    
   119   58  183 1    
   120   59   60 am   BACKBONE|DICT|INTERRES
   121   59  184 1    
   122   60   61 2    
   123   60   62 1    
   124   62   63 1    
   125   62   64 1    
   126   62  185 1    
   127   63  186 1    
   128   63  187 1    
   129   63  188 1    
   130   64   65 am   BACKBONE|DICT|INTERRES
   131   64  189 1    
   132   65   66 2    
   133   67   68 2    
   134   67   69 am   BACKBONE|DICT|INTERRES
   135   69   70 1    
   136   69  190 1    
   137   70   71 1    
   138   70   72 1    
   139   70  191 1    
   140   71  192 1    
   141   71  193 1    
   142   71  194 1    
   143   72   73 2    
   144   72   74 am   BACKBONE|DICT|INTERRES
   145   74   75 1    
   146   74  195 1    
   147   75   76 1    
   148   75   77 1    
   149   75  196 1    
   150   76  197 1    
   151   76  198 1    
   152   76  199 1    
   153   77   78 2    
   154   77   79 am   BACKBONE|DICT|INTERRES
   155   79   80 1    
   156   79  200 1    
   157   80   81 1    
   158   80   82 1    
   159   80  201 1    
   160   81  202 1    
   161   81  203 1    
   162   81  204 1    
   163   82   83 2    
   164   82   84 am   BACKBONE|DICT|INTERRES
   165   84   85 1    
   166   84  205 1    
   167   85   86 1    
   168   85   87 1    
   169   85  206 1    
   170   86  207 1    
   171   86  208 1    
   172   86  209 1    
   173   87   88 2    
   174   87   89 am   BACKBONE|DICT|INTERRES
   175   89   90 1    
   176   89  210 1    
   177   90   91 1    
   178   90   92 1    
   179   90  211 1    
   180   91  212 1    
   181   91  213 1    
   182   91  214 1    
   183   92   93 2    
   184   92   94 am   BACKBONE|DICT|INTERRES
   185   94   95 1    
   186   94  215 1    
   187   95   96 1    
   188   95   97 1    
   189   95  216 1    
   190   96  217 1    
   191   96  218 1    
   192   96  219 1    
   193   97   98 2    
   194   97   99 am   BACKBONE|DICT|INTERRES
   195   99  100 1    
   196   99  220 1    
   197  100  101 1    
   198  100  102 1    
   199  100  221 1    
   200  101  222 1    
   201  101  223 1    
   202  101  224 1    
   203  102  103 2    
   204  102  104 am   BACKBONE|DICT|INTERRES
   205  104  105 1    
   206  104  225 1    
   207  105  106 1    
   208  105  107 1    
   209  105  226 1    
   210  106  227 1    
   211  106  228 1    
   212  106  229 1    
   213  107  108 2    
   214  107  109 am   BACKBONE|DICT|INTERRES
   215  109  110 1    
   216  109  230 1    
   217  110  111 1    
   218  110  112 1    
   219  110  231 1    
   220  111  232 1    
   221  111  233 1    
   222  111  234 1    
   223  112  113 2    
   224  112  114 am   BACKBONE|DICT|INTERRES
   225  114  115 1    
   226  114  235 1    
   227  115  116 1    
   228  115  117 1    
   229  115  236 1    
   230  116  237 1    
   231  116  238 1    
   232  116  239 1    
   233  117  118 2    
   234  117  119 am   BACKBONE|DICT|INTERRES
   235  119  120 1    
   236  119  240 1    
   237  120  121 1    
   238  120  124 1    
   239  120  241 1    
   240  121  122 am   BACKBONE|DICT|INTERRES
   241  121  123 2    
   242  122  242 1    
   243  122  243 1    
   244  124  125 1    
   245  124  244 1    
   246  124  245 1    
   247  125  126 1    
   248  126  246 1    
   249  126  247 1    
@<TRIPOS>SUBSTRUCTURE
     1 UNK         1 GROUP             0       ****    0 ROOT    
