@<TRIPOS>MOLECULE
3R540
247   249    1
SMALL
USER_CHARGES


@<TRIPOS>ATOM
      1 CA         -4.0245  -11.0273  -47.1884 C.3       0 UNK        -0.1800 
      2 C          -2.8273  -11.8709  -47.6023 C.2       0 UNK         0.5000 
      3 O          -1.6869  -11.4516  -47.4068 O.2       0 UNK        -0.5000 
      4 N          -3.0823  -13.0585  -48.1697 N.am      1 UNK        -0.5000 
      5 CA         -2.0579  -14.0149  -48.6125 C.3       1 UNK         0.1400 
      6 C6         -2.6568  -15.0674  -49.5783 C.3       23 UNK        -0.0398 
      7 S7         -1.4005  -15.8307  -50.6597 S.3       23 UNK        -0.2404 
      8 C8         -1.3855  -17.5123  -49.9795 C.3       23 UNK        -0.0205 
      9 C9         -0.2312  -18.3414  -50.5147 C.ar      23 UNK        -0.0193 
     10 C10        -0.2751  -18.8494  -51.8154 C.ar      23 UNK        -0.1150 
     11 C11         0.7834  -19.6099  -52.3209 C.ar      23 UNK        -0.0193 
     12 C12         1.8801  -19.8823  -51.4985 C.ar      23 UNK        -0.1150 
     13 C13         1.9291  -19.3954  -50.1891 C.ar      23 UNK        -0.0193 
     14 C14         0.8735  -18.6186  -49.7034 C.ar      23 UNK        -0.1150 
     15 C15         3.1352  -19.7015  -49.3158 C.3       23 UNK        -0.0205 
     16 S16         2.9904  -21.3273  -48.5083 S.3       23 UNK        -0.2404 
     17 C17         2.1163  -20.9094  -46.9638 C.3       23 UNK        -0.0398 
     18 CA          0.9116  -21.8396  -46.6739 C.3       11 UNK         0.1400 
     19 N           0.6691  -21.9802  -45.2345 N.am      11 UNK        -0.5000 
     20 C          -0.2167  -22.8217  -44.6812 C.2       10 UNK         0.5000 
     21 O          -0.8868  -23.6310  -45.3223 O.2       10 UNK        -0.5000 
     22 CA         -0.4306  -22.6997  -43.1615 C.3       10 UNK         0.1400 
     23 CB          0.6608  -23.4578  -42.3917 C.3       10 UNK        -0.1800 
     24 N          -0.4740  -21.3063  -42.7149 N.am      10 UNK        -0.5000 
     25 C          -1.4130  -20.4212  -43.0782 C.2       9 UNK         0.5000 
     26 O          -2.3848  -20.7087  -43.7746 O.2       9 UNK        -0.5000 
     27 CA         -1.2031  -18.9584  -42.6459 C.3       9 UNK         0.1400 
     28 CB         -1.6755  -18.7302  -41.2038 C.3       9 UNK        -0.1800 
     29 N           0.1880  -18.5266  -42.7936 N.am      9 UNK        -0.5000 
     30 C           0.8231  -18.4326  -43.9708 C.2       8 UNK         0.5000 
     31 O           0.2823  -18.6307  -45.0569 O.2       8 UNK        -0.5000 
     32 CA          2.3240  -18.1109  -43.9299 C.3       8 UNK         0.1400 
     33 CB          2.5552  -16.5929  -43.9025 C.3       8 UNK        -0.1800 
     34 N           2.9794  -18.7446  -42.7852 N.am      8 UNK        -0.5000 
     35 C           3.2333  -20.0590  -42.7026 C.2       7 UNK         0.5000 
     36 O           2.9726  -20.8582  -43.6016 O.2       7 UNK        -0.5000 
     37 CA          3.8336  -20.5751  -41.3802 C.3       7 UNK         0.1400 
     38 CB          5.3548  -20.3659  -41.3585 C.3       7 UNK        -0.1800 
     39 N           3.2405  -19.9414  -40.2017 N.am      7 UNK        -0.5000 
     40 C           1.9557  -20.0649  -39.8403 C.2       6 UNK         0.5000 
     41 O           1.1534  -20.7883  -40.4277 O.2       6 UNK        -0.5000 
     42 CA          1.4652  -19.2029  -38.6595 C.3       6 UNK         0.1400 
     43 CB          1.5436  -20.0008  -37.3496 C.3       6 UNK        -0.1800 
     44 N           2.1721  -17.9288  -38.4881 N.am      6 UNK        -0.5000 
     45 C           2.3323  -16.9801  -39.4219 C.2       5 UNK         0.5000 
     46 O           1.9296  -17.0998  -40.5818 O.2       5 UNK        -0.5000 
     47 CA          3.1015  -15.7171  -38.9759 C.3       5 UNK         0.1400 
     48 CB          4.4224  -16.0768  -38.2688 C.3       5 UNK        -0.1800 
     49 N           3.4190  -14.8115  -40.0801 N.am      5 UNK        -0.5000 
     50 C           2.5576  -14.0229  -40.7339 C.2       4 UNK         0.5000 
     51 O           1.3527  -13.9635  -40.4809 O.2       4 UNK        -0.5000 
     52 CA          3.1490  -13.1164  -41.8290 C.3       4 UNK         0.1400 
     53 CB          4.5694  -13.5092  -42.2915 C.3       4 UNK        -0.1800 
     54 N           2.2560  -13.0701  -42.9840 N.am      4 UNK        -0.5000 
     55 C           2.0277  -11.9815  -43.7267 C.2       3 UNK         0.5000 
     56 O           2.5270  -10.8809  -43.4852 O.2       3 UNK        -0.5000 
     57 CA          1.1201  -12.1278  -44.9644 C.3       3 UNK         0.1400 
     58 CB          1.9214  -11.8721  -46.2518 C.3       3 UNK        -0.1800 
     59 N           0.4522  -13.4235  -45.0996 N.am      3 UNK        -0.5000 
     60 C          -0.6274  -13.8150  -44.4145 C.2       2 UNK         0.5000 
     61 O          -1.0876  -13.1968  -43.4541 O.2       2 UNK        -0.5000 
     62 CA         -1.3488  -15.0647  -44.9648 C.3       2 UNK         0.1400 
     63 CB         -2.4401  -15.5851  -44.0134 C.3       2 UNK        -0.1800 
     64 N          -1.9605  -14.7479  -46.2574 N.am      2 UNK        -0.5000 
     65 C          -1.3018  -14.6565  -47.4230 C.2       1 UNK         0.5000 
     66 O          -0.1243  -14.9940  -47.5545 O.2       1 UNK        -0.5000 
     67 C          -0.3617  -21.3863  -47.4187 C.2       11 UNK         0.5000 
     68 O          -0.7411  -22.0048  -48.4129 O.2       11 UNK        -0.5000 
     69 N          -1.0345  -20.3582  -46.8806 N.am      12 UNK        -0.5000 
     70 CA         -2.3037  -19.8394  -47.3833 C.3       12 UNK         0.1400 
     71 CB         -2.6825  -18.5550  -46.6296 C.3       12 UNK        -0.1800 
     72 C          -3.4444  -20.8650  -47.3262 C.2       12 UNK         0.5000 
     73 O          -4.2076  -20.9559  -48.2859 O.2       12 UNK        -0.5000 
     74 N          -3.5251  -21.6349  -46.2334 N.am      13 UNK        -0.5000 
     75 CA         -4.4832  -22.7261  -46.0606 C.3       13 UNK         0.1400 
     76 CB         -4.4277  -23.2457  -44.6162 C.3       13 UNK        -0.1800 
     77 C          -4.2597  -23.8675  -47.0683 C.2       13 UNK         0.5000 
     78 O          -5.2234  -24.3268  -47.6813 O.2       13 UNK        -0.5000 
     79 N          -2.9946  -24.2703  -47.2578 N.am      14 UNK        -0.5000 
     80 CA         -2.5794  -25.2870  -48.2279 C.3       14 UNK         0.1400 
     81 CB         -1.0947  -25.6205  -48.0175 C.3       14 UNK        -0.1800 
     82 C          -2.8443  -24.8690  -49.6869 C.2       14 UNK         0.5000 
     83 O          -3.2843  -25.6945  -50.4873 O.2       14 UNK        -0.5000 
     84 N          -2.6062  -23.5877  -49.9944 N.am      15 UNK        -0.5000 
     85 CA         -2.8764  -22.9752  -51.2947 C.3       15 UNK         0.1400 
     86 CB         -1.9856  -21.7353  -51.4492 C.3       15 UNK        -0.1800 
     87 C          -4.3544  -22.5955  -51.5073 C.2       15 UNK         0.5000 
     88 O          -4.6932  -22.1360  -52.5986 O.2       15 UNK        -0.5000 
     89 N          -5.2019  -22.7566  -50.4810 N.am      16 UNK        -0.5000 
     90 CA         -6.6269  -22.4079  -50.4396 C.3       16 UNK         0.1400 
     91 CB         -7.4386  -23.3571  -51.3444 C.3       16 UNK        -0.1800 
     92 C          -6.8846  -20.9156  -50.7445 C.2       16 UNK         0.5000 
     93 O          -7.7894  -20.5864  -51.5114 O.2       16 UNK        -0.5000 
     94 N          -6.0523  -20.0474  -50.1515 N.am      17 UNK        -0.5000 
     95 CA         -5.9816  -18.5972  -50.3575 C.3       17 UNK         0.1400 
     96 CB         -7.2650  -17.8988  -49.8620 C.3       17 UNK        -0.1800 
     97 C          -5.5978  -18.2287  -51.8072 C.2       17 UNK         0.5000 
     98 O          -6.1963  -17.3298  -52.4001 O.2       17 UNK        -0.5000 
     99 N          -4.5895  -18.9409  -52.3322 N.am      18 UNK        -0.5000 
    100 CA        -4.0170  -18.8236  -53.6777 C.3       18 UNK         0.1400 
    101 CB        -3.3948  -17.4285  -53.9031 C.3       18 UNK        -0.1800 
    102 C         -5.0132  -19.2290  -54.7854 C.2       18 UNK         0.5000 
    103 O         -5.1627  -18.5119  -55.7773 O.2       18 UNK        -0.5000 
    104 N         -5.6826  -20.3720  -54.5892 N.am      19 UNK        -0.5000 
    105 CA        -6.6578  -20.9417  -55.5215 C.3       19 UNK         0.1400 
    106 CB        -8.0602  -20.8806  -54.8978 C.3       19 UNK        -0.1800 
    107 C         -6.3051  -22.3867  -55.9102 C.2       19 UNK         0.5000 
    108 O         -6.4969  -22.7587  -57.0685 O.2       19 UNK        -0.5000 
    109 N         -5.7903  -23.1757  -54.9570 N.am      20 UNK        -0.5000 
    110 CA        -5.3451  -24.5551  -55.1747 C.3       20 UNK         0.1400 
    111 CB        -5.5506  -25.3658  -53.8852 C.3       20 UNK        -0.1800 
    112 C         -3.8749  -24.6234  -55.6270 C.2       20 UNK         0.5000 
    113 O         -3.4620  -25.6372  -56.1916 O.2       20 UNK        -0.5000 
    114 N         -3.1177  -23.5485  -55.3853 N.am      21 UNK        -0.5000 
    115 CA        -1.7447  -23.3519  -55.8278 C.3       21 UNK         0.1400 
    116 CB        -0.7740  -23.8402  -54.7395 C.3       21 UNK        -0.1800 
    117 C         -1.5485  -21.8581  -56.1124 C.2       21 UNK         0.5000 
    118 O         -2.2508  -21.0368  -55.5204 O.2       21 UNK        -0.5000 
    119 N         -0.6024  -21.5515  -57.0065 N.am      22 UNK        -0.5000 
    120 CA        -0.1076  -20.2316  -57.4550 C.3       22 UNK         0.1400 
    121 C         -1.1298  -19.1548  -57.9411 C.2       22 UNK         0.5000 
    122 N         -2.4215  -19.2869  -57.6853 N.am      22 UNK        -0.7600 
    123 O         -0.7384  -18.1975  -58.6038 O.2       22 UNK        -0.5000 
    124 C124        0.9922  -19.6513  -56.5225 C.3       23 UNK        -0.0398 
    125 S125        0.4138  -18.8608  -54.9785 S.3       23 UNK        -0.2404 
    126 C126        0.7409  -20.1591  -53.7413 C.3       23 UNK        -0.0205 
    127 H127       -4.0036  -10.0678  -47.7051 H         1 UNK         0.0600 
    128 H128       -3.9964  -10.8385  -46.1152 H         1 UNK         0.0600 
    129 H129       -4.9689  -11.5192  -47.4228 H         1 UNK         0.0600 
    130 H130       -4.0426  -13.3389  -48.3115 H         1 UNK         0.3000 
    131 H131       -1.3196  -13.4360  -49.1725 H         1 UNK         0.0600 
    132 H132       -3.3755  -14.5882  -50.2448 H         1 UNK         0.0800 
    133 H133       -3.2218  -15.8280  -49.0364 H         1 UNK         0.0800 
    134 H134       -2.3320  -18.0031  -50.2102 H         1 UNK         0.0800 
    135 H135       -1.3138  -17.4417  -48.8950 H         1 UNK         0.0800 
    136 H136       -1.1305  -18.6467  -52.4416 H         1 UNK         0.1150 
    137 H137        2.6990  -20.4799  -51.8736 H         1 UNK         0.1150 
    138 H138        0.9094  -18.2330  -48.6940 H         1 UNK         0.1150 
    139 H139        4.0348  -19.7012  -49.9331 H         1 UNK         0.0800 
    140 H140        3.2858  -18.9180  -48.5715 H         1 UNK         0.0800 
    141 H141        1.8217  -19.8591  -46.9551 H         1 UNK         0.0800 
    142 H142        2.8613  -21.0091  -46.1749 H         1 UNK         0.0800 
    143 H143        1.1577  -22.8408  -47.0347 H         1 UNK         0.0600 
    144 H144        1.2148  -21.3843  -44.6226 H         1 UNK         0.3000 
    145 H145       -1.3930  -23.1569  -42.9233 H         1 UNK         0.0600 
    146 H146        0.4695  -23.4395  -41.3187 H         1 UNK         0.0600 
    147 H147        1.6482  -23.0281  -42.5615 H         1 UNK         0.0600 
    148 H148        0.6997  -24.5039  -42.6979 H         1 UNK         0.0600 
    149 H149        0.2555  -21.0120  -42.0710 H         1 UNK         0.3000 
    150 H150       -1.8126  -18.3352  -43.3013 H         1 UNK         0.0600 
    151 H151       -1.1711  -19.3947  -40.5038 H         1 UNK         0.0600 
    152 H152       -2.7459  -18.9192  -41.1149 H         1 UNK         0.0600 
    153 H153       -1.4977  -17.7029  -40.8848 H         1 UNK         0.0600 
    154 H154        0.7044  -18.3149  -41.9484 H         1 UNK         0.3000 
    155 H155        2.7743  -18.5016  -44.8450 H         1 UNK         0.0600 
    156 H156        2.1143  -16.1170  -44.7794 H         1 UNK         0.0600 
    157 H157        3.6195  -16.3597  -43.9086 H         1 UNK         0.0600 
    158 H158        2.1120  -16.1313  -43.0208 H         1 UNK         0.0600 
    159 H159        3.1191  -18.1636  -41.9678 H         1 UNK         0.3000 
    160 H160        3.6351  -21.6475  -41.3223 H         1 UNK         0.0600 
    161 H161        5.6177  -19.3076  -41.3842 H         1 UNK         0.0600 
    162 H162        5.8263  -20.8426  -42.2190 H         1 UNK         0.0600 
    163 H163        5.7998  -20.8010  -40.4634 H         1 UNK         0.0600 
    164 H164        3.8334  -19.3273  -39.6638 H         1 UNK         0.3000 
    165 H165        0.4177  -18.9627  -38.8460 H         1 UNK         0.0600 
    166 H166        1.0982  -19.4478  -36.5223 H         1 UNK         0.0600 
    167 H167        1.0038  -20.9452  -37.4338 H         1 UNK         0.0600 
    168 H168        2.5749  -20.2347  -37.0823 H         1 UNK         0.0600 
    169 H169        2.5435  -17.7559  -37.5653 H         1 UNK         0.3000 
    170 H170        2.4646  -15.1815  -38.2692 H         1 UNK         0.0600 
    171 H171        5.0707  -16.6770  -38.9089 H         1 UNK         0.0600 
    172 H172        4.9735  -15.1795  -37.9857 H         1 UNK         0.0600 
    173 H173        4.2510  -16.6398  -37.3509 H         1 UNK         0.0600 
    174 H174        4.3828  -14.8047  -40.3791 H         1 UNK         0.3000 
    175 H175        3.2070  -12.1241  -41.3769 H         1 UNK         0.0600 
    176 H176        4.6014  -14.5257  -42.6839 H         1 UNK         0.0600 
    177 H177        4.9227  -12.8421  -43.0780 H         1 UNK         0.0600 
    178 H178        5.2899  -13.4390  -41.4759 H         1 UNK         0.0600 
    179 H179        1.7497  -13.9171  -43.1953 H         1 UNK         0.3000 
    180 H180        0.3508  -11.3563  -44.8890 H         1 UNK         0.0600 
    181 H181        1.2738  -11.8957  -47.1289 H         1 UNK         0.0600 
    182 H182        2.7046  -12.6182  -46.3916 H         1 UNK         0.0600 
    183 H183        2.3997  -10.8920  -46.2317 H         1 UNK         0.0600 
    184 H184        0.7102  -13.9742  -45.9110 H         1 UNK         0.3000 
    185 H185       -0.6090  -15.8572  -45.0962 H         1 UNK         0.0600 
    186 H186       -3.2178  -14.8398  -43.8419 H         1 UNK         0.0600 
    187 H187       -2.9196  -16.4774  -44.4146 H         1 UNK         0.0600 
    188 H188       -2.0167  -15.8478  -43.0431 H         1 UNK         0.0600 
    189 H189       -2.9086  -14.4030  -46.2253 H         1 UNK         0.3000 
    190 H190       -0.6353  -19.8750  -46.0792 H         1 UNK         0.3000 
    191 H191       -2.1538  -19.5990  -48.4345 H         1 UNK         0.0600 
    192 H192       -1.8769  -17.8217  -46.6570 H         1 UNK         0.0600 
    193 H193       -2.9066  -18.7560  -45.5822 H         1 UNK         0.0600 
    194 H194       -3.5650  -18.0894  -47.0700 H         1 UNK         0.0600 
    195 H195       -2.9027  -21.4439  -45.4527 H         1 UNK         0.3000 
    196 H196       -5.4822  -22.3208  -46.2345 H         1 UNK         0.0600 
    197 H197       -4.6559  -22.4527  -43.9038 H         1 UNK         0.0600 
    198 H198       -3.4446  -23.6448  -44.3672 H         1 UNK         0.0600 
    199 H199       -5.1552  -24.0431  -44.4601 H         1 UNK         0.0600 
    200 H200       -2.2589  -23.8601  -46.6886 H         1 UNK         0.3000 
    201 H201       -3.1610  -26.1901  -48.0321 H         1 UNK         0.0600 
    202 H202       -0.9148  -25.9965  -47.0102 H         1 UNK         0.0600 
    203 H203       -0.4604  -24.7458  -48.1647 H         1 UNK         0.0600 
    204 H204       -0.7632  -26.3893  -48.7165 H         1 UNK         0.0600 
    205 H205       -2.1731  -22.9902  -49.2947 H         1 UNK         0.3000 
    206 H206       -2.6111  -23.6856  -52.0800 H         1 UNK         0.0600 
    207 H207       -0.9317  -21.9902  -51.3352 H         1 UNK         0.0600 
    208 H208       -2.2241  -20.9732  -50.7063 H         1 UNK         0.0600 
    209 H209       -2.1029  -21.2871  -52.4362 H         1 UNK         0.0600 
    210 H210       -4.8219  -23.1113  -49.6129 H         1 UNK         0.3000 
    211 H211       -6.9513  -22.5714  -49.4110 H         1 UNK         0.0600 
    212 H212       -7.2108  -23.2051  -52.3988 H         1 UNK         0.0600 
    213 H213       -8.5097  -23.1973  -51.2165 H         1 UNK         0.0600 
    214 H214       -7.2349  -24.4005  -51.1037 H         1 UNK         0.0600 
    215 H215       -5.3553  -20.4320  -49.5126 H         1 UNK         0.3000 
    216 H216       -5.1607  -18.2453  -49.7308 H         1 UNK         0.0600 
    217 H217       -7.1529  -16.8144  -49.8892 H         1 UNK         0.0600 
    218 H218       -7.4913  -18.1755  -48.8324 H         1 UNK         0.0600 
    219 H219       -8.1299  -18.1517  -50.4757 H         1 UNK         0.0600 
    220 H220       -4.2235  -19.6988  -51.7757 H         1 UNK         0.3000 
    221 H221       -3.2027  -19.5455  -53.7120 H         1 UNK         0.0600 
    222 H222       -4.1553  -16.6535  -54.0005 H         1 UNK         0.0600 
    223 H223       -2.7381  -17.1448  -53.0824 H         1 UNK         0.0600 
    224 H224       -2.7978  -17.4174  -54.8160 H         1 UNK         0.0600 
    225 H225       -5.4689  -20.9139  -53.7567 H         1 UNK         0.3000 
    226 H226       -6.6786  -20.3632  -56.4472 H         1 UNK         0.0600 
    227 H227       -8.3241  -19.8601  -54.6195 H         1 UNK         0.0600 
    228 H228       -8.8155  -21.2344  -55.6005 H         1 UNK         0.0600 
    229 H229       -8.1303  -21.4993  -54.0032 H         1 UNK         0.0600 
    230 H230       -5.6079  -22.7921  -54.0340 H         1 UNK         0.3000 
    231 H231       -5.9526  -25.0146  -55.9572 H         1 UNK         0.0600 
    232 H232       -5.2716  -26.4096  -54.0339 H         1 UNK         0.0600 
    233 H233       -6.5947  -25.3528  -53.5732 H         1 UNK         0.0600 
    234 H234       -4.9469  -24.9839  -53.0624 H         1 UNK         0.0600 
    235 H235       -3.5392  -22.7302  -54.9640 H         1 UNK         0.3000 
    236 H236       -1.5714  -23.9079  -56.7517 H         1 UNK         0.0600 
    237 H237       -0.9030  -23.2884  -53.8084 H         1 UNK         0.0600 
    238 H238       -0.9225  -24.8984  -54.5239 H         1 UNK         0.0600 
    239 H239        0.2626  -23.7142  -55.0540 H         1 UNK         0.0600 
    240 H240       -0.1272  -22.3273  -57.4448 H         1 UNK         0.3000 
    241 H241        0.4142  -20.4908  -58.3773 H         1 UNK         0.0600 
    242 H242       -3.0782  -18.5909  -57.9997 H         1 UNK         0.3800 
    243 H243       -2.7047  -19.9947  -57.0162 H         1 UNK         0.3800 
    244 H244        1.5583  -18.8947  -57.0682 H         1 UNK         0.0800 
    245 H245        1.7209  -20.4270  -56.2860 H         1 UNK         0.0800 
    246 H246        1.6827  -20.6552  -53.9785 H         1 UNK         0.0800 
    247 H247       -0.0358  -20.9197  -53.8012 H         1 UNK         0.0800 
@<TRIPOS>BOND
     1    1    2 1    
     2    1  127 1    
     3    1  128 1    
     4    1  129 1    
     5    2    3 2    
     6    2    4 am   BACKBONE|DICT|INTERRES
     7    4    5 1    
     8    4  130 1    
     9    5    6 1    
    10    5   65 1    
    11    5  131 1    
    12    6    7 1    
    13    6  132 1    
    14    6  133 1    
    15    7    8 1    
    16    8    9 1    
    17    8  134 1    
    18    8  135 1    
    19    9   10 ar   
    20    9   14 ar   
    21   10   11 ar   
    22   10  136 1    
    23   11   12 ar   
    24   11  126 1    
    25   12   13 ar   
    26   12  137 1    
    27   13   14 ar   
    28   13   15 1    
    29   14  138 1    
    30   15   16 1    
    31   15  139 1    
    32   15  140 1    
    33   16   17 1    
    34   17   18 1    
    35   17  141 1    
    36   17  142 1    
    37   18   19 1    
    38   18   67 1    
    39   18  143 1    
    40   19   20 am   BACKBONE|DICT|INTERRES
    41   19  144 1    
    42   20   21 2    
    43   20   22 1    
    44   22   23 1    
    45   22   24 1    
    46   22  145 1    
    47   23  146 1    
    48   23  147 1    
    49   23  148 1    
    50   24   25 am   BACKBONE|DICT|INTERRES
    51   24  149 1    
    52   25   26 2    
    53   25   27 1    
    54   27   28 1    
    55   27   29 1    
    56   27  150 1    
    57   28  151 1    
    58   28  152 1    
    59   28  153 1    
    60   29   30 am   BACKBONE|DICT|INTERRES
    61   29  154 1    
    62   30   31 2    
    63   30   32 1    
    64   32   33 1    
    65   32   34 1    
    66   32  155 1    
    67   33  156 1    
    68   33  157 1    
    69   33  158 1    
    70   34   35 am   BACKBONE|DICT|INTERRES
    71   34  159 1    
    72   35   36 2    
    73   35   37 1    
    74   37   38 1    
    75   37   39 1    
    76   37  160 1    
    77   38  161 1    
    78   38  162 1    
    79   38  163 1    
    80   39   40 am   BACKBONE|DICT|INTERRES
    81   39  164 1    
    82   40   41 2    
    83   40   42 1    
    84   42   43 1    
    85   42   44 1    
    86   42  165 1    
    87   43  166 1    
    88   43  167 1    
    89   43  168 1    
    90   44   45 am   BACKBONE|DICT|INTERRES
    91   44  169 1    
    92   45   46 2    
    93   45   47 1    
    94   47   48 1    
    95   47   49 1    
    96   47  170 1    
    97   48  171 1    
    98   48  172 1    
    99   48  173 1    
   100   49   50 am   BACKBONE|DICT|INTERRES
   101   49  174 1    
   102   50   51 2    
   103   50   52 1    
   104   52   53 1    
   105   52   54 1    
   106   52  175 1    
   107   53  176 1    
   108   53  177 1    
   109   53  178 1    
   110   54   55 am   BACKBONE|DICT|INTERRES
   111   54  179 1    
   112   55   56 2    
   113   55   57 1    
   114   57   58 1    
   115   57   59 1    
   116   57  180 1    
   117   58  181 1    
   118   58  182 1    
   119   58  183 1    
   120   59   60 am   BACKBONE|DICT|INTERRES
   121   59  184 1    
   122   60   61 2    
   123   60   62 1    
   124   62   63 1    
   125   62   64 1    
   126   62  185 1    
   127   63  186 1    
   128   63  187 1    
   129   63  188 1    
   130   64   65 am   BACKBONE|DICT|INTERRES
   131   64  189 1    
   132   65   66 2    
   133   67   68 2    
   134   67   69 am   BACKBONE|DICT|INTERRES
   135   69   70 1    
   136   69  190 1    
   137   70   71 1    
   138   70   72 1    
   139   70  191 1    
   140   71  192 1    
   141   71  193 1    
   142   71  194 1    
   143   72   73 2    
   144   72   74 am   BACKBONE|DICT|INTERRES
   145   74   75 1    
   146   74  195 1    
   147   75   76 1    
   148   75   77 1    
   149   75  196 1    
   150   76  197 1    
   151   76  198 1    
   152   76  199 1    
   153   77   78 2    
   154   77   79 am   BACKBONE|DICT|INTERRES
   155   79   80 1    
   156   79  200 1    
   157   80   81 1    
   158   80   82 1    
   159   80  201 1    
   160   81  202 1    
   161   81  203 1    
   162   81  204 1    
   163   82   83 2    
   164   82   84 am   BACKBONE|DICT|INTERRES
   165   84   85 1    
   166   84  205 1    
   167   85   86 1    
   168   85   87 1    
   169   85  206 1    
   170   86  207 1    
   171   86  208 1    
   172   86  209 1    
   173   87   88 2    
   174   87   89 am   BACKBONE|DICT|INTERRES
   175   89   90 1    
   176   89  210 1    
   177   90   91 1    
   178   90   92 1    
   179   90  211 1    
   180   91  212 1    
   181   91  213 1    
   182   91  214 1    
   183   92   93 2    
   184   92   94 am   BACKBONE|DICT|INTERRES
   185   94   95 1    
   186   94  215 1    
   187   95   96 1    
   188   95   97 1    
   189   95  216 1    
   190   96  217 1    
   191   96  218 1    
   192   96  219 1    
   193   97   98 2    
   194   97   99 am   BACKBONE|DICT|INTERRES
   195   99  100 1    
   196   99  220 1    
   197  100  101 1    
   198  100  102 1    
   199  100  221 1    
   200  101  222 1    
   201  101  223 1    
   202  101  224 1    
   203  102  103 2    
   204  102  104 am   BACKBONE|DICT|INTERRES
   205  104  105 1    
   206  104  225 1    
   207  105  106 1    
   208  105  107 1    
   209  105  226 1    
   210  106  227 1    
   211  106  228 1    
   212  106  229 1    
   213  107  108 2    
   214  107  109 am   BACKBONE|DICT|INTERRES
   215  109  110 1    
   216  109  230 1    
   217  110  111 1    
   218  110  112 1    
   219  110  231 1    
   220  111  232 1    
   221  111  233 1    
   222  111  234 1    
   223  112  113 2    
   224  112  114 am   BACKBONE|DICT|INTERRES
   225  114  115 1    
   226  114  235 1    
   227  115  116 1    
   228  115  117 1    
   229  115  236 1    
   230  116  237 1    
   231  116  238 1    
   232  116  239 1    
   233  117  118 2    
   234  117  119 am   BACKBONE|DICT|INTERRES
   235  119  120 1    
   236  119  240 1    
   237  120  121 1    
   238  120  124 1    
   239  120  241 1    
   240  121  122 am   BACKBONE|DICT|INTERRES
   241  121  123 2    
   242  122  242 1    
   243  122  243 1    
   244  124  125 1    
   245  124  244 1    
   246  124  245 1    
   247  125  126 1    
   248  126  246 1    
   249  126  247 1    
@<TRIPOS>SUBSTRUCTURE
     1 UNK         1 GROUP             0       ****    0 ROOT    
