@<TRIPOS>MOLECULE
3R540
247   249    1
SMALL
USER_CHARGES


@<TRIPOS>ATOM
      1 CA         -0.3987  -12.2452  -50.8918 C.3       0 UNK        -0.1800 
      2 C          -0.0938  -12.1338  -49.4054 C.2       0 UNK         0.5000 
      3 O          -0.8789  -11.5526  -48.6575 O.2       0 UNK        -0.5000 
      4 N           1.0325  -12.7111  -48.9652 N.am      1 UNK        -0.5000 
      5 CA          1.5254  -12.6952  -47.5785 C.3       1 UNK         0.1400 
      6 C6          2.9884  -13.2052  -47.4905 C.3       23 UNK        -0.0398 
      7 S7          3.2029  -15.0068  -47.7099 S.3       23 UNK        -0.2404 
      8 C8          3.4043  -15.1688  -49.5116 C.3       23 UNK        -0.0205 
      9 C9          2.6217  -16.3703  -50.0132 C.ar      23 UNK        -0.0193 
     10 C10         1.2383  -16.2773  -50.1978 C.ar      23 UNK        -0.1150 
     11 C11         0.4939  -17.3943  -50.5924 C.ar      23 UNK        -0.0193 
     12 C12         1.1527  -18.6063  -50.8048 C.ar      23 UNK        -0.1150 
     13 C13         2.5308  -18.7182  -50.6055 C.ar      23 UNK        -0.0193 
     14 C14         3.2661  -17.5911  -50.2307 C.ar      23 UNK        -0.1150 
     15 C15         3.1957  -20.0843  -50.6827 C.3       23 UNK        -0.0205 
     16 S16         3.5987  -20.7661  -49.0313 S.3       23 UNK        -0.2404 
     17 C17         2.1498  -20.3092  -48.0146 C.3       23 UNK        -0.0398 
     18 CA          0.9460  -21.2637  -48.2113 C.3       11 UNK         0.1400 
     19 N           1.0972  -22.4650  -47.3864 N.am      11 UNK        -0.5000 
     20 C           1.2166  -23.7159  -47.8464 C.2       10 UNK         0.5000 
     21 O           1.1433  -24.0107  -49.0386 O.2       10 UNK        -0.5000 
     22 CA          1.4954  -24.8347  -46.8178 C.3       10 UNK         0.1400 
     23 CB          2.8904  -25.4384  -47.0486 C.3       10 UNK        -0.1800 
     24 N           1.4166  -24.3813  -45.4272 N.am      10 UNK        -0.5000 
     25 C           0.2886  -24.2889  -44.7121 C.2       9 UNK         0.5000 
     26 O          -0.8118  -24.6479  -45.1302 O.2       9 UNK        -0.5000 
     27 CA          0.3948  -23.6617  -43.3043 C.3       9 UNK         0.1400 
     28 CB          0.4147  -24.7619  -42.2331 C.3       9 UNK        -0.1800 
     29 N           1.5490  -22.7718  -43.1022 N.am      9 UNK        -0.5000 
     30 C           1.7944  -21.6613  -43.8100 C.2       8 UNK         0.5000 
     31 O           1.0986  -21.3107  -44.7644 O.2       8 UNK        -0.5000 
     32 CA          3.0532  -20.8519  -43.4425 C.3       8 UNK         0.1400 
     33 CB          4.3166  -21.6035  -43.8922 C.3       8 UNK        -0.1800 
     34 N           3.0459  -19.5382  -44.0899 N.am      8 UNK        -0.5000 
     35 C           2.2844  -18.5029  -43.7160 C.2       7 UNK         0.5000 
     36 O           1.5941  -18.4877  -42.6939 O.2       7 UNK        -0.5000 
     37 CA          2.2490  -17.3079  -44.6881 C.3       7 UNK         0.1400 
     38 CB          1.0537  -17.4485  -45.6414 C.3       7 UNK        -0.1800 
     39 N           2.1489  -16.0236  -43.9982 N.am      7 UNK        -0.5000 
     40 C           3.1070  -15.4800  -43.2361 C.2       6 UNK         0.5000 
     41 O           4.2135  -15.9934  -43.0636 O.2       6 UNK        -0.5000 
     42 CA          2.7874  -14.1338  -42.5575 C.3       6 UNK         0.1400 
     43 CB          3.5598  -12.9856  -43.2248 C.3       6 UNK        -0.1800 
     44 N           1.3602  -13.8121  -42.5936 N.am      6 UNK        -0.5000 
     45 C           0.4839  -14.1119  -41.6255 C.2       5 UNK         0.5000 
     46 O           0.7921  -14.7099  -40.5932 O.2       5 UNK        -0.5000 
     47 CA         -0.9804  -13.6773  -41.8566 C.3       5 UNK         0.1400 
     48 CB         -1.7635  -13.4701  -40.5436 C.3       5 UNK        -0.1800 
     49 N          -1.1085  -12.5089  -42.7348 N.am      5 UNK        -0.5000 
     50 C          -0.6556  -11.2617  -42.5246 C.2       4 UNK         0.5000 
     51 O          -0.0968  -10.9011  -41.4882 O.2       4 UNK        -0.5000 
     52 CA         -0.8290  -10.2465  -43.6749 C.3       4 UNK         0.1400 
     53 CB          0.5407   -9.7770  -44.1942 C.3       4 UNK        -0.1800 
     54 N          -1.5871  -10.7981  -44.7992 N.am      4 UNK        -0.5000 
     55 C          -2.9233  -10.8056  -44.9012 C.2       3 UNK         0.5000 
     56 O          -3.6751  -10.2527  -44.0983 O.2       3 UNK        -0.5000 
     57 CA         -3.5177  -11.6014  -46.0797 C.3       3 UNK         0.1400 
     58 CB         -3.8002  -10.6748  -47.2716 C.3       3 UNK        -0.1800 
     59 N          -2.6471  -12.7028  -46.5063 N.am      3 UNK        -0.5000 
     60 C          -2.4620  -13.8279  -45.7971 C.2       2 UNK         0.5000 
     61 O          -3.0338  -14.0566  -44.7320 O.2       2 UNK        -0.5000 
     62 CA         -1.4265  -14.8430  -46.3157 C.3       2 UNK         0.1400 
     63 CB         -2.0957  -15.9102  -47.1918 C.3       2 UNK        -0.1800 
     64 N          -0.3401  -14.2240  -47.0699 N.am      2 UNK        -0.5000 
     65 C           0.5789  -13.3887  -46.5662 C.2       1 UNK         0.5000 
     66 O           0.6643  -13.1259  -45.3650 O.2       1 UNK        -0.5000 
     67 C          -0.3756  -20.5354  -47.8939 C.2       11 UNK         0.5000 
     68 O          -1.0144  -20.0268  -48.8127 O.2       11 UNK        -0.5000 
     69 N          -0.7655  -20.4999  -46.6128 N.am      12 UNK        -0.5000 
     70 CA         -1.9246  -19.7778  -46.0883 C.3       12 UNK         0.1400 
     71 CB         -1.9525  -19.8840  -44.5540 C.3       12 UNK        -0.1800 
     72 C          -3.3015  -20.1186  -46.7076 C.2       12 UNK         0.5000 
     73 O          -4.0499  -19.1846  -46.9895 O.2       12 UNK        -0.5000 
     74 N          -3.6863  -21.3826  -46.9319 N.am      13 UNK        -0.5000 
     75 CA         -3.0513  -22.6417  -46.5552 C.3       13 UNK         0.1400 
     76 CB         -2.5239  -23.3343  -47.8223 C.3       13 UNK        -0.1800 
     77 C          -4.1017  -23.5444  -45.8900 C.2       13 UNK         0.5000 
     78 O          -5.2925  -23.2212  -45.8839 O.2       13 UNK        -0.5000 
     79 N          -3.6385  -24.6924  -45.3853 N.am      14 UNK        -0.5000 
     80 CA         -4.4534  -25.7541  -44.7910 C.3       14 UNK         0.1400 
     81 CB         -3.5139  -26.7577  -44.1038 C.3       14 UNK        -0.1800 
     82 C          -5.3876  -26.4798  -45.7862 C.2       14 UNK         0.5000 
     83 O          -6.3140  -27.1607  -45.3434 O.2       14 UNK        -0.5000 
     84 N          -5.1412  -26.3321  -47.0944 N.am      15 UNK        -0.5000 
     85 CA         -5.9603  -26.8682  -48.1772 C.3       15 UNK         0.1400 
     86 CB         -5.2627  -28.0980  -48.7799 C.3       15 UNK        -0.1800 
     87 C          -6.1448  -25.7826  -49.2442 C.2       15 UNK         0.5000 
     88 O          -5.2079  -25.0260  -49.5109 O.2       15 UNK        -0.5000 
     89 N          -7.3258  -25.7494  -49.8746 N.am      16 UNK        -0.5000 
     90 CA         -7.6923  -24.7745  -50.9083 C.3       16 UNK         0.1400 
     91 CB         -9.1675  -24.9672  -51.2894 C.3       16 UNK        -0.1800 
     92 C          -6.7986  -24.8363  -52.1616 C.2       16 UNK         0.5000 
     93 O          -6.4985  -23.7968  -52.7475 O.2       16 UNK        -0.5000 
     94 N          -6.3511  -26.0480  -52.5191 N.am      17 UNK        -0.5000 
     95 CA         -5.4305  -26.3031  -53.6290 C.3       17 UNK         0.1400 
     96 CB         -5.3647  -27.8160  -53.8862 C.3       17 UNK        -0.1800 
     97 C          -4.0175  -25.7346  -53.3924 C.2       17 UNK         0.5000 
     98 O          -3.3354  -25.3936  -54.3587 O.2       17 UNK        -0.5000 
     99 N          -3.6094  -25.6324  -52.1205 N.am      18 UNK        -0.5000 
    100 CA        -2.3521  -25.0136  -51.7076 C.3       18 UNK         0.1400 
    101 CB        -1.8762  -25.6595  -50.3981 C.3       18 UNK        -0.1800 
    102 C         -2.4985  -23.4868  -51.5759 C.2       18 UNK         0.5000 
    103 O         -1.5991  -22.7545  -51.9868 O.2       18 UNK        -0.5000 
    104 N         -3.6492  -23.0285  -51.0580 N.am      19 UNK        -0.5000 
    105 CA        -3.9997  -21.6108  -50.9083 C.3       19 UNK         0.1400 
    106 CB        -5.3154  -21.4986  -50.1250 C.3       19 UNK        -0.1800 
    107 C         -4.1130  -20.8700  -52.2565 C.2       19 UNK         0.5000 
    108 O         -3.8239  -19.6734  -52.3307 O.2       19 UNK        -0.5000 
    109 N         -4.4740  -21.6106  -53.3148 N.am      20 UNK        -0.5000 
    110 CA        -4.5434  -21.1734  -54.7126 C.3       20 UNK         0.1400 
    111 CB        -5.0893  -22.3292  -55.5655 C.3       20 UNK        -0.1800 
    112 C         -3.2161  -20.6444  -55.3018 C.2       20 UNK         0.5000 
    113 O         -3.2386  -20.0457  -56.3778 O.2       20 UNK        -0.5000 
    114 N         -2.0945  -20.8318  -54.5885 N.am      21 UNK        -0.5000 
    115 CA        -0.7989  -20.2098  -54.8685 C.3       21 UNK         0.1400 
    116 CB         0.2540  -20.7980  -53.9182 C.3       21 UNK        -0.1800 
    117 C         -0.8143  -18.6671  -54.7800 C.2       21 UNK         0.5000 
    118 O          0.0361  -18.0300  -55.4035 O.2       21 UNK        -0.5000 
    119 N         -1.7829  -18.0908  -54.0534 N.am      22 UNK        -0.5000 
    120 CA        -2.0692  -16.6473  -54.0601 C.3       22 UNK         0.1400 
    121 C         -3.5815  -16.2951  -53.9591 C.2       22 UNK         0.5000 
    122 N         -4.4616  -17.1914  -53.5257 N.am      22 UNK        -0.7600 
    123 O         -3.9726  -15.1863  -54.3140 O.2       22 UNK        -0.5000 
    124 C124       -1.1620  -15.8405  -53.0872 C.3       23 UNK        -0.0398 
    125 S125       -1.7079  -15.7930  -51.3434 S.3       23 UNK        -0.2404 
    126 C126       -1.0279  -17.3538  -50.7008 C.3       23 UNK        -0.0205 
    127 H127       -1.4051  -12.6371  -51.0393 H         1 UNK         0.0600 
    128 H128        0.3002  -12.9093  -51.4010 H         1 UNK         0.0600 
    129 H129       -0.3427  -11.2628  -51.3603 H         1 UNK         0.0600 
    130 H130        1.6344  -13.1699  -49.6315 H         1 UNK         0.3000 
    131 H131        1.5439  -11.6446  -47.2808 H         1 UNK         0.0600 
    132 H132        3.4044  -12.9473  -46.5172 H         1 UNK         0.0800 
    133 H133        3.6151  -12.6785  -48.2115 H         1 UNK         0.0800 
    134 H134        3.0682  -14.2721  -50.0309 H         1 UNK         0.0800 
    135 H135        4.4651  -15.2743  -49.7438 H         1 UNK         0.0800 
    136 H136        0.7368  -15.3433  -49.9970 H         1 UNK         0.1150 
    137 H137        0.5765  -19.4847  -51.0543 H         1 UNK         0.1150 
    138 H138        4.3282  -17.6809  -50.0506 H         1 UNK         0.1150 
    139 H139        2.5511  -20.7921  -51.2068 H         1 UNK         0.0800 
    140 H140        4.1106  -20.0123  -51.2723 H         1 UNK         0.0800 
    141 H141        1.8879  -19.2693  -48.2065 H         1 UNK         0.0800 
    142 H142        2.4672  -20.3168  -46.9713 H         1 UNK         0.0800 
    143 H143        0.8861  -21.5350  -49.2675 H         1 UNK         0.0600 
    144 H144        1.1541  -22.3063  -46.3866 H         1 UNK         0.3000 
    145 H145        0.7538  -25.6194  -46.9824 H         1 UNK         0.0600 
    146 H146        3.0827  -26.2618  -46.3605 H         1 UNK         0.0600 
    147 H147        2.9844  -25.8350  -48.0604 H         1 UNK         0.0600 
    148 H148        3.6774  -24.6953  -46.9131 H         1 UNK         0.0600 
    149 H149        2.2788  -24.0747  -45.0016 H         1 UNK         0.3000 
    150 H150       -0.5065  -23.0628  -43.1581 H         1 UNK         0.0600 
    151 H151        1.3131  -25.3762  -42.3049 H         1 UNK         0.0600 
    152 H152       -0.4457  -25.4250  -42.3363 H         1 UNK         0.0600 
    153 H153        0.3759  -24.3374  -41.2298 H         1 UNK         0.0600 
    154 H154        2.1727  -23.0165  -42.3464 H         1 UNK         0.3000 
    155 H155        3.0796  -20.7181  -42.3592 H         1 UNK         0.0600 
    156 H156        5.2174  -21.0413  -43.6448 H         1 UNK         0.0600 
    157 H157        4.3189  -21.7815  -44.9688 H         1 UNK         0.0600 
    158 H158        4.3989  -22.5727  -43.3988 H         1 UNK         0.0600 
    159 H159        3.5683  -19.4696  -44.9501 H         1 UNK         0.3000 
    160 H160        3.1672  -17.3039  -45.2796 H         1 UNK         0.0600 
    161 H161        0.1065  -17.4009  -45.1044 H         1 UNK         0.0600 
    162 H162        1.0799  -18.4048  -46.1588 H         1 UNK         0.0600 
    163 H163        1.0558  -16.6702  -46.4033 H         1 UNK         0.0600 
    164 H164        1.2700  -15.5355  -44.0686 H         1 UNK         0.3000 
    165 H165        3.1252  -14.2054  -41.5216 H         1 UNK         0.0600 
    166 H166        4.6315  -13.1875  -43.2434 H         1 UNK         0.0600 
    167 H167        3.2339  -12.8286  -44.2516 H         1 UNK         0.0600 
    168 H168        3.4140  -12.0501  -42.6842 H         1 UNK         0.0600 
    169 H169        1.0258  -13.3501  -43.4344 H         1 UNK         0.3000 
    170 H170       -1.4530  -14.5036  -42.3892 H         1 UNK         0.0600 
    171 H171       -1.8054  -14.3925  -39.9632 H         1 UNK         0.0600 
    172 H172       -1.3047  -12.7089  -39.9122 H         1 UNK         0.0600 
    173 H173       -2.7917  -13.1673  -40.7421 H         1 UNK         0.0600 
    174 H174       -1.5666  -12.6908  -43.6171 H         1 UNK         0.3000 
    175 H175       -1.3563   -9.3794  -43.2719 H         1 UNK         0.0600 
    176 H176        0.4297   -9.0498  -44.9988 H         1 UNK         0.0600 
    177 H177        1.1157   -9.2965  -43.4017 H         1 UNK         0.0600 
    178 H178        1.1379  -10.6072  -44.5719 H         1 UNK         0.0600 
    179 H179       -1.0511  -11.2878  -45.5014 H         1 UNK         0.3000 
    180 H180       -4.4686  -12.0250  -45.7491 H         1 UNK         0.0600 
    181 H181       -2.8965  -10.1700  -47.6144 H         1 UNK         0.0600 
    182 H182       -4.5210   -9.9025  -47.0002 H         1 UNK         0.0600 
    183 H183       -4.2168  -11.2278  -48.1136 H         1 UNK         0.0600 
    184 H184       -2.1053  -12.5467  -47.3504 H         1 UNK         0.3000 
    185 H185       -0.9945  -15.3338  -45.4425 H         1 UNK         0.0600 
    186 H186       -2.8956  -16.4180  -46.6511 H         1 UNK         0.0600 
    187 H187       -2.5307  -15.4779  -48.0938 H         1 UNK         0.0600 
    188 H188       -1.3766  -16.6695  -47.4980 H         1 UNK         0.0600 
    189 H189       -0.3401  -14.3756  -48.0671 H         1 UNK         0.3000 
    190 H190       -0.1474  -20.8995  -45.9096 H         1 UNK         0.3000 
    191 H191       -1.7439  -18.7284  -46.3236 H         1 UNK         0.0600 
    192 H192       -1.0459  -19.4663  -44.1152 H         1 UNK         0.0600 
    193 H193       -2.7956  -19.3302  -44.1391 H         1 UNK         0.0600 
    194 H194       -2.0377  -20.9149  -44.2122 H         1 UNK         0.0600 
    195 H195       -4.6311  -21.5173  -47.2621 H         1 UNK         0.3000 
    196 H196       -2.2407  -22.4878  -45.8460 H         1 UNK         0.0600 
    197 H197       -1.9083  -24.1996  -47.5770 H         1 UNK         0.0600 
    198 H198       -1.9228  -22.6773  -48.4444 H         1 UNK         0.0600 
    199 H199       -3.3472  -23.6834  -48.4398 H         1 UNK         0.0600 
    200 H200       -2.6324  -24.8514  -45.3966 H         1 UNK         0.3000 
    201 H201       -5.0872  -25.3006  -44.0264 H         1 UNK         0.0600 
    202 H202       -4.0774  -27.5522  -43.6129 H         1 UNK         0.0600 
    203 H203       -2.8371  -27.2267  -44.8192 H         1 UNK         0.0600 
    204 H204       -2.9073  -26.2707  -43.3398 H         1 UNK         0.0600 
    205 H205       -4.4022  -25.7081  -47.3860 H         1 UNK         0.3000 
    206 H206       -6.9450  -27.1581  -47.8047 H         1 UNK         0.0600 
    207 H207       -5.1340  -28.8811  -48.0326 H         1 UNK         0.0600 
    208 H208       -5.8486  -28.5213  -49.5967 H         1 UNK         0.0600 
    209 H209       -4.2769  -27.8488  -49.1753 H         1 UNK         0.0600 
    210 H210       -8.0402  -26.4135  -49.6126 H         1 UNK         0.3000 
    211 H211       -7.5820  -23.7787  -50.4754 H         1 UNK         0.0600 
    212 H212       -9.3521  -25.9613  -51.6984 H         1 UNK         0.0600 
    213 H213       -9.4742  -24.2400  -52.0426 H         1 UNK         0.0600 
    214 H214       -9.8191  -24.8321  -50.4260 H         1 UNK         0.0600 
    215 H215       -6.6486  -26.8476  -51.9800 H         1 UNK         0.3000 
    216 H216       -5.8340  -25.8198  -54.5214 H         1 UNK         0.0600 
    217 H217       -4.7046  -28.0412  -54.7250 H         1 UNK         0.0600 
    218 H218       -6.3480  -28.2179  -54.1316 H         1 UNK         0.0600 
    219 H219       -4.9873  -28.3563  -53.0170 H         1 UNK         0.0600 
    220 H220       -4.2483  -25.8922  -51.3819 H         1 UNK         0.3000 
    221 H221       -1.5876  -25.2043  -52.4640 H         1 UNK         0.0600 
    222 H222       -2.6359  -25.6183  -49.6195 H         1 UNK         0.0600 
    223 H223       -1.6201  -26.7078  -50.5517 H         1 UNK         0.0600 
    224 H224       -0.9856  -25.1608  -50.0182 H         1 UNK         0.0600 
    225 H225       -4.3215  -23.7010  -50.7043 H         1 UNK         0.3000 
    226 H226       -3.2086  -21.1325  -50.3267 H         1 UNK         0.0600 
    227 H227       -5.5170  -20.4612  -49.8550 H         1 UNK         0.0600 
    228 H228       -6.1620  -21.8552  -50.7116 H         1 UNK         0.0600 
    229 H229       -5.2829  -22.0775  -49.2025 H         1 UNK         0.0600 
    230 H230       -4.7614  -22.5655  -53.1359 H         1 UNK         0.3000 
    231 H231       -5.2584  -20.3497  -54.7573 H         1 UNK         0.0600 
    232 H232       -4.4247  -23.1929  -55.5405 H         1 UNK         0.0600 
    233 H233       -5.2001  -22.0306  -56.6087 H         1 UNK         0.0600 
    234 H234       -6.0711  -22.6497  -55.2167 H         1 UNK         0.0600 
    235 H235       -2.1560  -21.3600  -53.7270 H         1 UNK         0.3000 
    236 H236       -0.5186  -20.4709  -55.8909 H         1 UNK         0.0600 
    237 H237        1.2288  -20.3316  -54.0665 H         1 UNK         0.0600 
    238 H238       -0.0282  -20.6527  -52.8763 H         1 UNK         0.0600 
    239 H239        0.3763  -21.8689  -54.0814 H         1 UNK         0.0600 
    240 H240       -2.4411  -18.6782  -53.5570 H         1 UNK         0.3000 
    241 H241       -1.8111  -16.2988  -55.0625 H         1 UNK         0.0600 
    242 H242       -4.1833  -18.0848  -53.1292 H         1 UNK         0.3800 
    243 H243       -5.4326  -16.9263  -53.4890 H         1 UNK         0.3800 
    244 H244       -1.1181  -14.8045  -53.4259 H         1 UNK         0.0800 
    245 H245       -0.1331  -16.1994  -53.1356 H         1 UNK         0.0800 
    246 H246       -1.4432  -17.5220  -49.7078 H         1 UNK         0.0800 
    247 H247       -1.3911  -18.1773  -51.3167 H         1 UNK         0.0800 
@<TRIPOS>BOND
     1    1    2 1    
     2    1  127 1    
     3    1  128 1    
     4    1  129 1    
     5    2    3 2    
     6    2    4 am   BACKBONE|DICT|INTERRES
     7    4    5 1    
     8    4  130 1    
     9    5    6 1    
    10    5   65 1    
    11    5  131 1    
    12    6    7 1    
    13    6  132 1    
    14    6  133 1    
    15    7    8 1    
    16    8    9 1    
    17    8  134 1    
    18    8  135 1    
    19    9   10 ar   
    20    9   14 ar   
    21   10   11 ar   
    22   10  136 1    
    23   11   12 ar   
    24   11  126 1    
    25   12   13 ar   
    26   12  137 1    
    27   13   14 ar   
    28   13   15 1    
    29   14  138 1    
    30   15   16 1    
    31   15  139 1    
    32   15  140 1    
    33   16   17 1    
    34   17   18 1    
    35   17  141 1    
    36   17  142 1    
    37   18   19 1    
    38   18   67 1    
    39   18  143 1    
    40   19   20 am   BACKBONE|DICT|INTERRES
    41   19  144 1    
    42   20   21 2    
    43   20   22 1    
    44   22   23 1    
    45   22   24 1    
    46   22  145 1    
    47   23  146 1    
    48   23  147 1    
    49   23  148 1    
    50   24   25 am   BACKBONE|DICT|INTERRES
    51   24  149 1    
    52   25   26 2    
    53   25   27 1    
    54   27   28 1    
    55   27   29 1    
    56   27  150 1    
    57   28  151 1    
    58   28  152 1    
    59   28  153 1    
    60   29   30 am   BACKBONE|DICT|INTERRES
    61   29  154 1    
    62   30   31 2    
    63   30   32 1    
    64   32   33 1    
    65   32   34 1    
    66   32  155 1    
    67   33  156 1    
    68   33  157 1    
    69   33  158 1    
    70   34   35 am   BACKBONE|DICT|INTERRES
    71   34  159 1    
    72   35   36 2    
    73   35   37 1    
    74   37   38 1    
    75   37   39 1    
    76   37  160 1    
    77   38  161 1    
    78   38  162 1    
    79   38  163 1    
    80   39   40 am   BACKBONE|DICT|INTERRES
    81   39  164 1    
    82   40   41 2    
    83   40   42 1    
    84   42   43 1    
    85   42   44 1    
    86   42  165 1    
    87   43  166 1    
    88   43  167 1    
    89   43  168 1    
    90   44   45 am   BACKBONE|DICT|INTERRES
    91   44  169 1    
    92   45   46 2    
    93   45   47 1    
    94   47   48 1    
    95   47   49 1    
    96   47  170 1    
    97   48  171 1    
    98   48  172 1    
    99   48  173 1    
   100   49   50 am   BACKBONE|DICT|INTERRES
   101   49  174 1    
   102   50   51 2    
   103   50   52 1    
   104   52   53 1    
   105   52   54 1    
   106   52  175 1    
   107   53  176 1    
   108   53  177 1    
   109   53  178 1    
   110   54   55 am   BACKBONE|DICT|INTERRES
   111   54  179 1    
   112   55   56 2    
   113   55   57 1    
   114   57   58 1    
   115   57   59 1    
   116   57  180 1    
   117   58  181 1    
   118   58  182 1    
   119   58  183 1    
   120   59   60 am   BACKBONE|DICT|INTERRES
   121   59  184 1    
   122   60   61 2    
   123   60   62 1    
   124   62   63 1    
   125   62   64 1    
   126   62  185 1    
   127   63  186 1    
   128   63  187 1    
   129   63  188 1    
   130   64   65 am   BACKBONE|DICT|INTERRES
   131   64  189 1    
   132   65   66 2    
   133   67   68 2    
   134   67   69 am   BACKBONE|DICT|INTERRES
   135   69   70 1    
   136   69  190 1    
   137   70   71 1    
   138   70   72 1    
   139   70  191 1    
   140   71  192 1    
   141   71  193 1    
   142   71  194 1    
   143   72   73 2    
   144   72   74 am   BACKBONE|DICT|INTERRES
   145   74   75 1    
   146   74  195 1    
   147   75   76 1    
   148   75   77 1    
   149   75  196 1    
   150   76  197 1    
   151   76  198 1    
   152   76  199 1    
   153   77   78 2    
   154   77   79 am   BACKBONE|DICT|INTERRES
   155   79   80 1    
   156   79  200 1    
   157   80   81 1    
   158   80   82 1    
   159   80  201 1    
   160   81  202 1    
   161   81  203 1    
   162   81  204 1    
   163   82   83 2    
   164   82   84 am   BACKBONE|DICT|INTERRES
   165   84   85 1    
   166   84  205 1    
   167   85   86 1    
   168   85   87 1    
   169   85  206 1    
   170   86  207 1    
   171   86  208 1    
   172   86  209 1    
   173   87   88 2    
   174   87   89 am   BACKBONE|DICT|INTERRES
   175   89   90 1    
   176   89  210 1    
   177   90   91 1    
   178   90   92 1    
   179   90  211 1    
   180   91  212 1    
   181   91  213 1    
   182   91  214 1    
   183   92   93 2    
   184   92   94 am   BACKBONE|DICT|INTERRES
   185   94   95 1    
   186   94  215 1    
   187   95   96 1    
   188   95   97 1    
   189   95  216 1    
   190   96  217 1    
   191   96  218 1    
   192   96  219 1    
   193   97   98 2    
   194   97   99 am   BACKBONE|DICT|INTERRES
   195   99  100 1    
   196   99  220 1    
   197  100  101 1    
   198  100  102 1    
   199  100  221 1    
   200  101  222 1    
   201  101  223 1    
   202  101  224 1    
   203  102  103 2    
   204  102  104 am   BACKBONE|DICT|INTERRES
   205  104  105 1    
   206  104  225 1    
   207  105  106 1    
   208  105  107 1    
   209  105  226 1    
   210  106  227 1    
   211  106  228 1    
   212  106  229 1    
   213  107  108 2    
   214  107  109 am   BACKBONE|DICT|INTERRES
   215  109  110 1    
   216  109  230 1    
   217  110  111 1    
   218  110  112 1    
   219  110  231 1    
   220  111  232 1    
   221  111  233 1    
   222  111  234 1    
   223  112  113 2    
   224  112  114 am   BACKBONE|DICT|INTERRES
   225  114  115 1    
   226  114  235 1    
   227  115  116 1    
   228  115  117 1    
   229  115  236 1    
   230  116  237 1    
   231  116  238 1    
   232  116  239 1    
   233  117  118 2    
   234  117  119 am   BACKBONE|DICT|INTERRES
   235  119  120 1    
   236  119  240 1    
   237  120  121 1    
   238  120  124 1    
   239  120  241 1    
   240  121  122 am   BACKBONE|DICT|INTERRES
   241  121  123 2    
   242  122  242 1    
   243  122  243 1    
   244  124  125 1    
   245  124  244 1    
   246  124  245 1    
   247  125  126 1    
   248  126  246 1    
   249  126  247 1    
@<TRIPOS>SUBSTRUCTURE
     1 UNK         1 GROUP             0       ****    0 ROOT    
