@<TRIPOS>MOLECULE
3R540
247   249    1
SMALL
USER_CHARGES


@<TRIPOS>ATOM
      1 CA         -1.3491  -13.2661  -54.4412 C.3       0 UNK        -0.1800 
      2 C          -1.0328  -13.2893  -52.9536 C.2       0 UNK         0.5000 
      3 O          -0.8892  -12.2320  -52.3388 O.2       0 UNK        -0.5000 
      4 N          -0.9188  -14.4904  -52.3778 N.am      1 UNK        -0.5000 
      5 CA         -0.6632  -14.7092  -50.9539 C.3       1 UNK         0.1400 
      6 C6         -0.1231  -16.1344  -50.7039 C.3       23 UNK        -0.0398 
      7 S7          0.6601  -16.3061  -49.0600 S.3       23 UNK        -0.2404 
      8 C8          1.8160  -17.6985  -49.3039 C.3       23 UNK        -0.0205 
      9 C9          1.2231  -19.0880  -49.0672 C.ar      23 UNK        -0.0193 
     10 C10        -0.1335  -19.3678  -49.2700 C.ar      23 UNK        -0.1150 
     11 C11        -0.6367  -20.6550  -49.0857 C.ar      23 UNK        -0.0193 
     12 C12         0.2240  -21.6758  -48.6878 C.ar      23 UNK        -0.1150 
     13 C13         1.5764  -21.4150  -48.4535 C.ar      23 UNK        -0.0193 
     14 C14         2.0700  -20.1226  -48.6538 C.ar      23 UNK        -0.1150 
     15 C15         2.5011  -22.5326  -47.9916 C.3       23 UNK        -0.0205 
     16 S16         2.6072  -22.6230  -46.1756 S.3       23 UNK        -0.2404 
     17 C17         0.8646  -22.9261  -45.7354 C.3       23 UNK        -0.0398 
     18 CA          0.6813  -23.6950  -44.4094 C.3       11 UNK         0.1400 
     19 N           1.2124  -22.9345  -43.2825 N.am      11 UNK        -0.5000 
     20 C           1.7139  -23.4662  -42.1640 C.2       10 UNK         0.5000 
     21 O           1.7765  -24.6799  -41.9560 O.2       10 UNK        -0.5000 
     22 CA          2.2306  -22.4678  -41.1074 C.3       10 UNK         0.1400 
     23 CB          3.2082  -23.1009  -40.0953 C.3       10 UNK        -0.1800 
     24 N           2.7982  -21.2511  -41.6986 N.am      10 UNK        -0.5000 
     25 C           3.8795  -21.1385  -42.4871 C.2       9 UNK         0.5000 
     26 O           4.6035  -22.0858  -42.7955 O.2       9 UNK        -0.5000 
     27 CA          4.2216  -19.7305  -43.0256 C.3       9 UNK         0.1400 
     28 CB          4.0294  -19.6639  -44.5492 C.3       9 UNK        -0.1800 
     29 N           3.4341  -18.6612  -42.4093 N.am      9 UNK        -0.5000 
     30 C           3.6142  -18.1870  -41.1695 C.2       8 UNK         0.5000 
     31 O           4.5347  -18.5364  -40.4301 O.2       8 UNK        -0.5000 
     32 CA          2.5584  -17.1910  -40.6529 C.3       8 UNK         0.1400 
     33 CB          2.9397  -15.7527  -41.0332 C.3       8 UNK        -0.1800 
     34 N           1.2048  -17.4893  -41.1338 N.am      8 UNK        -0.5000 
     35 C           0.5154  -18.5987  -40.8276 C.2       7 UNK         0.5000 
     36 O           0.9391  -19.4750  -40.0749 O.2       7 UNK        -0.5000 
     37 CA         -0.8538  -18.7919  -41.5031 C.3       7 UNK         0.1400 
     38 CB         -1.9394  -17.9834  -40.7779 C.3       7 UNK        -0.1800 
     39 N          -0.8397  -18.4429  -42.9232 N.am      7 UNK        -0.5000 
     40 C          -0.1478  -19.1003  -43.8659 C.2       6 UNK         0.5000 
     41 O           0.5256  -20.1073  -43.6428 O.2       6 UNK        -0.5000 
     42 CA         -0.1784  -18.5000  -45.2860 C.3       6 UNK         0.1400 
     43 CB         -1.4793  -18.8794  -46.0102 C.3       6 UNK        -0.1800 
     44 N          -0.0328  -17.0423  -45.2753 N.am      6 UNK        -0.5000 
     45 C           1.0440  -16.3907  -44.8122 C.2       5 UNK         0.5000 
     46 O           2.0590  -16.9515  -44.4002 O.2       5 UNK        -0.5000 
     47 CA          0.9454  -14.8578  -44.7246 C.3       5 UNK         0.1400 
     48 CB          1.2449  -14.1891  -46.0738 C.3       5 UNK        -0.1800 
     49 N          -0.3619  -14.4223  -44.2345 N.am      5 UNK        -0.5000 
     50 C          -0.7788  -14.5715  -42.9694 C.2       4 UNK         0.5000 
     51 O          -0.0895  -15.0636  -42.0779 O.2       4 UNK        -0.5000 
     52 CA         -2.2190  -14.1295  -42.6535 C.3       4 UNK         0.1400 
     53 CB         -2.2666  -12.6265  -42.3412 C.3       4 UNK        -0.1800 
     54 N          -3.1509  -14.4274  -43.7405 N.am      4 UNK        -0.5000 
     55 C          -3.4881  -15.6634  -44.1352 C.2       3 UNK         0.5000 
     56 O          -3.0802  -16.6901  -43.5944 O.2       3 UNK        -0.5000 
     57 CA         -4.3909  -15.7631  -45.3787 C.3       3 UNK         0.1400 
     58 CB         -5.8703  -15.6707  -44.9761 C.3       3 UNK        -0.1800 
     59 N          -4.0904  -14.7384  -46.3844 N.am      3 UNK        -0.5000 
     60 C          -2.9175  -14.6331  -47.0233 C.2       2 UNK         0.5000 
     61 O          -1.9624  -15.3846  -46.8156 O.2       2 UNK        -0.5000 
     62 CA         -2.7704  -13.4478  -47.9928 C.3       2 UNK         0.1400 
     63 CB         -2.3814  -12.1797  -47.2162 C.3       2 UNK        -0.1800 
     64 N          -1.7396  -13.7136  -48.9928 N.am      2 UNK        -0.5000 
     65 C          -1.9277  -14.4193  -50.1137 C.2       1 UNK         0.5000 
     66 O          -3.0265  -14.8461  -50.4779 O.2       1 UNK        -0.5000 
     67 C          -0.8169  -23.9904  -44.2070 C.2       11 UNK         0.5000 
     68 O          -1.5088  -23.2528  -43.4994 O.2       11 UNK        -0.5000 
     69 N          -1.3073  -25.0237  -44.9045 N.am      12 UNK        -0.5000 
     70 CA         -2.7332  -25.2188  -45.1662 C.3       12 UNK         0.1400 
     71 CB         -2.9877  -26.6839  -45.5533 C.3       12 UNK        -0.1800 
     72 C          -3.1948  -24.2674  -46.2875 C.2       12 UNK         0.5000 
     73 O          -2.3852  -23.8747  -47.1328 O.2       12 UNK        -0.5000 
     74 N          -4.4932  -23.9432  -46.2907 N.am      13 UNK        -0.5000 
     75 CA         -5.1379  -22.9156  -47.1197 C.3       13 UNK         0.1400 
     76 CB         -6.5867  -22.7433  -46.6343 C.3       13 UNK        -0.1800 
     77 C          -5.1026  -23.1261  -48.6499 C.2       13 UNK         0.5000 
     78 O          -5.5609  -22.2468  -49.3795 O.2       13 UNK        -0.5000 
     79 N          -4.5729  -24.2580  -49.1232 N.am      14 UNK        -0.5000 
     80 CA         -4.3834  -24.5562  -50.5419 C.3       14 UNK         0.1400 
     81 CB         -5.6310  -25.2773  -51.0865 C.3       14 UNK        -0.1800 
     82 C          -3.0832  -25.3440  -50.7900 C.2       14 UNK         0.5000 
     83 O          -2.9826  -26.0245  -51.8114 O.2       14 UNK        -0.5000 
     84 N          -2.1142  -25.2676  -49.8612 N.am      15 UNK        -0.5000 
     85 CA         -0.8702  -26.0433  -49.9227 C.3       15 UNK         0.1400 
     86 CB         -0.1232  -25.9478  -48.5841 C.3       15 UNK        -0.1800 
     87 C           0.0532  -25.6349  -51.0849 C.2       15 UNK         0.5000 
     88 O           0.5598  -26.5081  -51.7907 O.2       15 UNK        -0.5000 
     89 N           0.2535  -24.3220  -51.2596 N.am      16 UNK        -0.5000 
     90 CA          1.1063  -23.7644  -52.3129 C.3       16 UNK         0.1400 
     91 CB          1.8168  -22.5128  -51.7757 C.3       16 UNK        -0.1800 
     92 C           0.3203  -23.4075  -53.5848 C.2       16 UNK         0.5000 
     93 O           0.9200  -23.3408  -54.6582 O.2       16 UNK        -0.5000 
     94 N          -0.9880  -23.1435  -53.4334 N.am      17 UNK        -0.5000 
     95 CA         -1.8990  -22.5840  -54.4415 C.3       17 UNK         0.1400 
     96 CB         -2.1583  -23.5979  -55.5741 C.3       17 UNK        -0.1800 
     97 C          -1.4253  -21.2034  -54.9533 C.2       17 UNK         0.5000 
     98 O          -1.5676  -20.8891  -56.1353 O.2       17 UNK        -0.5000 
     99 N          -0.8626  -20.4009  -54.0388 N.am      18 UNK        -0.5000 
    100 CA        -0.1905  -19.1189  -54.2739 C.3       18 UNK         0.1400 
    101 CB         0.7592  -18.8605  -53.0905 C.3       18 UNK        -0.1800 
    102 C         -1.1371  -17.9232  -54.5374 C.2       18 UNK         0.5000 
    103 O         -0.7731  -16.7831  -54.2401 O.2       18 UNK        -0.5000 
    104 N         -2.3223  -18.2046  -55.0962 N.am      19 UNK        -0.5000 
    105 CA        -3.3893  -17.2801  -55.4911 C.3       19 UNK         0.1400 
    106 CB        -2.9167  -16.4174  -56.6822 C.3       19 UNK        -0.1800 
    107 C         -3.9692  -16.4355  -54.3334 C.2       19 UNK         0.5000 
    108 O         -3.6159  -16.6368  -53.1692 O.2       19 UNK        -0.5000 
    109 N         -4.8838  -15.5198  -54.6871 N.am      20 UNK        -0.5000 
    110 CA        -5.6336  -14.6169  -53.8091 C.3       20 UNK         0.1400 
    111 CB        -4.7233  -13.5041  -53.2533 C.3       20 UNK        -0.1800 
    112 C         -6.4209  -15.3829  -52.7285 C.2       20 UNK         0.5000 
    113 O         -7.4747  -15.9375  -53.0450 O.2       20 UNK        -0.5000 
    114 N         -5.9120  -15.4094  -51.4897 N.am      21 UNK        -0.5000 
    115 CA        -6.5228  -16.1385  -50.3794 C.3       21 UNK         0.1400 
    116 CB        -6.0599  -15.5180  -49.0552 C.3       21 UNK        -0.1800 
    117 C         -6.1993  -17.6438  -50.4038 C.2       21 UNK         0.5000 
    118 O         -6.9420  -18.4201  -49.8019 O.2       21 UNK        -0.5000 
    119 N         -5.1050  -18.0311  -51.0722 N.am      22 UNK        -0.5000 
    120 CA        -4.6822  -19.4257  -51.2237 C.3       22 UNK         0.1400 
    121 C         -5.5057  -20.1554  -52.3187 C.2       22 UNK         0.5000 
    122 N         -6.0599  -21.3183  -52.0083 N.am      22 UNK        -0.7600 
    123 O         -5.6106  -19.6939  -53.4531 O.2       22 UNK        -0.5000 
    124 C124       -3.1603  -19.5188  -51.4871 C.3       23 UNK        -0.0398 
    125 S125       -2.4916  -21.1643  -51.0628 S.3       23 UNK        -0.2404 
    126 C126       -2.1106  -20.9452  -49.3004 C.3       23 UNK        -0.0205 
    127 H127       -1.9278  -12.3784  -54.6966 H         1 UNK         0.0600 
    128 H128       -1.9312  -14.1406  -54.7278 H         1 UNK         0.0600 
    129 H129       -0.4279  -13.2562  -55.0236 H         1 UNK         0.0600 
    130 H130       -1.0599  -15.3260  -52.9406 H         1 UNK         0.3000 
    131 H131        0.1166  -14.0033  -50.6587 H         1 UNK         0.0600 
    132 H132       -0.9176  -16.8681  -50.8378 H         1 UNK         0.0800 
    133 H133        0.6324  -16.3654  -51.4552 H         1 UNK         0.0800 
    134 H134        2.6465  -17.5468  -48.6128 H         1 UNK         0.0800 
    135 H135        2.2430  -17.6587  -50.3064 H         1 UNK         0.0800 
    136 H136       -0.8153  -18.5896  -49.5628 H         1 UNK         0.1150 
    137 H137       -0.1705  -22.6695  -48.5457 H         1 UNK         0.1150 
    138 H138        3.1187  -19.9230  -48.4844 H         1 UNK         0.1150 
    139 H139        2.1656  -23.4923  -48.3866 H         1 UNK         0.0800 
    140 H140        3.5021  -22.3737  -48.3950 H         1 UNK         0.0800 
    141 H141        0.4105  -23.4961  -46.5440 H         1 UNK         0.0800 
    142 H142        0.3456  -21.9658  -45.7056 H         1 UNK         0.0800 
    143 H143        1.2127  -24.6464  -44.4851 H         1 UNK         0.0600 
    144 H144        1.1348  -21.9236  -43.3581 H         1 UNK         0.3000 
    145 H145        1.3498  -22.1471  -40.5500 H         1 UNK         0.0600 
    146 H146        3.5465  -22.3672  -39.3636 H         1 UNK         0.0600 
    147 H147        2.7290  -23.9103  -39.5436 H         1 UNK         0.0600 
    148 H148        4.0882  -23.5175  -40.5858 H         1 UNK         0.0600 
    149 H149        2.2740  -20.4069  -41.5058 H         1 UNK         0.3000 
    150 H150        5.2765  -19.5497  -42.8100 H         1 UNK         0.0600 
    151 H151        4.6265  -20.4235  -45.0550 H         1 UNK         0.0600 
    152 H152        4.3346  -18.6948  -44.9441 H         1 UNK         0.0600 
    153 H153        2.9881  -19.8246  -44.8301 H         1 UNK         0.0600 
    154 H154        2.6922  -18.2647  -42.9777 H         1 UNK         0.3000 
    155 H155        2.5462  -17.2606  -39.5633 H         1 UNK         0.0600 
    156 H156        3.9391  -15.5048  -40.6736 H         1 UNK         0.0600 
    157 H157        2.2494  -15.0325  -40.5939 H         1 UNK         0.0600 
    158 H158        2.9340  -15.6076  -42.1136 H         1 UNK         0.0600 
    159 H159        0.7646  -16.7799  -41.7124 H         1 UNK         0.3000 
    160 H160       -1.1139  -19.8499  -41.4259 H         1 UNK         0.0600 
    161 H161       -1.7568  -16.9110  -40.8455 H         1 UNK         0.0600 
    162 H162       -1.9795  -18.2441  -39.7196 H         1 UNK         0.0600 
    163 H163       -2.9252  -18.1818  -41.1990 H         1 UNK         0.0600 
    164 H164       -1.4213  -17.6585  -43.2026 H         1 UNK         0.3000 
    165 H165        0.6605  -18.9145  -45.8495 H         1 UNK         0.0600 
    166 H166       -1.5284  -18.4212  -46.9977 H         1 UNK         0.0600 
    167 H167       -1.5476  -19.9597  -46.1444 H         1 UNK         0.0600 
    168 H168       -2.3611  -18.5596  -45.4550 H         1 UNK         0.0600 
    169 H169       -0.8043  -16.4998  -45.6521 H         1 UNK         0.3000 
    170 H170        1.7042  -14.5213  -44.0150 H         1 UNK         0.0600 
    171 H171        1.3061  -13.1058  -45.9701 H         1 UNK         0.0600 
    172 H172        2.1980  -14.5329  -46.4780 H         1 UNK         0.0600 
    173 H173        0.4771  -14.4092  -46.8134 H         1 UNK         0.0600 
    174 H174       -1.0116  -14.0739  -44.9227 H         1 UNK         0.3000 
    175 H175       -2.5480  -14.6739  -41.7659 H         1 UNK         0.0600 
    176 H176       -1.5920  -12.3775  -41.5209 H         1 UNK         0.0600 
    177 H177       -1.9725  -12.0251  -43.2024 H         1 UNK         0.0600 
    178 H178       -3.2682  -12.3175  -42.0416 H         1 UNK         0.0600 
    179 H179       -3.5369  -13.6406  -44.2404 H         1 UNK         0.3000 
    180 H180       -4.2196  -16.7407  -45.8345 H         1 UNK         0.0600 
    181 H181       -6.1196  -16.4296  -44.2332 H         1 UNK         0.0600 
    182 H182       -6.1117  -14.6983  -44.5451 H         1 UNK         0.0600 
    183 H183       -6.5258  -15.8307  -45.8312 H         1 UNK         0.0600 
    184 H184       -4.8249  -14.0755  -46.5856 H         1 UNK         0.3000 
    185 H185       -3.7259  -13.2769  -48.4934 H         1 UNK         0.0600 
    186 H186       -1.4334  -12.3015  -46.6904 H         1 UNK         0.0600 
    187 H187       -2.2841  -11.3243  -47.8852 H         1 UNK         0.0600 
    188 H188       -3.1384  -11.9231  -46.4741 H         1 UNK         0.0600 
    189 H189       -0.7990  -13.4517  -48.7386 H         1 UNK         0.3000 
    190 H190       -0.6788  -25.5663  -45.4779 H         1 UNK         0.3000 
    191 H191       -3.2980  -24.9970  -44.2581 H         1 UNK         0.0600 
    192 H192       -2.6271  -27.3635  -44.7809 H         1 UNK         0.0600 
    193 H193       -2.5011  -26.9533  -46.4899 H         1 UNK         0.0600 
    194 H194       -4.0545  -26.8740  -45.6767 H         1 UNK         0.0600 
    195 H195       -5.0853  -24.3578  -45.5855 H         1 UNK         0.3000 
    196 H196       -4.6090  -21.9787  -46.9332 H         1 UNK         0.0600 
    197 H197       -7.0946  -21.9454  -47.1783 H         1 UNK         0.0600 
    198 H198       -6.6216  -22.4806  -45.5769 H         1 UNK         0.0600 
    199 H199       -7.1667  -23.6563  -46.7746 H         1 UNK         0.0600 
    200 H200       -4.2226  -24.9387  -48.4649 H         1 UNK         0.3000 
    201 H201       -4.2648  -23.6239  -51.0971 H         1 UNK         0.0600 
    202 H202       -5.5461  -25.4620  -52.1581 H         1 UNK         0.0600 
    203 H203       -5.7823  -26.2388  -50.5950 H         1 UNK         0.0600 
    204 H204       -6.5294  -24.6786  -50.9357 H         1 UNK         0.0600 
    205 H205       -2.2427  -24.6731  -49.0495 H         1 UNK         0.3000 
    206 H206       -1.1407  -27.0906  -50.0744 H         1 UNK         0.0600 
    207 H207       -0.7244  -26.3399  -47.7670 H         1 UNK         0.0600 
    208 H208        0.8017  -26.5254  -48.6099 H         1 UNK         0.0600 
    209 H209        0.1405  -24.9206  -48.3437 H         1 UNK         0.0600 
    210 H210       -0.1952  -23.6694  -50.6351 H         1 UNK         0.3000 
    211 H211        1.8758  -24.4872  -52.5931 H         1 UNK         0.0600 
    212 H212        2.4492  -22.7569  -50.9232 H         1 UNK         0.0600 
    213 H213        1.1075  -21.7452  -51.4647 H         1 UNK         0.0600 
    214 H214        2.4622  -22.0717  -52.5364 H         1 UNK         0.0600 
    215 H215       -1.3775  -23.2463  -52.5084 H         1 UNK         0.3000 
    216 H216       -2.8496  -22.4094  -53.9352 H         1 UNK         0.0600 
    217 H217       -2.9363  -23.2388  -56.2486 H         1 UNK         0.0600 
    218 H218       -2.4925  -24.5556  -55.1747 H         1 UNK         0.0600 
    219 H219       -1.2648  -23.7770  -56.1726 H         1 UNK         0.0600 
    220 H220       -0.8361  -20.7355  -53.0865 H         1 UNK         0.3000 
    221 H221        0.4226  -19.2238  -55.1711 H         1 UNK         0.0600 
    222 H222        1.4737  -19.6750  -52.9733 H         1 UNK         0.0600 
    223 H223        0.2101  -18.7619  -52.1542 H         1 UNK         0.0600 
    224 H224        1.3400  -17.9491  -53.2358 H         1 UNK         0.0600 
    225 H225       -2.4875  -19.1762  -55.3255 H         1 UNK         0.3000 
    226 H226       -4.2090  -17.9101  -55.8396 H         1 UNK         0.0600 
    227 H227       -3.7246  -15.8124  -57.0937 H         1 UNK         0.0600 
    228 H228       -2.1097  -15.7416  -56.4010 H         1 UNK         0.0600 
    229 H229       -2.5497  -17.0454  -57.4942 H         1 UNK         0.0600 
    230 H230       -5.1346  -15.4623  -55.6637 H         1 UNK         0.3000 
    231 H231       -6.3828  -14.1313  -54.4362 H         1 UNK         0.0600 
    232 H232       -4.3391  -12.8799  -54.0595 H         1 UNK         0.0600 
    233 H233       -3.8699  -13.9083  -52.7142 H         1 UNK         0.0600 
    234 H234       -5.2680  -12.8497  -52.5717 H         1 UNK         0.0600 
    235 H235       -4.9934  -15.0111  -51.3205 H         1 UNK         0.3000 
    236 H236       -7.6079  -16.0294  -50.4384 H         1 UNK         0.0600 
    237 H237       -6.2559  -14.4463  -49.0243 H         1 UNK         0.0600 
    238 H238       -6.5826  -15.9724  -48.2136 H         1 UNK         0.0600 
    239 H239       -4.9933  -15.6753  -48.9002 H         1 UNK         0.0600 
    240 H240       -4.5856  -17.3459  -51.6148 H         1 UNK         0.3000 
    241 H241       -4.8739  -19.9110  -50.2655 H         1 UNK         0.0600 
    242 H242       -6.5957  -21.8169  -52.6996 H         1 UNK         0.3800 
    243 H243       -5.9608  -21.6968  -51.0667 H         1 UNK         0.3800 
    244 H244       -2.9361  -19.2944  -52.5292 H         1 UNK         0.0800 
    245 H245       -2.6300  -18.7648  -50.9066 H         1 UNK         0.0800 
    246 H246       -2.3906  -21.8553  -48.7720 H         1 UNK         0.0800 
    247 H247       -2.7195  -20.1503  -48.8675 H         1 UNK         0.0800 
@<TRIPOS>BOND
     1    1    2 1    
     2    1  127 1    
     3    1  128 1    
     4    1  129 1    
     5    2    3 2    
     6    2    4 am   BACKBONE|DICT|INTERRES
     7    4    5 1    
     8    4  130 1    
     9    5    6 1    
    10    5   65 1    
    11    5  131 1    
    12    6    7 1    
    13    6  132 1    
    14    6  133 1    
    15    7    8 1    
    16    8    9 1    
    17    8  134 1    
    18    8  135 1    
    19    9   10 ar   
    20    9   14 ar   
    21   10   11 ar   
    22   10  136 1    
    23   11   12 ar   
    24   11  126 1    
    25   12   13 ar   
    26   12  137 1    
    27   13   14 ar   
    28   13   15 1    
    29   14  138 1    
    30   15   16 1    
    31   15  139 1    
    32   15  140 1    
    33   16   17 1    
    34   17   18 1    
    35   17  141 1    
    36   17  142 1    
    37   18   19 1    
    38   18   67 1    
    39   18  143 1    
    40   19   20 am   BACKBONE|DICT|INTERRES
    41   19  144 1    
    42   20   21 2    
    43   20   22 1    
    44   22   23 1    
    45   22   24 1    
    46   22  145 1    
    47   23  146 1    
    48   23  147 1    
    49   23  148 1    
    50   24   25 am   BACKBONE|DICT|INTERRES
    51   24  149 1    
    52   25   26 2    
    53   25   27 1    
    54   27   28 1    
    55   27   29 1    
    56   27  150 1    
    57   28  151 1    
    58   28  152 1    
    59   28  153 1    
    60   29   30 am   BACKBONE|DICT|INTERRES
    61   29  154 1    
    62   30   31 2    
    63   30   32 1    
    64   32   33 1    
    65   32   34 1    
    66   32  155 1    
    67   33  156 1    
    68   33  157 1    
    69   33  158 1    
    70   34   35 am   BACKBONE|DICT|INTERRES
    71   34  159 1    
    72   35   36 2    
    73   35   37 1    
    74   37   38 1    
    75   37   39 1    
    76   37  160 1    
    77   38  161 1    
    78   38  162 1    
    79   38  163 1    
    80   39   40 am   BACKBONE|DICT|INTERRES
    81   39  164 1    
    82   40   41 2    
    83   40   42 1    
    84   42   43 1    
    85   42   44 1    
    86   42  165 1    
    87   43  166 1    
    88   43  167 1    
    89   43  168 1    
    90   44   45 am   BACKBONE|DICT|INTERRES
    91   44  169 1    
    92   45   46 2    
    93   45   47 1    
    94   47   48 1    
    95   47   49 1    
    96   47  170 1    
    97   48  171 1    
    98   48  172 1    
    99   48  173 1    
   100   49   50 am   BACKBONE|DICT|INTERRES
   101   49  174 1    
   102   50   51 2    
   103   50   52 1    
   104   52   53 1    
   105   52   54 1    
   106   52  175 1    
   107   53  176 1    
   108   53  177 1    
   109   53  178 1    
   110   54   55 am   BACKBONE|DICT|INTERRES
   111   54  179 1    
   112   55   56 2    
   113   55   57 1    
   114   57   58 1    
   115   57   59 1    
   116   57  180 1    
   117   58  181 1    
   118   58  182 1    
   119   58  183 1    
   120   59   60 am   BACKBONE|DICT|INTERRES
   121   59  184 1    
   122   60   61 2    
   123   60   62 1    
   124   62   63 1    
   125   62   64 1    
   126   62  185 1    
   127   63  186 1    
   128   63  187 1    
   129   63  188 1    
   130   64   65 am   BACKBONE|DICT|INTERRES
   131   64  189 1    
   132   65   66 2    
   133   67   68 2    
   134   67   69 am   BACKBONE|DICT|INTERRES
   135   69   70 1    
   136   69  190 1    
   137   70   71 1    
   138   70   72 1    
   139   70  191 1    
   140   71  192 1    
   141   71  193 1    
   142   71  194 1    
   143   72   73 2    
   144   72   74 am   BACKBONE|DICT|INTERRES
   145   74   75 1    
   146   74  195 1    
   147   75   76 1    
   148   75   77 1    
   149   75  196 1    
   150   76  197 1    
   151   76  198 1    
   152   76  199 1    
   153   77   78 2    
   154   77   79 am   BACKBONE|DICT|INTERRES
   155   79   80 1    
   156   79  200 1    
   157   80   81 1    
   158   80   82 1    
   159   80  201 1    
   160   81  202 1    
   161   81  203 1    
   162   81  204 1    
   163   82   83 2    
   164   82   84 am   BACKBONE|DICT|INTERRES
   165   84   85 1    
   166   84  205 1    
   167   85   86 1    
   168   85   87 1    
   169   85  206 1    
   170   86  207 1    
   171   86  208 1    
   172   86  209 1    
   173   87   88 2    
   174   87   89 am   BACKBONE|DICT|INTERRES
   175   89   90 1    
   176   89  210 1    
   177   90   91 1    
   178   90   92 1    
   179   90  211 1    
   180   91  212 1    
   181   91  213 1    
   182   91  214 1    
   183   92   93 2    
   184   92   94 am   BACKBONE|DICT|INTERRES
   185   94   95 1    
   186   94  215 1    
   187   95   96 1    
   188   95   97 1    
   189   95  216 1    
   190   96  217 1    
   191   96  218 1    
   192   96  219 1    
   193   97   98 2    
   194   97   99 am   BACKBONE|DICT|INTERRES
   195   99  100 1    
   196   99  220 1    
   197  100  101 1    
   198  100  102 1    
   199  100  221 1    
   200  101  222 1    
   201  101  223 1    
   202  101  224 1    
   203  102  103 2    
   204  102  104 am   BACKBONE|DICT|INTERRES
   205  104  105 1    
   206  104  225 1    
   207  105  106 1    
   208  105  107 1    
   209  105  226 1    
   210  106  227 1    
   211  106  228 1    
   212  106  229 1    
   213  107  108 2    
   214  107  109 am   BACKBONE|DICT|INTERRES
   215  109  110 1    
   216  109  230 1    
   217  110  111 1    
   218  110  112 1    
   219  110  231 1    
   220  111  232 1    
   221  111  233 1    
   222  111  234 1    
   223  112  113 2    
   224  112  114 am   BACKBONE|DICT|INTERRES
   225  114  115 1    
   226  114  235 1    
   227  115  116 1    
   228  115  117 1    
   229  115  236 1    
   230  116  237 1    
   231  116  238 1    
   232  116  239 1    
   233  117  118 2    
   234  117  119 am   BACKBONE|DICT|INTERRES
   235  119  120 1    
   236  119  240 1    
   237  120  121 1    
   238  120  124 1    
   239  120  241 1    
   240  121  122 am   BACKBONE|DICT|INTERRES
   241  121  123 2    
   242  122  242 1    
   243  122  243 1    
   244  124  125 1    
   245  124  244 1    
   246  124  245 1    
   247  125  126 1    
   248  126  246 1    
   249  126  247 1    
@<TRIPOS>SUBSTRUCTURE
     1 UNK         1 GROUP             0       ****    0 ROOT    
