@<TRIPOS>MOLECULE
3R540
247   249    1
SMALL
USER_CHARGES


@<TRIPOS>ATOM
      1 CA         -3.8190  -10.5309  -46.5337 C.3       0 UNK        -0.1800 
      2 C          -2.4167  -10.9163  -46.0871 C.2       0 UNK         0.5000 
      3 O          -1.5049  -10.0927  -46.1531 O.2       0 UNK        -0.5000 
      4 N          -2.2426  -12.1577  -45.6134 N.am      1 UNK        -0.5000 
      5 CA         -0.9604  -12.7413  -45.1877 C.3       1 UNK         0.1400 
      6 C6         -1.0814  -14.2502  -44.8637 C.3       23 UNK        -0.0398 
      7 S7         -1.7872  -15.2197  -46.2384 S.3       23 UNK        -0.2404 
      8 C8         -0.2891  -15.5984  -47.1940 C.3       23 UNK        -0.0205 
      9 C9         -0.6251  -16.4130  -48.4322 C.ar      23 UNK        -0.0193 
     10 C10        -0.9545  -15.7729  -49.6329 C.ar      23 UNK        -0.1150 
     11 C11        -1.2879  -16.5175  -50.7706 C.ar      23 UNK        -0.0193 
     12 C12        -1.2835  -17.9127  -50.6894 C.ar      23 UNK        -0.1150 
     13 C13        -0.9339  -18.5634  -49.5059 C.ar      23 UNK        -0.0193 
     14 C14        -0.6113  -17.8097  -48.3764 C.ar      23 UNK        -0.1150 
     15 C15        -0.8918  -20.0803  -49.4732 C.3       23 UNK        -0.0205 
     16 S16        -2.5027  -20.7865  -49.0100 S.3       23 UNK        -0.2404 
     17 C17        -2.2273  -21.1261  -47.2479 C.3       23 UNK        -0.0398 
     18 CA         -1.7309  -22.5803  -47.0297 C.3       11 UNK         0.1400 
     19 N          -0.5490  -22.6270  -46.1674 N.am      11 UNK        -0.5000 
     20 C           0.1933  -23.7153  -45.9270 C.2       10 UNK         0.5000 
     21 O          -0.0066  -24.8087  -46.4511 O.2       10 UNK        -0.5000 
     22 CA          1.3105  -23.5683  -44.8801 C.3       10 UNK         0.1400 
     23 CB          2.6011  -23.0343  -45.5197 C.3       10 UNK        -0.1800 
     24 N           0.9026  -22.6977  -43.7767 N.am      10 UNK        -0.5000 
     25 C          -0.0279  -23.0236  -42.8682 C.2       9 UNK         0.5000 
     26 O          -0.5889  -24.1192  -42.8293 O.2       9 UNK        -0.5000 
     27 CA         -0.4340  -21.9225  -41.8710 C.3       9 UNK         0.1400 
     28 CB          0.5604  -21.8541  -40.7027 C.3       9 UNK        -0.1800 
     29 N          -0.5387  -20.6029  -42.4985 N.am      9 UNK        -0.5000 
     30 C          -1.4587  -20.2704  -43.4156 C.2       8 UNK         0.5000 
     31 O          -2.3343  -21.0380  -43.8139 O.2       8 UNK        -0.5000 
     32 CA         -1.3512  -18.8605  -44.0299 C.3       8 UNK         0.1400 
     33 CB         -2.0849  -17.8374  -43.1509 C.3       8 UNK        -0.1800 
     34 N           0.0267  -18.4092  -44.2491 N.am      8 UNK        -0.5000 
     35 C           0.9542  -19.0506  -44.9747 C.2       7 UNK         0.5000 
     36 O           0.7379  -20.1230  -45.5374 O.2       7 UNK        -0.5000 
     37 CA          2.3484  -18.4042  -45.1046 C.3       7 UNK         0.1400 
     38 CB          2.7897  -18.3178  -46.5756 C.3       7 UNK        -0.1800 
     39 N           2.4383  -17.0697  -44.5097 N.am      7 UNK        -0.5000 
     40 C           2.6249  -16.7951  -43.2142 C.2       6 UNK         0.5000 
     41 O           2.6940  -17.6662  -42.3462 O.2       6 UNK        -0.5000 
     42 CA          2.7478  -15.2994  -42.8401 C.3       6 UNK         0.1400 
     43 CB          3.1676  -15.0874  -41.3747 C.3       6 UNK        -0.1800 
     44 N           3.6770  -14.5653  -43.7057 N.am      6 UNK        -0.5000 
     45 C           3.4218  -14.1551  -44.9537 C.2       5 UNK         0.5000 
     46 O           2.3775  -14.4140  -45.5575 O.2       5 UNK        -0.5000 
     47 CA          4.5302  -13.3670  -45.6692 C.3       5 UNK         0.1400 
     48 CB          5.2143  -14.2433  -46.7298 C.3       5 UNK        -0.1800 
     49 N           3.9529  -12.1917  -46.3154 N.am      5 UNK        -0.5000 
     50 C           3.6177  -11.0696  -45.6674 C.2       4 UNK         0.5000 
     51 O           3.9317  -10.8451  -44.4955 O.2       4 UNK        -0.5000 
     52 CA          2.8048  -10.0211  -46.4481 C.3       4 UNK         0.1400 
     53 CB          2.0397  -10.5920  -47.6609 C.3       4 UNK        -0.1800 
     54 N           1.8557   -9.3922  -45.5358 N.am      4 UNK        -0.5000 
     55 C           1.5232   -8.0960  -45.5228 C.2       3 UNK         0.5000 
     56 O           2.0047   -7.2675  -46.2979 O.2       3 UNK        -0.5000 
     57 CA          0.4773   -7.6394  -44.4834 C.3       3 UNK         0.1400 
     58 CB         -0.6168   -6.7749  -45.1344 C.3       3 UNK        -0.1800 
     59 N          -0.1663   -8.7763  -43.8238 N.am      3 UNK        -0.5000 
     60 C           0.0568   -9.1778  -42.5651 C.2       2 UNK         0.5000 
     61 O           0.8133   -8.5960  -41.7869 O.2       2 UNK        -0.5000 
     62 CA         -0.6806  -10.4484  -42.0882 C.3       2 UNK         0.1400 
     63 CB         -1.8986  -10.0713  -41.2310 C.3       2 UNK        -0.1800 
     64 N          -1.1245  -11.3185  -43.1805 N.am      2 UNK        -0.5000 
     65 C          -0.3089  -11.9896  -44.0062 C.2       1 UNK         0.5000 
     66 O           0.9145  -11.9897  -43.8881 O.2       1 UNK        -0.5000 
     67 C          -2.8608  -23.5000  -46.5219 C.2       11 UNK         0.5000 
     68 O          -3.4598  -24.2307  -47.3136 O.2       11 UNK        -0.5000 
     69 N          -3.0974  -23.4743  -45.2026 N.am      12 UNK        -0.5000 
     70 CA         -4.0357  -24.3504  -44.5042 C.3       12 UNK         0.1400 
     71 CB         -4.2097  -23.8706  -43.0556 C.3       12 UNK        -0.1800 
     72 C          -3.6040  -25.8268  -44.5509 C.2       12 UNK         0.5000 
     73 O          -4.4399  -26.6887  -44.8220 O.2       12 UNK        -0.5000 
     74 N          -2.3052  -26.0923  -44.3428 N.am      13 UNK        -0.5000 
     75 CA         -1.7019  -27.4253  -44.4553 C.3       13 UNK         0.1400 
     76 CB         -0.2493  -27.3781  -43.9593 C.3       13 UNK        -0.1800 
     77 C          -1.7766  -28.0027  -45.8839 C.2       13 UNK         0.5000 
     78 O          -1.9894  -29.2044  -46.0459 O.2       13 UNK        -0.5000 
     79 N          -1.6536  -27.1270  -46.8901 N.am      14 UNK        -0.5000 
     80 CA         -1.8423  -27.4223  -48.3117 C.3       14 UNK         0.1400 
     81 CB         -1.1249  -26.3426  -49.1413 C.3       14 UNK        -0.1800 
     82 C          -3.3243  -27.5299  -48.7316 C.2       14 UNK         0.5000 
     83 O          -3.5903  -27.7493  -49.9133 O.2       14 UNK        -0.5000 
     84 N          -4.2636  -27.3427  -47.7908 N.am      15 UNK        -0.5000 
     85 CA         -5.7198  -27.3905  -47.9672 C.3       15 UNK         0.1400 
     86 CB         -6.1793  -28.8342  -48.2581 C.3       15 UNK        -0.1800 
     87 C          -6.2376  -26.3721  -49.0054 C.2       15 UNK         0.5000 
     88 O          -7.1726  -26.6687  -49.7508 O.2       15 UNK        -0.5000 
     89 N          -5.5940  -25.1958  -49.0438 N.am      16 UNK        -0.5000 
     90 CA         -5.8315  -24.0746  -49.9568 C.3       16 UNK         0.1400 
     91 CB         -7.2541  -23.5030  -49.7881 C.3       16 UNK        -0.1800 
     92 C          -5.4790  -24.3579  -51.4341 C.2       16 UNK         0.5000 
     93 O          -5.7998  -23.5354  -52.2930 O.2       16 UNK        -0.5000 
     94 N          -4.7623  -25.4557  -51.7261 N.am      17 UNK        -0.5000 
     95 CA         -4.2238  -25.7346  -53.0640 C.3       17 UNK         0.1400 
     96 CB         -3.6648  -27.1632  -53.1156 C.3       17 UNK        -0.1800 
     97 C          -3.1433  -24.7144  -53.4715 C.2       17 UNK         0.5000 
     98 O          -3.0620  -24.3297  -54.6380 O.2       17 UNK        -0.5000 
     99 N          -2.3726  -24.2483  -52.4794 N.am      18 UNK        -0.5000 
    100 CA        -1.3955  -23.1731  -52.6234 C.3       18 UNK         0.1400 
    101 CB        -0.4731  -23.1715  -51.3964 C.3       18 UNK        -0.1800 
    102 C         -2.0537  -21.7948  -52.8382 C.2       18 UNK         0.5000 
    103 O         -1.4632  -20.9496  -53.5083 O.2       18 UNK        -0.5000 
    104 N         -3.2738  -21.5942  -52.3148 N.am      19 UNK        -0.5000 
    105 CA        -4.0655  -20.3778  -52.5237 C.3       19 UNK         0.1400 
    106 CB        -5.2488  -20.3171  -51.5445 C.3       19 UNK        -0.1800 
    107 C         -4.5614  -20.2701  -53.9735 C.2       19 UNK         0.5000 
    108 O         -4.5284  -19.1813  -54.5461 O.2       19 UNK        -0.5000 
    109 N         -4.9627  -21.4100  -54.5542 N.am      20 UNK        -0.5000 
    110 CA        -5.3562  -21.5298  -55.9586 C.3       20 UNK         0.1400 
    111 CB        -5.9740  -22.9155  -56.1989 C.3       20 UNK        -0.1800 
    112 C         -4.1894  -21.2677  -56.9320 C.2       20 UNK         0.5000 
    113 O         -4.4133  -20.7045  -58.0039 O.2       20 UNK        -0.5000 
    114 N         -2.9687  -21.6557  -56.5349 N.am      21 UNK        -0.5000 
    115 CA        -1.7326  -21.3654  -57.2630 C.3       21 UNK         0.1400 
    116 CB        -0.6140  -22.2920  -56.7613 C.3       21 UNK        -0.1800 
    117 C         -1.3200  -19.8845  -57.1438 C.2       21 UNK         0.5000 
    118 O         -0.9310  -19.2795  -58.1436 O.2       21 UNK        -0.5000 
    119 N         -1.4157  -19.3348  -55.9265 N.am      22 UNK        -0.5000 
    120 CA        -1.1533  -17.9260  -55.5935 C.3       22 UNK         0.1400 
    121 C         -2.1454  -16.9373  -56.2716 C.2       22 UNK         0.5000 
    122 N         -3.4460  -17.1984  -56.2365 N.am      22 UNK        -0.7600 
    123 O         -1.7313  -15.9353  -56.8486 O.2       22 UNK        -0.5000 
    124 C124       -1.1125  -17.7552  -54.0549 C.3       23 UNK        -0.0398 
    125 S125       -0.5239  -16.1360  -53.4441 S.3       23 UNK        -0.2404 
    126 C126       -1.6842  -15.8159  -52.0682 C.3       23 UNK        -0.0205 
    127 H127       -3.8113  -10.2470  -47.5859 H         1 UNK         0.0600 
    128 H128       -4.1767   -9.6810  -45.9526 H         1 UNK         0.0600 
    129 H129       -4.5249  -11.3521  -46.4075 H         1 UNK         0.0600 
    130 H130       -3.0291  -12.7917  -45.5965 H         1 UNK         0.3000 
    131 H131       -0.2736  -12.6395  -46.0301 H         1 UNK         0.0600 
    132 H132       -1.7189  -14.3981  -43.9904 H         1 UNK         0.0800 
    133 H133       -0.1094  -14.6702  -44.6023 H         1 UNK         0.0800 
    134 H134        0.4100  -16.1452  -46.5619 H         1 UNK         0.0800 
    135 H135        0.2111  -14.6715  -47.4790 H         1 UNK         0.0800 
    136 H136       -0.9660  -14.6927  -49.6738 H         1 UNK         0.1150 
    137 H137       -1.5443  -18.5091  -51.5472 H         1 UNK         0.1150 
    138 H138       -0.3542  -18.3099  -47.4549 H         1 UNK         0.1150 
    139 H139       -0.6216  -20.4479  -50.4625 H         1 UNK         0.0800 
    140 H140       -0.1063  -20.4295  -48.8007 H         1 UNK         0.0800 
    141 H141       -3.1492  -20.9120  -46.7033 H         1 UNK         0.0800 
    142 H142       -1.5082  -20.3997  -46.8723 H         1 UNK         0.0800 
    143 H143       -1.4032  -22.9968  -47.9844 H         1 UNK         0.0600 
    144 H144       -0.2589  -21.7522  -45.7408 H         1 UNK         0.3000 
    145 H145        1.5213  -24.5590  -44.4728 H         1 UNK         0.0600 
    146 H146        3.4028  -22.9580  -44.7853 H         1 UNK         0.0600 
    147 H147        2.9464  -23.7031  -46.3090 H         1 UNK         0.0600 
    148 H148        2.4605  -22.0502  -45.9665 H         1 UNK         0.0600 
    149 H149        1.2724  -21.7586  -43.7796 H         1 UNK         0.3000 
    150 H150       -1.4150  -22.1852  -41.4691 H         1 UNK         0.0600 
    151 H151        0.6480  -22.8223  -40.2079 H         1 UNK         0.0600 
    152 H152        0.2358  -21.1344  -39.9510 H         1 UNK         0.0600 
    153 H153        1.5575  -21.5641  -41.0367 H         1 UNK         0.0600 
    154 H154        0.1506  -19.9136  -42.2350 H         1 UNK         0.3000 
    155 H155       -1.8457  -18.8860  -45.0025 H         1 UNK         0.0600 
    156 H156       -1.6048  -17.7224  -42.1783 H         1 UNK         0.0600 
    157 H157       -3.1171  -18.1429  -42.9743 H         1 UNK         0.0600 
    158 H158       -2.1172  -16.8588  -43.6279 H         1 UNK         0.0600 
    159 H159        0.2917  -17.5393  -43.8141 H         1 UNK         0.3000 
    160 H160        3.0472  -19.0642  -44.5868 H         1 UNK         0.0600 
    161 H161        2.1394  -17.6666  -47.1588 H         1 UNK         0.0600 
    162 H162        2.7805  -19.3000  -47.0503 H         1 UNK         0.0600 
    163 H163        3.8058  -17.9315  -46.6576 H         1 UNK         0.0600 
    164 H164        2.3770  -16.2779  -45.1439 H         1 UNK         0.3000 
    165 H165        1.7544  -14.8623  -42.9591 H         1 UNK         0.0600 
    166 H166        3.1959  -14.0270  -41.1229 H         1 UNK         0.0600 
    167 H167        2.4618  -15.5605  -40.6906 H         1 UNK         0.0600 
    168 H168        4.1539  -15.5075  -41.1738 H         1 UNK         0.0600 
    169 H169        4.5744  -14.3445  -43.2988 H         1 UNK         0.3000 
    170 H170        5.2822  -13.0501  -44.9432 H         1 UNK         0.0600 
    171 H171        5.6657  -15.1255  -46.2740 H         1 UNK         0.0600 
    172 H172        4.5078  -14.5904  -47.4852 H         1 UNK         0.0600 
    173 H173        6.0089  -13.6978  -47.2390 H         1 UNK         0.0600 
    174 H174        3.6254  -12.3197  -47.2614 H         1 UNK         0.3000 
    175 H175        3.5222   -9.2794  -46.8048 H         1 UNK         0.0600 
    176 H176        1.3727  -11.4042  -47.3696 H         1 UNK         0.0600 
    177 H177        1.4310   -9.8226  -48.1364 H         1 UNK         0.0600 
    178 H178        2.7215  -10.9708  -48.4228 H         1 UNK         0.0600 
    179 H179        1.4784  -10.0032  -44.8213 H         1 UNK         0.3000 
    180 H180        1.0042   -7.0226  -43.7530 H         1 UNK         0.0600 
    181 H181       -1.3510   -6.4488  -44.3976 H         1 UNK         0.0600 
    182 H182       -1.1464   -7.3199  -45.9167 H         1 UNK         0.0600 
    183 H183       -0.1938   -5.8774  -45.5870 H         1 UNK         0.0600 
    184 H184       -0.7721   -9.3313  -44.4204 H         1 UNK         0.3000 
    185 H185        0.0149  -11.0154  -41.4659 H         1 UNK         0.0600 
    186 H186       -2.3849  -10.9579  -40.8237 H         1 UNK         0.0600 
    187 H187       -1.6042   -9.4473  -40.3861 H         1 UNK         0.0600 
    188 H188       -2.6391   -9.5152  -41.8073 H         1 UNK         0.0600 
    189 H189       -2.1184  -11.3569  -43.3546 H         1 UNK         0.3000 
    190 H190       -2.6063  -22.7902  -44.6345 H         1 UNK         0.3000 
    191 H191       -5.0024  -24.2707  -45.0058 H         1 UNK         0.0600 
    192 H192       -4.9310  -24.4915  -42.5229 H         1 UNK         0.0600 
    193 H193       -4.5758  -22.8443  -43.0227 H         1 UNK         0.0600 
    194 H194       -3.2720  -23.9072  -42.5010 H         1 UNK         0.0600 
    195 H195       -1.6868  -25.3326  -44.0782 H         1 UNK         0.3000 
    196 H196       -2.2607  -28.0962  -43.7996 H         1 UNK         0.0600 
    197 H197        0.3687  -26.7318  -44.5818 H         1 UNK         0.0600 
    198 H198       -0.1931  -27.0101  -42.9347 H         1 UNK         0.0600 
    199 H199        0.1994  -28.3720  -43.9738 H         1 UNK         0.0600 
    200 H200       -1.3913  -26.1719  -46.6648 H         1 UNK         0.3000 
    201 H201       -1.3755  -28.3845  -48.5308 H         1 UNK         0.0600 
    202 H202       -1.5611  -25.3566  -48.9807 H         1 UNK         0.0600 
    203 H203       -1.1835  -26.5587  -50.2088 H         1 UNK         0.0600 
    204 H204       -0.0674  -26.2852  -48.8829 H         1 UNK         0.0600 
    205 H205       -3.9564  -27.1322  -46.8489 H         1 UNK         0.3000 
    206 H206       -6.1532  -27.0930  -47.0116 H         1 UNK         0.0600 
    207 H207       -5.8089  -29.5248  -47.5004 H         1 UNK         0.0600 
    208 H208       -7.2674  -28.9070  -48.2573 H         1 UNK         0.0600 
    209 H209       -5.8285  -29.1828  -49.2300 H         1 UNK         0.0600 
    210 H210       -4.8291  -25.0517  -48.3874 H         1 UNK         0.3000 
    211 H211       -5.1359  -23.2963  -49.6390 H         1 UNK         0.0600 
    212 H212       -7.3677  -22.5658  -50.3336 H         1 UNK         0.0600 
    213 H213       -7.4733  -23.2939  -48.7411 H         1 UNK         0.0600 
    214 H214       -8.0153  -24.1879  -50.1617 H         1 UNK         0.0600 
    215 H215       -4.5356  -26.1179  -50.9926 H         1 UNK         0.3000 
    216 H216       -5.0424  -25.6619  -53.7833 H         1 UNK         0.0600 
    217 H217       -2.8080  -27.2859  -52.4521 H         1 UNK         0.0600 
    218 H218       -3.3355  -27.4153  -54.1244 H         1 UNK         0.0600 
    219 H219       -4.4202  -27.8942  -52.8265 H         1 UNK         0.0600 
    220 H220       -2.5045  -24.6264  -51.5537 H         1 UNK         0.3000 
    221 H221       -0.7843  -23.3841  -53.5035 H         1 UNK         0.0600 
    222 H222        0.0443  -24.1255  -51.2927 H         1 UNK         0.0600 
    223 H223       -1.0264  -22.9926  -50.4748 H         1 UNK         0.0600 
    224 H224        0.2923  -22.3997  -51.4840 H         1 UNK         0.0600 
    225 H225       -3.7184  -22.3433  -51.8081 H         1 UNK         0.3000 
    226 H226       -3.4251  -19.5194  -52.3204 H         1 UNK         0.0600 
    227 H227       -6.0172  -21.0510  -51.7819 H         1 UNK         0.0600 
    228 H228       -4.9354  -20.4817  -50.5154 H         1 UNK         0.0600 
    229 H229       -5.7240  -19.3363  -51.5829 H         1 UNK         0.0600 
    230 H230       -4.9913  -22.2537  -53.9952 H         1 UNK         0.3000 
    231 H231       -6.1239  -20.7783  -56.1542 H         1 UNK         0.0600 
    232 H232       -5.2542  -23.7155  -56.0258 H         1 UNK         0.0600 
    233 H233       -6.3280  -23.0107  -57.2261 H         1 UNK         0.0600 
    234 H234       -6.8279  -23.0861  -55.5429 H         1 UNK         0.0600 
    235 H235       -2.8823  -22.1548  -55.6601 H         1 UNK         0.3000 
    236 H236       -1.8984  -21.5830  -58.3203 H         1 UNK         0.0600 
    237 H237       -0.8899  -23.3406  -56.8751 H         1 UNK         0.0600 
    238 H238        0.3048  -22.1332  -57.3270 H         1 UNK         0.0600 
    239 H239       -0.3841  -22.1195  -55.7100 H         1 UNK         0.0600 
    240 H240       -1.6842  -19.9293  -55.1491 H         1 UNK         0.3000 
    241 H241       -0.1577  -17.6931  -55.9757 H         1 UNK         0.0600 
    242 H242       -4.0896  -16.5665  -56.6843 H         1 UNK         0.3800 
    243 H243       -3.8075  -17.9954  -55.7152 H         1 UNK         0.3800 
    244 H244       -0.4455  -18.5054  -53.6284 H         1 UNK         0.0800 
    245 H245       -2.1034  -17.9614  -53.6506 H         1 UNK         0.0800 
    246 H246       -2.6952  -16.1120  -52.3511 H         1 UNK         0.0800 
    247 H247       -1.7248  -14.7372  -51.9100 H         1 UNK         0.0800 
@<TRIPOS>BOND
     1    1    2 1    
     2    1  127 1    
     3    1  128 1    
     4    1  129 1    
     5    2    3 2    
     6    2    4 am   BACKBONE|DICT|INTERRES
     7    4    5 1    
     8    4  130 1    
     9    5    6 1    
    10    5   65 1    
    11    5  131 1    
    12    6    7 1    
    13    6  132 1    
    14    6  133 1    
    15    7    8 1    
    16    8    9 1    
    17    8  134 1    
    18    8  135 1    
    19    9   10 ar   
    20    9   14 ar   
    21   10   11 ar   
    22   10  136 1    
    23   11   12 ar   
    24   11  126 1    
    25   12   13 ar   
    26   12  137 1    
    27   13   14 ar   
    28   13   15 1    
    29   14  138 1    
    30   15   16 1    
    31   15  139 1    
    32   15  140 1    
    33   16   17 1    
    34   17   18 1    
    35   17  141 1    
    36   17  142 1    
    37   18   19 1    
    38   18   67 1    
    39   18  143 1    
    40   19   20 am   BACKBONE|DICT|INTERRES
    41   19  144 1    
    42   20   21 2    
    43   20   22 1    
    44   22   23 1    
    45   22   24 1    
    46   22  145 1    
    47   23  146 1    
    48   23  147 1    
    49   23  148 1    
    50   24   25 am   BACKBONE|DICT|INTERRES
    51   24  149 1    
    52   25   26 2    
    53   25   27 1    
    54   27   28 1    
    55   27   29 1    
    56   27  150 1    
    57   28  151 1    
    58   28  152 1    
    59   28  153 1    
    60   29   30 am   BACKBONE|DICT|INTERRES
    61   29  154 1    
    62   30   31 2    
    63   30   32 1    
    64   32   33 1    
    65   32   34 1    
    66   32  155 1    
    67   33  156 1    
    68   33  157 1    
    69   33  158 1    
    70   34   35 am   BACKBONE|DICT|INTERRES
    71   34  159 1    
    72   35   36 2    
    73   35   37 1    
    74   37   38 1    
    75   37   39 1    
    76   37  160 1    
    77   38  161 1    
    78   38  162 1    
    79   38  163 1    
    80   39   40 am   BACKBONE|DICT|INTERRES
    81   39  164 1    
    82   40   41 2    
    83   40   42 1    
    84   42   43 1    
    85   42   44 1    
    86   42  165 1    
    87   43  166 1    
    88   43  167 1    
    89   43  168 1    
    90   44   45 am   BACKBONE|DICT|INTERRES
    91   44  169 1    
    92   45   46 2    
    93   45   47 1    
    94   47   48 1    
    95   47   49 1    
    96   47  170 1    
    97   48  171 1    
    98   48  172 1    
    99   48  173 1    
   100   49   50 am   BACKBONE|DICT|INTERRES
   101   49  174 1    
   102   50   51 2    
   103   50   52 1    
   104   52   53 1    
   105   52   54 1    
   106   52  175 1    
   107   53  176 1    
   108   53  177 1    
   109   53  178 1    
   110   54   55 am   BACKBONE|DICT|INTERRES
   111   54  179 1    
   112   55   56 2    
   113   55   57 1    
   114   57   58 1    
   115   57   59 1    
   116   57  180 1    
   117   58  181 1    
   118   58  182 1    
   119   58  183 1    
   120   59   60 am   BACKBONE|DICT|INTERRES
   121   59  184 1    
   122   60   61 2    
   123   60   62 1    
   124   62   63 1    
   125   62   64 1    
   126   62  185 1    
   127   63  186 1    
   128   63  187 1    
   129   63  188 1    
   130   64   65 am   BACKBONE|DICT|INTERRES
   131   64  189 1    
   132   65   66 2    
   133   67   68 2    
   134   67   69 am   BACKBONE|DICT|INTERRES
   135   69   70 1    
   136   69  190 1    
   137   70   71 1    
   138   70   72 1    
   139   70  191 1    
   140   71  192 1    
   141   71  193 1    
   142   71  194 1    
   143   72   73 2    
   144   72   74 am   BACKBONE|DICT|INTERRES
   145   74   75 1    
   146   74  195 1    
   147   75   76 1    
   148   75   77 1    
   149   75  196 1    
   150   76  197 1    
   151   76  198 1    
   152   76  199 1    
   153   77   78 2    
   154   77   79 am   BACKBONE|DICT|INTERRES
   155   79   80 1    
   156   79  200 1    
   157   80   81 1    
   158   80   82 1    
   159   80  201 1    
   160   81  202 1    
   161   81  203 1    
   162   81  204 1    
   163   82   83 2    
   164   82   84 am   BACKBONE|DICT|INTERRES
   165   84   85 1    
   166   84  205 1    
   167   85   86 1    
   168   85   87 1    
   169   85  206 1    
   170   86  207 1    
   171   86  208 1    
   172   86  209 1    
   173   87   88 2    
   174   87   89 am   BACKBONE|DICT|INTERRES
   175   89   90 1    
   176   89  210 1    
   177   90   91 1    
   178   90   92 1    
   179   90  211 1    
   180   91  212 1    
   181   91  213 1    
   182   91  214 1    
   183   92   93 2    
   184   92   94 am   BACKBONE|DICT|INTERRES
   185   94   95 1    
   186   94  215 1    
   187   95   96 1    
   188   95   97 1    
   189   95  216 1    
   190   96  217 1    
   191   96  218 1    
   192   96  219 1    
   193   97   98 2    
   194   97   99 am   BACKBONE|DICT|INTERRES
   195   99  100 1    
   196   99  220 1    
   197  100  101 1    
   198  100  102 1    
   199  100  221 1    
   200  101  222 1    
   201  101  223 1    
   202  101  224 1    
   203  102  103 2    
   204  102  104 am   BACKBONE|DICT|INTERRES
   205  104  105 1    
   206  104  225 1    
   207  105  106 1    
   208  105  107 1    
   209  105  226 1    
   210  106  227 1    
   211  106  228 1    
   212  106  229 1    
   213  107  108 2    
   214  107  109 am   BACKBONE|DICT|INTERRES
   215  109  110 1    
   216  109  230 1    
   217  110  111 1    
   218  110  112 1    
   219  110  231 1    
   220  111  232 1    
   221  111  233 1    
   222  111  234 1    
   223  112  113 2    
   224  112  114 am   BACKBONE|DICT|INTERRES
   225  114  115 1    
   226  114  235 1    
   227  115  116 1    
   228  115  117 1    
   229  115  236 1    
   230  116  237 1    
   231  116  238 1    
   232  116  239 1    
   233  117  118 2    
   234  117  119 am   BACKBONE|DICT|INTERRES
   235  119  120 1    
   236  119  240 1    
   237  120  121 1    
   238  120  124 1    
   239  120  241 1    
   240  121  122 am   BACKBONE|DICT|INTERRES
   241  121  123 2    
   242  122  242 1    
   243  122  243 1    
   244  124  125 1    
   245  124  244 1    
   246  124  245 1    
   247  125  126 1    
   248  126  246 1    
   249  126  247 1    
@<TRIPOS>SUBSTRUCTURE
     1 UNK         1 GROUP             0       ****    0 ROOT    
