@<TRIPOS>MOLECULE
3R540
247   249    1
SMALL
USER_CHARGES


@<TRIPOS>ATOM
      1 CA         -1.2367   -9.1361  -45.6814 C.3       0 UNK        -0.1800 
      2 C          -1.1792  -10.0428  -46.9024 C.2       0 UNK         0.5000 
      3 O          -0.5969   -9.6663  -47.9196 O.2       0 UNK        -0.5000 
      4 N          -1.7786  -11.2362  -46.8055 N.am      1 UNK        -0.5000 
      5 CA         -1.7950  -12.2609  -47.8589 C.3       1 UNK         0.1400 
      6 C6         -2.9655  -13.2581  -47.6598 C.3       23 UNK        -0.0398 
      7 S7         -2.8437  -14.2145  -46.1044 S.3       23 UNK        -0.2404 
      8 C8         -3.8664  -15.6965  -46.4155 C.3       23 UNK        -0.0205 
      9 C9         -3.5578  -16.4196  -47.7231 C.ar      23 UNK        -0.0193 
     10 C10        -4.6114  -16.8633  -48.5274 C.ar      23 UNK        -0.1150 
     11 C11        -4.3616  -17.4697  -49.7609 C.ar      23 UNK        -0.0193 
     12 C12        -3.0425  -17.6316  -50.1907 C.ar      23 UNK        -0.1150 
     13 C13        -1.9768  -17.2243  -49.3829 C.ar      23 UNK        -0.0193 
     14 C14        -2.2410  -16.6308  -48.1454 C.ar      23 UNK        -0.1150 
     15 C15        -0.5427  -17.3782  -49.8678 C.3       23 UNK        -0.0205 
     16 S16         0.0448  -19.0990  -49.7847 S.3       23 UNK        -0.2404 
     17 C17         0.1401  -19.3795  -47.9847 C.3       23 UNK        -0.0398 
     18 CA         -0.3824  -20.7669  -47.5432 C.3       11 UNK         0.1400 
     19 N          -0.0082  -21.0591  -46.1586 N.am      11 UNK        -0.5000 
     20 C          -0.1604  -22.2418  -45.5481 C.2       10 UNK         0.5000 
     21 O          -0.6402  -23.2364  -46.0903 O.2       10 UNK        -0.5000 
     22 CA          0.2635  -22.3173  -44.0710 C.3       10 UNK         0.1400 
     23 CB          1.7928  -22.3837  -43.9438 C.3       10 UNK        -0.1800 
     24 N          -0.2493  -21.2011  -43.2764 N.am      10 UNK        -0.5000 
     25 C          -1.5513  -20.9569  -43.0674 C.2       9 UNK         0.5000 
     26 O          -2.4619  -21.6537  -43.5143 O.2       9 UNK        -0.5000 
     27 CA         -1.8993  -19.6946  -42.2606 C.3       9 UNK         0.1400 
     28 CB         -1.6419  -19.9113  -40.7618 C.3       9 UNK        -0.1800 
     29 N          -1.1700  -18.5140  -42.7189 N.am      9 UNK        -0.5000 
     30 C          -1.2460  -18.0051  -43.9569 C.2       8 UNK         0.5000 
     31 O          -1.9521  -18.4646  -44.8537 O.2       8 UNK        -0.5000 
     32 CA         -0.3337  -16.8084  -44.2562 C.3       8 UNK         0.1400 
     33 CB         -0.8479  -15.5424  -43.5538 C.3       8 UNK        -0.1800 
     34 N           1.0539  -17.0537  -43.8664 N.am      8 UNK        -0.5000 
     35 C           1.8275  -18.0485  -44.3224 C.2       7 UNK         0.5000 
     36 O           1.4719  -18.8653  -45.1685 O.2       7 UNK        -0.5000 
     37 CA          3.2176  -18.1874  -43.6827 C.3       7 UNK         0.1400 
     38 CB          4.2106  -17.1864  -44.2944 C.3       7 UNK        -0.1800 
     39 N           3.1653  -18.0167  -42.2314 N.am      7 UNK        -0.5000 
     40 C           2.5467  -18.8588  -41.3901 C.2       6 UNK         0.5000 
     41 O           1.9868  -19.8973  -41.7424 O.2       6 UNK        -0.5000 
     42 CA          2.5116  -18.4384  -39.9104 C.3       6 UNK         0.1400 
     43 CB          3.8314  -18.7954  -39.2104 C.3       6 UNK        -0.1800 
     44 N           2.2458  -17.0077  -39.7513 N.am      6 UNK        -0.5000 
     45 C           1.0797  -16.4216  -40.0572 C.2       5 UNK         0.5000 
     46 O           0.0926  -17.0357  -40.4623 O.2       5 UNK        -0.5000 
     47 CA          1.0234  -14.8877  -39.9270 C.3       5 UNK         0.1400 
     48 CB          0.6840  -14.4813  -38.4853 C.3       5 UNK        -0.1800 
     49 N           2.2633  -14.2228  -40.3413 N.am      5 UNK        -0.5000 
     50 C           2.7637  -14.2483  -41.5834 C.2       4 UNK         0.5000 
     51 O           2.2498  -14.8653  -42.5190 O.2       4 UNK        -0.5000 
     52 CA          4.0810  -13.4981  -41.8070 C.3       4 UNK         0.1400 
     53 CB          5.2770  -14.3498  -41.3454 C.3       4 UNK        -0.1800 
     54 N           4.2219  -13.1878  -43.2267 N.am      4 UNK        -0.5000 
     55 C           4.8905  -12.1417  -43.7242 C.2       3 UNK         0.5000 
     56 O           5.4746  -11.3162  -43.0203 O.2       3 UNK        -0.5000 
     57 CA          4.9440  -11.9827  -45.2586 C.3       3 UNK         0.1400 
     58 CB          6.3415  -12.3525  -45.7816 C.3       3 UNK        -0.1800 
     59 N           3.9500  -12.7644  -46.0008 N.am      3 UNK        -0.5000 
     60 C           2.6376  -12.5050  -46.0374 C.2       2 UNK         0.5000 
     61 O           2.0951  -11.6146  -45.3764 O.2       2 UNK        -0.5000 
     62 CA          1.7993  -13.3916  -46.9737 C.3       2 UNK         0.1400 
     63 CB          1.7895  -14.8551  -46.5023 C.3       2 UNK        -0.1800 
     64 N           0.4374  -12.8735  -47.0098 N.am      2 UNK        -0.5000 
     65 C          -0.4321  -12.9810  -48.0219 C.2       1 UNK         0.5000 
     66 O          -0.1958  -13.6047  -49.0575 O.2       1 UNK        -0.5000 
     67 C          -1.8974  -20.9364  -47.7781 C.2       11 UNK         0.5000 
     68 O          -2.2813  -21.5630  -48.7675 O.2       11 UNK        -0.5000 
     69 N          -2.7203  -20.4329  -46.8463 N.am      12 UNK        -0.5000 
     70 CA         -4.1738  -20.5829  -46.8635 C.3       12 UNK         0.1400 
     71 CB         -4.8047  -19.6962  -45.7804 C.3       12 UNK        -0.1800 
     72 C          -4.6199  -22.0460  -46.6983 C.2       12 UNK         0.5000 
     73 O          -5.4519  -22.5126  -47.4764 O.2       12 UNK        -0.5000 
     74 N          -4.0401  -22.7556  -45.7176 N.am      13 UNK        -0.5000 
     75 CA         -4.3230  -24.1664  -45.4315 C.3       13 UNK         0.1400 
     76 CB         -3.6116  -24.5845  -44.1361 C.3       13 UNK        -0.1800 
     77 C          -3.9377  -25.1104  -46.5850 C.2       13 UNK         0.5000 
     78 O          -4.6537  -26.0773  -46.8472 O.2       13 UNK        -0.5000 
     79 N          -2.8346  -24.7919  -47.2729 N.am      14 UNK        -0.5000 
     80 CA         -2.3582  -25.4888  -48.4667 C.3       14 UNK         0.1400 
     81 CB         -0.8627  -25.1873  -48.6399 C.3       14 UNK        -0.1800 
     82 C          -3.1353  -25.1285  -49.7500 C.2       14 UNK         0.5000 
     83 O          -2.8723  -25.7410  -50.7836 O.2       14 UNK        -0.5000 
     84 N          -4.0529  -24.1513  -49.6756 N.am      15 UNK        -0.5000 
     85 CA         -4.8481  -23.5879  -50.7693 C.3       15 UNK         0.1400 
     86 CB         -5.7956  -24.6439  -51.3763 C.3       15 UNK        -0.1800 
     87 C          -3.9453  -22.9067  -51.8134 C.2       15 UNK         0.5000 
     88 O          -3.7505  -23.4257  -52.9125 O.2       15 UNK        -0.5000 
     89 N          -3.3720  -21.7669  -51.4109 N.am      16 UNK        -0.5000 
     90 CA         -2.4272  -20.9362  -52.1579 C.3       16 UNK         0.1400 
     91 CB         -3.0865  -20.3256  -53.4116 C.3       16 UNK        -0.1800 
     92 C          -1.1215  -21.6935  -52.4495 C.2       16 UNK         0.5000 
     93 O          -0.6766  -21.7578  -53.5970 O.2       16 UNK        -0.5000 
     94 N          -0.5681  -22.3075  -51.3911 N.am      17 UNK        -0.5000 
     95 CA          0.6639  -23.1107  -51.3800 C.3       17 UNK         0.1400 
     96 CB          1.8883  -22.2122  -51.6510 C.3       17 UNK        -0.1800 
     97 C           0.6160  -24.3378  -52.3203 C.2       17 UNK         0.5000 
     98 O           1.6647  -24.8286  -52.7397 O.2       17 UNK        -0.5000 
     99 N          -0.6041  -24.7841  -52.6571 N.am      18 UNK        -0.5000 
    100 CA        -0.9597  -25.8075  -53.6443 C.3       18 UNK         0.1400 
    101 CB        -0.4142  -27.1893  -53.2290 C.3       18 UNK        -0.1800 
    102 C         -0.5902  -25.4342  -55.0989 C.2       18 UNK         0.5000 
    103 O         -0.6277  -26.3024  -55.9726 O.2       18 UNK        -0.5000 
    104 N         -0.2543  -24.1601  -55.3495 N.am      19 UNK        -0.5000 
    105 CA         0.1049  -23.6354  -56.6677 C.3       19 UNK         0.1400 
    106 CB         1.1146  -22.4911  -56.4862 C.3       19 UNK        -0.1800 
    107 C         -1.1248  -23.1489  -57.4560 C.2       19 UNK         0.5000 
    108 O         -1.0455  -23.0151  -58.6781 O.2       19 UNK        -0.5000 
    109 N         -2.2321  -22.8938  -56.7518 N.am      20 UNK        -0.5000 
    110 CA        -3.5095  -22.4515  -57.2954 C.3       20 UNK         0.1400 
    111 CB        -3.4802  -20.9255  -57.5375 C.3       20 UNK        -0.1800 
    112 C         -4.6146  -22.9332  -56.3405 C.2       20 UNK         0.5000 
    113 O         -4.6479  -24.1212  -56.0141 O.2       20 UNK        -0.5000 
    114 N         -5.4822  -22.0186  -55.9000 N.am      21 UNK        -0.5000 
    115 CA        -6.5029  -22.2214  -54.8811 C.3       21 UNK         0.1400 
    116 CB        -7.7332  -22.9208  -55.4868 C.3       21 UNK        -0.1800 
    117 C         -6.8732  -20.8473  -54.3072 C.2       21 UNK         0.5000 
    118 O         -6.7061  -19.8372  -54.9972 O.2       21 UNK        -0.5000 
    119 N         -7.3889  -20.8326  -53.0735 N.am      22 UNK        -0.5000 
    120 CA        -7.9061  -19.6207  -52.4112 C.3       22 UNK         0.1400 
    121 C         -9.3881  -19.2908  -52.7629 C.2       22 UNK         0.5000 
    122 N        -10.1050  -20.1253  -53.5063 N.am      22 UNK        -0.7600 
    123 O         -9.8965  -18.2467  -52.3637 O.2       22 UNK        -0.5000 
    124 C124       -7.6951  -19.6627  -50.8754 C.3       23 UNK        -0.0398 
    125 S125       -5.9366  -19.6622  -50.3895 S.3       23 UNK        -0.2404 
    126 C126       -5.5208  -17.9074  -50.6416 C.3       23 UNK        -0.0205 
    127 H127       -1.7007   -8.1845  -45.9409 H         1 UNK         0.0600 
    128 H128       -0.2291   -8.9379  -45.3156 H         1 UNK         0.0600 
    129 H129       -1.8108   -9.5844  -44.8701 H         1 UNK         0.0600 
    130 H130       -2.2411  -11.4959  -45.9452 H         1 UNK         0.3000 
    131 H131       -1.9781  -11.7483  -48.8058 H         1 UNK         0.0600 
    132 H132       -3.9134  -12.7188  -47.6534 H         1 UNK         0.0800 
    133 H133       -3.0192  -13.9313  -48.5156 H         1 UNK         0.0800 
    134 H134       -4.9144  -15.3945  -46.3867 H         1 UNK         0.0800 
    135 H135       -3.7240  -16.3939  -45.5896 H         1 UNK         0.0800 
    136 H136       -5.6324  -16.7187  -48.2031 H         1 UNK         0.1150 
    137 H137       -2.8473  -18.0628  -51.1604 H         1 UNK         0.1150 
    138 H138       -1.4211  -16.2955  -47.5270 H         1 UNK         0.1150 
    139 H139       -0.4780  -17.0357  -50.9014 H         1 UNK         0.0800 
    140 H140        0.1305  -16.7373  -49.2957 H         1 UNK         0.0800 
    141 H141       -0.3739  -18.5881  -47.4387 H         1 UNK         0.0800 
    142 H142        1.1937  -19.2862  -47.7200 H         1 UNK         0.0800 
    143 H143        0.1195  -21.5165  -48.1591 H         1 UNK         0.0600 
    144 H144        0.4152  -20.2907  -45.6419 H         1 UNK         0.3000 
    145 H145       -0.1508  -23.2381  -43.6555 H         1 UNK         0.0600 
    146 H146        2.0947  -22.5334  -42.9071 H         1 UNK         0.0600 
    147 H147        2.1982  -23.2135  -44.5241 H         1 UNK         0.0600 
    148 H148        2.2675  -21.4689  -44.3001 H         1 UNK         0.0600 
    149 H149        0.4414  -20.5856  -42.8581 H         1 UNK         0.3000 
    150 H150       -2.9645  -19.4976  -42.3980 H         1 UNK         0.0600 
    151 H151       -2.1805  -20.7858  -40.3946 H         1 UNK         0.0600 
    152 H152       -1.9763  -19.0538  -40.1777 H         1 UNK         0.0600 
    153 H153       -0.5826  -20.0639  -40.5522 H         1 UNK         0.0600 
    154 H154       -0.5759  -18.0537  -42.0358 H         1 UNK         0.3000 
    155 H155       -0.3599  -16.6391  -45.3338 H         1 UNK         0.0600 
    156 H156       -0.6798  -15.5792  -42.4803 H         1 UNK         0.0600 
    157 H157       -1.9206  -15.4184  -43.6982 H         1 UNK         0.0600 
    158 H158       -0.3575  -14.6477  -43.9370 H         1 UNK         0.0600 
    159 H159        1.4568  -16.3921  -43.2076 H         1 UNK         0.3000 
    160 H160        3.5813  -19.1959  -43.8904 H         1 UNK         0.0600 
    161 H161        5.2083  -17.3137  -43.8742 H         1 UNK         0.0600 
    162 H162        3.9063  -16.1537  -44.1276 H         1 UNK         0.0600 
    163 H163        4.2917  -17.3314  -45.3723 H         1 UNK         0.0600 
    164 H164        3.5586  -17.1663  -41.8595 H         1 UNK         0.3000 
    165 H165        1.7058  -18.9931  -39.4245 H         1 UNK         0.0600 
    166 H166        3.7864  -18.5670  -38.1454 H         1 UNK         0.0600 
    167 H167        4.0463  -19.8607  -39.3045 H         1 UNK         0.0600 
    168 H168        4.6757  -18.2511  -39.6353 H         1 UNK         0.0600 
    169 H169        3.0047  -16.4318  -39.4188 H         1 UNK         0.3000 
    170 H170        0.2218  -14.5286  -40.5749 H         1 UNK         0.0600 
    171 H171       -0.2465  -14.9472  -38.1575 H         1 UNK         0.0600 
    172 H172        1.4654  -14.7814  -37.7860 H         1 UNK         0.0600 
    173 H173        0.5525  -13.4025  -38.4000 H         1 UNK         0.0600 
    174 H174        2.7514  -13.7009  -39.6275 H         1 UNK         0.3000 
    175 H175        4.0443  -12.5719  -41.2297 H         1 UNK         0.0600 
    176 H176        5.3481  -15.2813  -41.9082 H         1 UNK         0.0600 
    177 H177        6.2163  -13.8116  -41.4735 H         1 UNK         0.0600 
    178 H178        5.1952  -14.6075  -40.2888 H         1 UNK         0.0600 
    179 H179        3.7003  -13.7916  -43.8477 H         1 UNK         0.3000 
    180 H180        4.7706  -10.9265  -45.4757 H         1 UNK         0.0600 
    181 H181        6.5692  -13.4051  -45.6087 H         1 UNK         0.0600 
    182 H182        7.1150  -11.7642  -45.2859 H         1 UNK         0.0600 
    183 H183        6.4273  -12.1601  -46.8513 H         1 UNK         0.0600 
    184 H184        4.3134  -13.5187  -46.5653 H         1 UNK         0.3000 
    185 H185        2.2323  -13.3311  -47.9744 H         1 UNK         0.0600 
    186 H186        2.7774  -15.3078  -46.5888 H         1 UNK         0.0600 
    187 H187        1.4912  -14.9199  -45.4577 H         1 UNK         0.0600 
    188 H188        1.1029  -15.4641  -47.0905 H         1 UNK         0.0600 
    189 H189        0.1994  -12.2846  -46.2218 H         1 UNK         0.3000 
    190 H190       -2.3318  -19.8986  -46.0732 H         1 UNK         0.3000 
    191 H191       -4.5295  -20.2318  -47.8334 H         1 UNK         0.0600 
    192 H192       -4.5744  -18.6461  -45.9532 H         1 UNK         0.0600 
    193 H193       -5.8908  -19.7939  -45.7777 H         1 UNK         0.0600 
    194 H194       -4.4452  -19.9574  -44.7844 H         1 UNK         0.0600 
    195 H195       -3.3759  -22.2959  -45.0999 H         1 UNK         0.3000 
    196 H196       -5.3991  -24.2625  -45.2739 H         1 UNK         0.0600 
    197 H197       -3.8083  -25.6311  -43.9004 H         1 UNK         0.0600 
    198 H198       -3.9557  -23.9913  -43.2888 H         1 UNK         0.0600 
    199 H199       -2.5307  -24.4615  -44.2145 H         1 UNK         0.0600 
    200 H200       -2.2642  -24.0168  -46.9471 H         1 UNK         0.3000 
    201 H201       -2.4713  -26.5640  -48.3139 H         1 UNK         0.0600 
    202 H202       -0.2886  -25.5453  -47.7852 H         1 UNK         0.0600 
    203 H203       -0.6894  -24.1153  -48.7303 H         1 UNK         0.0600 
    204 H204       -0.4571  -25.6721  -49.5289 H         1 UNK         0.0600 
    205 H205       -4.1889  -23.7026  -48.7777 H         1 UNK         0.3000 
    206 H206       -5.4717  -22.8092  -50.3274 H         1 UNK         0.0600 
    207 H207       -6.4171  -25.1014  -50.6066 H         1 UNK         0.0600 
    208 H208       -6.4654  -24.1903  -52.1065 H         1 UNK         0.0600 
    209 H209       -5.2537  -25.4410  -51.8859 H         1 UNK         0.0600 
    210 H210       -3.4997  -21.4910  -50.4430 H         1 UNK         0.3000 
    211 H211       -2.1542  -20.1200  -51.4930 H         1 UNK         0.0600 
    212 H212       -3.9994  -19.7881  -53.1544 H         1 UNK         0.0600 
    213 H213       -3.3414  -21.0877  -54.1469 H         1 UNK         0.0600 
    214 H214       -2.4157  -19.6164  -53.8972 H         1 UNK         0.0600 
    215 H215       -1.0438  -22.2073  -50.5017 H         1 UNK         0.3000 
    216 H216        0.7738  -23.5045  -50.3708 H         1 UNK         0.0600 
    217 H217        2.8191  -22.7615  -51.5059 H         1 UNK         0.0600 
    218 H218        1.9095  -21.3597  -50.9723 H         1 UNK         0.0600 
    219 H219        1.8913  -21.8286  -52.6717 H         1 UNK         0.0600 
    220 H220       -1.4017  -24.3158  -52.2472 H         1 UNK         0.3000 
    221 H221       -2.0491  -25.8660  -53.6220 H         1 UNK         0.0600 
    222 H222        0.6724  -27.2369  -53.3017 H         1 UNK         0.0600 
    223 H223       -0.6948  -27.4293  -52.2032 H         1 UNK         0.0600 
    224 H224       -0.8178  -27.9767  -53.8663 H         1 UNK         0.0600 
    225 H225       -0.2754  -23.4855  -54.5909 H         1 UNK         0.3000 
    226 H226        0.5873  -24.4204  -57.2539 H         1 UNK         0.0600 
    227 H227        0.6802  -21.6522  -55.9414 H         1 UNK         0.0600 
    228 H228        1.9960  -22.8257  -55.9386 H         1 UNK         0.0600 
    229 H229        1.4543  -22.1138  -57.4515 H         1 UNK         0.0600 
    230 H230       -2.2242  -23.0813  -55.7579 H         1 UNK         0.3000 
    231 H231       -3.6848  -22.9522  -58.2497 H         1 UNK         0.0600 
    232 H232       -2.6893  -20.6553  -58.2374 H         1 UNK         0.0600 
    233 H233       -3.3039  -20.3714  -56.6147 H         1 UNK         0.0600 
    234 H234       -4.4171  -20.5734  -57.9708 H         1 UNK         0.0600 
    235 H235       -5.3887  -21.0528  -56.1909 H         1 UNK         0.3000 
    236 H236       -6.0900  -22.8353  -54.0800 H         1 UNK         0.0600 
    237 H237       -7.4749  -23.9000  -55.8899 H         1 UNK         0.0600 
    238 H238       -8.5061  -23.0777  -54.7337 H         1 UNK         0.0600 
    239 H239       -8.1717  -22.3324  -56.2938 H         1 UNK         0.0600 
    240 H240       -7.5105  -21.6987  -52.5707 H         1 UNK         0.3000 
    241 H241       -7.3405  -18.7640  -52.7821 H         1 UNK         0.0600 
    242 H242       -9.7073  -20.9830  -53.8514 H         1 UNK         0.3800 
    243 H243      -11.0604  -19.8920  -53.7288 H         1 UNK         0.3800 
    244 H244       -8.1778  -18.8149  -50.3859 H         1 UNK         0.0800 
    245 H245       -8.1658  -20.5527  -50.4550 H         1 UNK         0.0800 
    246 H246       -6.3902  -17.2822  -50.4336 H         1 UNK         0.0800 
    247 H247       -5.2740  -17.7460  -51.6919 H         1 UNK         0.0800 
@<TRIPOS>BOND
     1    1    2 1    
     2    1  127 1    
     3    1  128 1    
     4    1  129 1    
     5    2    3 2    
     6    2    4 am   BACKBONE|DICT|INTERRES
     7    4    5 1    
     8    4  130 1    
     9    5    6 1    
    10    5   65 1    
    11    5  131 1    
    12    6    7 1    
    13    6  132 1    
    14    6  133 1    
    15    7    8 1    
    16    8    9 1    
    17    8  134 1    
    18    8  135 1    
    19    9   10 ar   
    20    9   14 ar   
    21   10   11 ar   
    22   10  136 1    
    23   11   12 ar   
    24   11  126 1    
    25   12   13 ar   
    26   12  137 1    
    27   13   14 ar   
    28   13   15 1    
    29   14  138 1    
    30   15   16 1    
    31   15  139 1    
    32   15  140 1    
    33   16   17 1    
    34   17   18 1    
    35   17  141 1    
    36   17  142 1    
    37   18   19 1    
    38   18   67 1    
    39   18  143 1    
    40   19   20 am   BACKBONE|DICT|INTERRES
    41   19  144 1    
    42   20   21 2    
    43   20   22 1    
    44   22   23 1    
    45   22   24 1    
    46   22  145 1    
    47   23  146 1    
    48   23  147 1    
    49   23  148 1    
    50   24   25 am   BACKBONE|DICT|INTERRES
    51   24  149 1    
    52   25   26 2    
    53   25   27 1    
    54   27   28 1    
    55   27   29 1    
    56   27  150 1    
    57   28  151 1    
    58   28  152 1    
    59   28  153 1    
    60   29   30 am   BACKBONE|DICT|INTERRES
    61   29  154 1    
    62   30   31 2    
    63   30   32 1    
    64   32   33 1    
    65   32   34 1    
    66   32  155 1    
    67   33  156 1    
    68   33  157 1    
    69   33  158 1    
    70   34   35 am   BACKBONE|DICT|INTERRES
    71   34  159 1    
    72   35   36 2    
    73   35   37 1    
    74   37   38 1    
    75   37   39 1    
    76   37  160 1    
    77   38  161 1    
    78   38  162 1    
    79   38  163 1    
    80   39   40 am   BACKBONE|DICT|INTERRES
    81   39  164 1    
    82   40   41 2    
    83   40   42 1    
    84   42   43 1    
    85   42   44 1    
    86   42  165 1    
    87   43  166 1    
    88   43  167 1    
    89   43  168 1    
    90   44   45 am   BACKBONE|DICT|INTERRES
    91   44  169 1    
    92   45   46 2    
    93   45   47 1    
    94   47   48 1    
    95   47   49 1    
    96   47  170 1    
    97   48  171 1    
    98   48  172 1    
    99   48  173 1    
   100   49   50 am   BACKBONE|DICT|INTERRES
   101   49  174 1    
   102   50   51 2    
   103   50   52 1    
   104   52   53 1    
   105   52   54 1    
   106   52  175 1    
   107   53  176 1    
   108   53  177 1    
   109   53  178 1    
   110   54   55 am   BACKBONE|DICT|INTERRES
   111   54  179 1    
   112   55   56 2    
   113   55   57 1    
   114   57   58 1    
   115   57   59 1    
   116   57  180 1    
   117   58  181 1    
   118   58  182 1    
   119   58  183 1    
   120   59   60 am   BACKBONE|DICT|INTERRES
   121   59  184 1    
   122   60   61 2    
   123   60   62 1    
   124   62   63 1    
   125   62   64 1    
   126   62  185 1    
   127   63  186 1    
   128   63  187 1    
   129   63  188 1    
   130   64   65 am   BACKBONE|DICT|INTERRES
   131   64  189 1    
   132   65   66 2    
   133   67   68 2    
   134   67   69 am   BACKBONE|DICT|INTERRES
   135   69   70 1    
   136   69  190 1    
   137   70   71 1    
   138   70   72 1    
   139   70  191 1    
   140   71  192 1    
   141   71  193 1    
   142   71  194 1    
   143   72   73 2    
   144   72   74 am   BACKBONE|DICT|INTERRES
   145   74   75 1    
   146   74  195 1    
   147   75   76 1    
   148   75   77 1    
   149   75  196 1    
   150   76  197 1    
   151   76  198 1    
   152   76  199 1    
   153   77   78 2    
   154   77   79 am   BACKBONE|DICT|INTERRES
   155   79   80 1    
   156   79  200 1    
   157   80   81 1    
   158   80   82 1    
   159   80  201 1    
   160   81  202 1    
   161   81  203 1    
   162   81  204 1    
   163   82   83 2    
   164   82   84 am   BACKBONE|DICT|INTERRES
   165   84   85 1    
   166   84  205 1    
   167   85   86 1    
   168   85   87 1    
   169   85  206 1    
   170   86  207 1    
   171   86  208 1    
   172   86  209 1    
   173   87   88 2    
   174   87   89 am   BACKBONE|DICT|INTERRES
   175   89   90 1    
   176   89  210 1    
   177   90   91 1    
   178   90   92 1    
   179   90  211 1    
   180   91  212 1    
   181   91  213 1    
   182   91  214 1    
   183   92   93 2    
   184   92   94 am   BACKBONE|DICT|INTERRES
   185   94   95 1    
   186   94  215 1    
   187   95   96 1    
   188   95   97 1    
   189   95  216 1    
   190   96  217 1    
   191   96  218 1    
   192   96  219 1    
   193   97   98 2    
   194   97   99 am   BACKBONE|DICT|INTERRES
   195   99  100 1    
   196   99  220 1    
   197  100  101 1    
   198  100  102 1    
   199  100  221 1    
   200  101  222 1    
   201  101  223 1    
   202  101  224 1    
   203  102  103 2    
   204  102  104 am   BACKBONE|DICT|INTERRES
   205  104  105 1    
   206  104  225 1    
   207  105  106 1    
   208  105  107 1    
   209  105  226 1    
   210  106  227 1    
   211  106  228 1    
   212  106  229 1    
   213  107  108 2    
   214  107  109 am   BACKBONE|DICT|INTERRES
   215  109  110 1    
   216  109  230 1    
   217  110  111 1    
   218  110  112 1    
   219  110  231 1    
   220  111  232 1    
   221  111  233 1    
   222  111  234 1    
   223  112  113 2    
   224  112  114 am   BACKBONE|DICT|INTERRES
   225  114  115 1    
   226  114  235 1    
   227  115  116 1    
   228  115  117 1    
   229  115  236 1    
   230  116  237 1    
   231  116  238 1    
   232  116  239 1    
   233  117  118 2    
   234  117  119 am   BACKBONE|DICT|INTERRES
   235  119  120 1    
   236  119  240 1    
   237  120  121 1    
   238  120  124 1    
   239  120  241 1    
   240  121  122 am   BACKBONE|DICT|INTERRES
   241  121  123 2    
   242  122  242 1    
   243  122  243 1    
   244  124  125 1    
   245  124  244 1    
   246  124  245 1    
   247  125  126 1    
   248  126  246 1    
   249  126  247 1    
@<TRIPOS>SUBSTRUCTURE
     1 UNK         1 GROUP             0       ****    0 ROOT    
