@<TRIPOS>MOLECULE
3R540
247   249    1
SMALL
USER_CHARGES


@<TRIPOS>ATOM
      1 CA         -1.5237   -9.1050  -45.8814 C.3       0 UNK        -0.1800 
      2 C          -0.7855  -10.4127  -45.6406 C.2       0 UNK         0.5000 
      3 O          -0.5688  -10.7915  -44.4894 O.2       0 UNK        -0.5000 
      4 N          -0.4143  -11.1179  -46.7174 N.am      1 UNK        -0.5000 
      5 CA          0.3259  -12.3887  -46.6998 C.3       1 UNK         0.1400 
      6 C6          0.7773  -12.8325  -48.1131 C.3       23 UNK        -0.0398 
      7 S7         -0.5613  -12.8599  -49.3581 S.3       23 UNK        -0.2404 
      8 C8          0.3697  -13.2591  -50.8728 C.3       23 UNK        -0.0205 
      9 C9          0.3595  -14.7533  -51.1562 C.ar      23 UNK        -0.0193 
     10 C10        -0.5182  -15.2830  -52.1064 C.ar      23 UNK        -0.1150 
     11 C11        -0.5358  -16.6556  -52.3691 C.ar      23 UNK        -0.0193 
     12 C12         0.3059  -17.5040  -51.6468 C.ar      23 UNK        -0.1150 
     13 C13         1.1773  -16.9916  -50.6817 C.ar      23 UNK        -0.0193 
     14 C14         1.2233  -15.6093  -50.4686 C.ar      23 UNK        -0.1150 
     15 C15         2.0396  -17.9568  -49.8734 C.3       23 UNK        -0.0205 
     16 S16         2.2805  -17.4852  -48.1223 S.3       23 UNK        -0.2404 
     17 C17         0.6059  -17.1504  -47.4547 C.3       23 UNK        -0.0398 
     18 CA         -0.5541  -18.0315  -47.9811 C.3       11 UNK         0.1400 
     19 N          -0.2546  -19.4621  -47.8726 N.am      11 UNK        -0.5000 
     20 C          -0.9893  -20.4453  -48.4092 C.2       10 UNK         0.5000 
     21 O          -1.9942  -20.2520  -49.0904 O.2       10 UNK        -0.5000 
     22 CA         -0.5761  -21.8883  -48.0703 C.3       10 UNK         0.1400 
     23 CB          0.3171  -22.4614  -49.1801 C.3       10 UNK        -0.1800 
     24 N           0.1007  -22.0276  -46.7762 N.am      10 UNK        -0.5000 
     25 C          -0.4275  -21.6970  -45.5872 C.2       9 UNK         0.5000 
     26 O          -1.5581  -21.2218  -45.4674 O.2       9 UNK        -0.5000 
     27 CA          0.4556  -21.9004  -44.3393 C.3       9 UNK         0.1400 
     28 CB         -0.3343  -22.5269  -43.1796 C.3       9 UNK        -0.1800 
     29 N           1.6104  -22.7596  -44.6246 N.am      9 UNK        -0.5000 
     30 C           2.9080  -22.4483  -44.7762 C.2       8 UNK         0.5000 
     31 O           3.7126  -23.3090  -45.1282 O.2       8 UNK        -0.5000 
     32 CA          3.4442  -21.0204  -44.5137 C.3       8 UNK         0.1400 
     33 CB          3.1167  -20.0810  -45.6856 C.3       8 UNK        -0.1800 
     34 N           3.0582  -20.4083  -43.2370 N.am      8 UNK        -0.5000 
     35 C           3.2347  -20.9559  -42.0228 C.2       7 UNK         0.5000 
     36 O           3.7477  -22.0613  -41.8449 O.2       7 UNK        -0.5000 
     37 CA          2.8031  -20.1399  -40.7847 C.3       7 UNK         0.1400 
     38 CB          4.0267  -19.7677  -39.9311 C.3       7 UNK        -0.1800 
     39 N           2.0785  -18.9107  -41.1054 N.am      7 UNK        -0.5000 
     40 C           0.7768  -18.8336  -41.4110 C.2       6 UNK         0.5000 
     41 O           0.0216  -19.8040  -41.4272 O.2       6 UNK        -0.5000 
     42 CA          0.2273  -17.4369  -41.7702 C.3       6 UNK         0.1400 
     43 CB         -0.4808  -16.8237  -40.5533 C.3       6 UNK        -0.1800 
     44 N           1.2381  -16.4933  -42.2635 N.am      6 UNK        -0.5000 
     45 C           1.9931  -16.6757  -43.3575 C.2       5 UNK         0.5000 
     46 O           1.9227  -17.6852  -44.0579 O.2       5 UNK        -0.5000 
     47 CA          3.0087  -15.5690  -43.6906 C.3       5 UNK         0.1400 
     48 CB          3.4786  -15.5974  -45.1559 C.3       5 UNK        -0.1800 
     49 N           2.4414  -14.2581  -43.3853 N.am      5 UNK        -0.5000 
     50 C           3.0142  -13.3269  -42.6139 C.2       4 UNK         0.5000 
     51 O           4.1201  -13.4591  -42.0881 O.2       4 UNK        -0.5000 
     52 CA          2.2195  -12.0303  -42.3701 C.3       4 UNK         0.1400 
     53 CB          2.6448  -10.9400  -43.3651 C.3       4 UNK        -0.1800 
     54 N           0.7654  -12.1975  -42.4313 N.am      4 UNK        -0.5000 
     55 C           0.0365  -12.8761  -41.5333 C.2       3 UNK         0.5000 
     56 O           0.5259  -13.5192  -40.6046 O.2       3 UNK        -0.5000 
     57 CA         -1.4899  -12.8371  -41.7070 C.3       3 UNK         0.1400 
     58 CB         -2.0506  -11.4701  -41.2835 C.3       3 UNK        -0.1800 
     59 N          -1.8548  -13.0995  -43.0966 N.am      3 UNK        -0.5000 
     60 C          -2.3374  -14.2634  -43.5525 C.2       2 UNK         0.5000 
     61 O          -2.6138  -15.2198  -42.8299 O.2       2 UNK        -0.5000 
     62 CA         -2.5445  -14.3972  -45.0747 C.3       2 UNK         0.1400 
     63 CB         -4.0223  -14.1991  -45.4425 C.3       2 UNK        -0.1800 
     64 N          -1.7263  -13.4778  -45.8671 N.am      2 UNK        -0.5000 
     65 C          -0.3896  -13.5258  -45.9384 C.2       1 UNK         0.5000 
     66 O           0.2844  -14.3877  -45.3767 O.2       1 UNK        -0.5000 
     67 C          -1.8748  -17.6437  -47.2790 C.2       11 UNK         0.5000 
     68 O          -2.5273  -16.6918  -47.7045 O.2       11 UNK        -0.5000 
     69 N          -2.2597  -18.4011  -46.2413 N.am      12 UNK        -0.5000 
     70 CA         -3.5293  -18.2698  -45.5247 C.3       12 UNK         0.1400 
     71 CB         -3.2797  -18.5453  -44.0328 C.3       12 UNK        -0.1800 
     72 C          -4.6186  -19.2056  -46.0891 C.2       12 UNK         0.5000 
     73 O          -5.7024  -19.2807  -45.5094 O.2       12 UNK        -0.5000 
     74 N          -4.3159  -19.9063  -47.1938 N.am      13 UNK        -0.5000 
     75 CA         -5.1550  -20.8840  -47.8903 C.3       13 UNK         0.1400 
     76 CB         -6.4145  -20.2184  -48.4830 C.3       13 UNK        -0.1800 
     77 C          -5.4728  -22.1356  -47.0492 C.2       13 UNK         0.5000 
     78 O          -6.5269  -22.7468  -47.2391 O.2       13 UNK        -0.5000 
     79 N          -4.5470  -22.5225  -46.1574 N.am      14 UNK        -0.5000 
     80 CA         -4.6271  -23.7472  -45.3588 C.3       14 UNK         0.1400 
     81 CB         -3.4197  -23.8213  -44.4170 C.3       14 UNK        -0.1800 
     82 C          -4.6861  -24.9912  -46.2627 C.2       14 UNK         0.5000 
     83 O          -3.8640  -25.1155  -47.1725 O.2       14 UNK        -0.5000 
     84 N          -5.6968  -25.8438  -46.0418 N.am      15 UNK        -0.5000 
     85 CA         -6.0385  -27.0256  -46.8486 C.3       15 UNK         0.1400 
     86 CB         -4.9605  -28.1179  -46.6853 C.3       15 UNK        -0.1800 
     87 C          -6.3335  -26.7042  -48.3346 C.2       15 UNK         0.5000 
     88 O          -6.1825  -27.5776  -49.1900 O.2       15 UNK        -0.5000 
     89 N          -6.7288  -25.4504  -48.6122 N.am      16 UNK        -0.5000 
     90 CA         -6.9530  -24.8482  -49.9303 C.3       16 UNK         0.1400 
     91 CB         -8.1186  -25.5374  -50.6698 C.3       16 UNK        -0.1800 
     92 C          -5.6779  -24.7454  -50.7966 C.2       16 UNK         0.5000 
     93 O          -5.7860  -24.5863  -52.0133 O.2       16 UNK        -0.5000 
     94 N          -4.4876  -24.7929  -50.1744 N.am      17 UNK        -0.5000 
     95 CA         -3.1861  -24.7924  -50.8549 C.3       17 UNK         0.1400 
     96 CB         -2.0781  -25.1271  -49.8486 C.3       17 UNK        -0.1800 
     97 C          -2.8587  -23.5032  -51.6356 C.2       17 UNK         0.5000 
     98 O          -1.9657  -23.5258  -52.4828 O.2       17 UNK        -0.5000 
     99 N          -3.6221  -22.4240  -51.4100 N.am      18 UNK        -0.5000 
    100 CA        -3.6055  -21.2067  -52.2268 C.3       18 UNK         0.1400 
    101 CB        -4.5467  -20.1579  -51.6190 C.3       18 UNK        -0.1800 
    102 C         -3.9715  -21.4629  -53.7038 C.2       18 UNK         0.5000 
    103 O         -3.4738  -20.7548  -54.5798 O.2       18 UNK        -0.5000 
    104 N         -4.7843  -22.4986  -53.9664 N.am      19 UNK        -0.5000 
    105 CA        -5.1339  -22.9610  -55.3114 C.3       19 UNK         0.1400 
    106 CB        -6.3176  -23.9357  -55.2201 C.3       19 UNK        -0.1800 
    107 C         -3.9533  -23.6164  -56.0576 C.2       19 UNK         0.5000 
    108 O         -3.9727  -23.6548  -57.2880 O.2       19 UNK        -0.5000 
    109 N         -2.9520  -24.1066  -55.3137 N.am      20 UNK        -0.5000 
    110 CA        -1.7046  -24.6408  -55.8551 C.3       20 UNK         0.1400 
    111 CB        -1.2431  -25.8317  -54.9994 C.3       20 UNK        -0.1800 
    112 C         -0.6185  -23.5532  -55.9113 C.2       20 UNK         0.5000 
    113 O          0.1031  -23.4740  -56.9061 O.2       20 UNK        -0.5000 
    114 N         -0.5168  -22.7405  -54.8481 N.am      21 UNK        -0.5000 
    115 CA         0.4806  -21.6772  -54.7074 C.3       21 UNK         0.1400 
    116 CB         0.4896  -21.1701  -53.2572 C.3       21 UNK        -0.1800 
    117 C          0.2757  -20.5117  -55.6934 C.2       21 UNK         0.5000 
    118 O          1.2550  -20.0264  -56.2619 O.2       21 UNK        -0.5000 
    119 N         -0.9833  -20.1023  -55.8856 N.am      22 UNK        -0.5000 
    120 CA        -1.4034  -19.0654  -56.8410 C.3       22 UNK         0.1400 
    121 C         -2.4398  -19.6237  -57.8482 C.2       22 UNK         0.5000 
    122 N         -3.4404  -20.3677  -57.3960 N.am      22 UNK        -0.7600 
    123 O         -2.3343  -19.3847  -59.0480 O.2       22 UNK        -0.5000 
    124 C124       -1.9756  -17.8091  -56.1364 C.3       23 UNK        -0.0398 
    125 S125       -0.7454  -16.9638  -55.0908 S.3       23 UNK        -0.2404 
    126 C126       -1.4570  -17.2195  -53.4375 C.3       23 UNK        -0.0205 
    127 H127       -0.9663   -8.2760  -45.4456 H         1 UNK         0.0600 
    128 H128       -2.5075   -9.1392  -45.4135 H         1 UNK         0.0600 
    129 H129       -1.6578   -8.9048  -46.9446 H         1 UNK         0.0600 
    130 H130       -0.6430  -10.7701  -47.6384 H         1 UNK         0.3000 
    131 H131        1.2383  -12.1974  -46.1331 H         1 UNK         0.0600 
    132 H132        1.5450  -12.1431  -48.4672 H         1 UNK         0.0800 
    133 H133        1.2592  -13.8098  -48.0714 H         1 UNK         0.0800 
    134 H134        1.3964  -12.8979  -50.7985 H         1 UNK         0.0800 
    135 H135       -0.0790  -12.7181  -51.7073 H         1 UNK         0.0800 
    136 H136       -1.1801  -14.6266  -52.6539 H         1 UNK         0.1150 
    137 H137        0.2767  -18.5679  -51.8319 H         1 UNK         0.1150 
    138 H138        1.9123  -15.2014  -49.7445 H         1 UNK         0.1150 
    139 H139        1.6170  -18.9619  -49.9049 H         1 UNK         0.0800 
    140 H140        3.0182  -18.0247  -50.3496 H         1 UNK         0.0800 
    141 H141        0.3840  -16.1012  -47.6544 H         1 UNK         0.0800 
    142 H142        0.6753  -17.2317  -46.3688 H         1 UNK         0.0800 
    143 H143       -0.7123  -17.8139  -49.0364 H         1 UNK         0.0600 
    144 H144        0.5652  -19.7064  -47.3385 H         1 UNK         0.3000 
    145 H145       -1.4943  -22.4748  -48.0190 H         1 UNK         0.0600 
    146 H146        0.5523  -23.5098  -48.9969 H         1 UNK         0.0600 
    147 H147       -0.1812  -22.4065  -50.1493 H         1 UNK         0.0600 
    148 H148        1.2575  -21.9150  -49.2630 H         1 UNK         0.0600 
    149 H149        1.0285  -22.4251  -46.7923 H         1 UNK         0.3000 
    150 H150        0.7510  -20.9006  -44.0324 H         1 UNK         0.0600 
    151 H151       -1.2132  -21.9311  -42.9298 H         1 UNK         0.0600 
    152 H152        0.2780  -22.5820  -42.2793 H         1 UNK         0.0600 
    153 H153       -0.6695  -23.5368  -43.4151 H         1 UNK         0.0600 
    154 H154        1.3637  -23.7254  -44.7848 H         1 UNK         0.3000 
    155 H155        4.5320  -21.1086  -44.4803 H         1 UNK         0.0600 
    156 H156        2.0607  -19.8177  -45.7190 H         1 UNK         0.0600 
    157 H157        3.3730  -20.5366  -46.6429 H         1 UNK         0.0600 
    158 H158        3.6841  -19.1532  -45.6120 H         1 UNK         0.0600 
    159 H159        2.6340  -19.4895  -43.2992 H         1 UNK         0.3000 
    160 H160        2.1548  -20.7829  -40.1855 H         1 UNK         0.0600 
    161 H161        4.7202  -19.1288  -40.4793 H         1 UNK         0.0600 
    162 H162        4.5759  -20.6578  -39.6210 H         1 UNK         0.0600 
    163 H163        3.7296  -19.2413  -39.0238 H         1 UNK         0.0600 
    164 H164        2.6185  -18.0584  -41.1133 H         1 UNK         0.3000 
    165 H165       -0.5069  -17.5721  -42.5653 H         1 UNK         0.0600 
    166 H166       -0.9661  -15.8838  -40.8108 H         1 UNK         0.0600 
    167 H167       -1.2555  -17.4907  -40.1728 H         1 UNK         0.0600 
    168 H168        0.2167  -16.6277  -39.7381 H         1 UNK         0.0600 
    169 H169        1.3502  -15.6370  -41.7377 H         1 UNK         0.3000 
    170 H170        3.8772  -15.7652  -43.0592 H         1 UNK         0.0600 
    171 H171        3.9380  -16.5546  -45.4048 H         1 UNK         0.0600 
    172 H172        2.6513  -15.4412  -45.8473 H         1 UNK         0.0600 
    173 H173        4.2216  -14.8229  -45.3452 H         1 UNK         0.0600 
    174 H174        1.5304  -14.0797  -43.7959 H         1 UNK         0.3000 
    175 H175        2.4692  -11.6823  -41.3655 H         1 UNK         0.0600 
    176 H176        2.4242  -11.2241  -44.3933 H         1 UNK         0.0600 
    177 H177        2.1339   -9.9987  -43.1615 H         1 UNK         0.0600 
    178 H178        3.7167  -10.7487  -43.3008 H         1 UNK         0.0600 
    179 H179        0.2845  -11.6796  -43.1639 H         1 UNK         0.3000 
    180 H180       -1.9221  -13.5918  -41.0469 H         1 UNK         0.0600 
    181 H181       -3.1384  -11.4551  -41.3527 H         1 UNK         0.0600 
    182 H182       -1.6662  -10.6609  -41.9056 H         1 UNK         0.0600 
    183 H183       -1.7874  -11.2438  -40.2496 H         1 UNK         0.0600 
    184 H184       -1.6270  -12.3705  -43.7631 H         1 UNK         0.3000 
    185 H185       -2.2560  -15.4145  -45.3406 H         1 UNK         0.0600 
    186 H186       -4.6615  -14.8775  -44.8758 H         1 UNK         0.0600 
    187 H187       -4.3560  -13.1819  -45.2339 H         1 UNK         0.0600 
    188 H188       -4.1935  -14.4017  -46.5000 H         1 UNK         0.0600 
    189 H189       -2.2081  -12.7368  -46.3547 H         1 UNK         0.3000 
    190 H190       -1.7014  -19.2073  -45.9842 H         1 UNK         0.3000 
    191 H191       -3.9064  -17.2503  -45.6196 H         1 UNK         0.0600 
    192 H192       -4.1893  -18.4045  -43.4480 H         1 UNK         0.0600 
    193 H193       -2.5341  -17.8615  -43.6308 H         1 UNK         0.0600 
    194 H194       -2.9313  -19.5638  -43.8591 H         1 UNK         0.0600 
    195 H195       -3.4021  -19.7652  -47.6076 H         1 UNK         0.3000 
    196 H196       -4.5544  -21.2456  -48.7246 H         1 UNK         0.0600 
    197 H197       -7.1177  -19.9175  -47.7060 H         1 UNK         0.0600 
    198 H198       -6.1583  -19.3321  -49.0633 H         1 UNK         0.0600 
    199 H199       -6.9407  -20.9014  -49.1508 H         1 UNK         0.0600 
    200 H200       -3.7007  -21.9763  -46.0595 H         1 UNK         0.3000 
    201 H201       -5.5351  -23.6933  -44.7549 H         1 UNK         0.0600 
    202 H202       -2.4867  -23.8999  -44.9757 H         1 UNK         0.0600 
    203 H203       -3.4854  -24.6921  -43.7637 H         1 UNK         0.0600 
    204 H204       -3.3606  -22.9382  -43.7807 H         1 UNK         0.0600 
    205 H205       -6.3370  -25.6404  -45.2865 H         1 UNK         0.3000 
    206 H206       -6.9696  -27.4173  -46.4369 H         1 UNK         0.0600 
    207 H207       -4.7715  -28.3314  -45.6333 H         1 UNK         0.0600 
    208 H208       -5.2741  -29.0522  -47.1522 H         1 UNK         0.0600 
    209 H209       -4.0151  -27.8255  -47.1434 H         1 UNK         0.0600 
    210 H210       -6.7968  -24.7968  -47.8397 H         1 UNK         0.3000 
    211 H211       -7.2583  -23.8192  -49.7364 H         1 UNK         0.0600 
    212 H212       -8.3953  -24.9823  -51.5669 H         1 UNK         0.0600 
    213 H213       -9.0064  -25.5951  -50.0401 H         1 UNK         0.0600 
    214 H214       -7.8609  -26.5495  -50.9822 H         1 UNK         0.0600 
    215 H215       -4.4631  -24.9255  -49.1685 H         1 UNK         0.3000 
    216 H216       -3.2099  -25.5961  -51.5938 H         1 UNK         0.0600 
    217 H217       -2.0460  -24.4054  -49.0352 H         1 UNK         0.0600 
    218 H218       -1.0974  -25.1343  -50.3262 H         1 UNK         0.0600 
    219 H219       -2.2323  -26.1130  -49.4095 H         1 UNK         0.0600 
    220 H220       -4.3442  -22.4952  -50.7113 H         1 UNK         0.3000 
    221 H221       -2.5932  -20.8025  -52.2022 H         1 UNK         0.0600 
    222 H222       -4.2000  -19.8422  -50.6359 H         1 UNK         0.0600 
    223 H223       -5.5644  -20.5366  -51.5184 H         1 UNK         0.0600 
    224 H224       -4.5886  -19.2628  -52.2413 H         1 UNK         0.0600 
    225 H225       -5.1385  -23.0596  -53.1979 H         1 UNK         0.3000 
    226 H226       -5.4541  -22.0949  -55.8940 H         1 UNK         0.0600 
    227 H227       -6.0480  -24.8467  -54.6848 H         1 UNK         0.0600 
    228 H228       -7.1655  -23.4826  -54.7061 H         1 UNK         0.0600 
    229 H229       -6.6581  -24.2295  -56.2138 H         1 UNK         0.0600 
    230 H230       -2.9979  -24.0065  -54.3085 H         1 UNK         0.3000 
    231 H231       -1.8662  -25.0071  -56.8712 H         1 UNK         0.0600 
    232 H232       -1.0399  -25.5415  -53.9684 H         1 UNK         0.0600 
    233 H233       -0.3279  -26.2672  -55.4023 H         1 UNK         0.0600 
    234 H234       -1.9972  -26.6186  -54.9825 H         1 UNK         0.0600 
    235 H235       -1.1058  -22.9196  -54.0398 H         1 UNK         0.3000 
    236 H236        1.4597  -22.1151  -54.9130 H         1 UNK         0.0600 
    237 H237        0.6653  -21.9843  -52.5539 H         1 UNK         0.0600 
    238 H238        1.2813  -20.4348  -53.1090 H         1 UNK         0.0600 
    239 H239       -0.4534  -20.6946  -52.9921 H         1 UNK         0.0600 
    240 H240       -1.7351  -20.5599  -55.3818 H         1 UNK         0.3000 
    241 H241       -0.5456  -18.7448  -57.4353 H         1 UNK         0.0600 
    242 H242       -4.1055  -20.7517  -58.0480 H         1 UNK         0.3800 
    243 H243       -3.5493  -20.5315  -56.3993 H         1 UNK         0.3800 
    244 H244       -2.8515  -18.0704  -55.5398 H         1 UNK         0.0800 
    245 H245       -2.3203  -17.0844  -56.8763 H         1 UNK         0.0800 
    246 H246       -1.6265  -18.2855  -53.2752 H         1 UNK         0.0800 
    247 H247       -2.4329  -16.7351  -53.3785 H         1 UNK         0.0800 
@<TRIPOS>BOND
     1    1    2 1    
     2    1  127 1    
     3    1  128 1    
     4    1  129 1    
     5    2    3 2    
     6    2    4 am   BACKBONE|DICT|INTERRES
     7    4    5 1    
     8    4  130 1    
     9    5    6 1    
    10    5   65 1    
    11    5  131 1    
    12    6    7 1    
    13    6  132 1    
    14    6  133 1    
    15    7    8 1    
    16    8    9 1    
    17    8  134 1    
    18    8  135 1    
    19    9   10 ar   
    20    9   14 ar   
    21   10   11 ar   
    22   10  136 1    
    23   11   12 ar   
    24   11  126 1    
    25   12   13 ar   
    26   12  137 1    
    27   13   14 ar   
    28   13   15 1    
    29   14  138 1    
    30   15   16 1    
    31   15  139 1    
    32   15  140 1    
    33   16   17 1    
    34   17   18 1    
    35   17  141 1    
    36   17  142 1    
    37   18   19 1    
    38   18   67 1    
    39   18  143 1    
    40   19   20 am   BACKBONE|DICT|INTERRES
    41   19  144 1    
    42   20   21 2    
    43   20   22 1    
    44   22   23 1    
    45   22   24 1    
    46   22  145 1    
    47   23  146 1    
    48   23  147 1    
    49   23  148 1    
    50   24   25 am   BACKBONE|DICT|INTERRES
    51   24  149 1    
    52   25   26 2    
    53   25   27 1    
    54   27   28 1    
    55   27   29 1    
    56   27  150 1    
    57   28  151 1    
    58   28  152 1    
    59   28  153 1    
    60   29   30 am   BACKBONE|DICT|INTERRES
    61   29  154 1    
    62   30   31 2    
    63   30   32 1    
    64   32   33 1    
    65   32   34 1    
    66   32  155 1    
    67   33  156 1    
    68   33  157 1    
    69   33  158 1    
    70   34   35 am   BACKBONE|DICT|INTERRES
    71   34  159 1    
    72   35   36 2    
    73   35   37 1    
    74   37   38 1    
    75   37   39 1    
    76   37  160 1    
    77   38  161 1    
    78   38  162 1    
    79   38  163 1    
    80   39   40 am   BACKBONE|DICT|INTERRES
    81   39  164 1    
    82   40   41 2    
    83   40   42 1    
    84   42   43 1    
    85   42   44 1    
    86   42  165 1    
    87   43  166 1    
    88   43  167 1    
    89   43  168 1    
    90   44   45 am   BACKBONE|DICT|INTERRES
    91   44  169 1    
    92   45   46 2    
    93   45   47 1    
    94   47   48 1    
    95   47   49 1    
    96   47  170 1    
    97   48  171 1    
    98   48  172 1    
    99   48  173 1    
   100   49   50 am   BACKBONE|DICT|INTERRES
   101   49  174 1    
   102   50   51 2    
   103   50   52 1    
   104   52   53 1    
   105   52   54 1    
   106   52  175 1    
   107   53  176 1    
   108   53  177 1    
   109   53  178 1    
   110   54   55 am   BACKBONE|DICT|INTERRES
   111   54  179 1    
   112   55   56 2    
   113   55   57 1    
   114   57   58 1    
   115   57   59 1    
   116   57  180 1    
   117   58  181 1    
   118   58  182 1    
   119   58  183 1    
   120   59   60 am   BACKBONE|DICT|INTERRES
   121   59  184 1    
   122   60   61 2    
   123   60   62 1    
   124   62   63 1    
   125   62   64 1    
   126   62  185 1    
   127   63  186 1    
   128   63  187 1    
   129   63  188 1    
   130   64   65 am   BACKBONE|DICT|INTERRES
   131   64  189 1    
   132   65   66 2    
   133   67   68 2    
   134   67   69 am   BACKBONE|DICT|INTERRES
   135   69   70 1    
   136   69  190 1    
   137   70   71 1    
   138   70   72 1    
   139   70  191 1    
   140   71  192 1    
   141   71  193 1    
   142   71  194 1    
   143   72   73 2    
   144   72   74 am   BACKBONE|DICT|INTERRES
   145   74   75 1    
   146   74  195 1    
   147   75   76 1    
   148   75   77 1    
   149   75  196 1    
   150   76  197 1    
   151   76  198 1    
   152   76  199 1    
   153   77   78 2    
   154   77   79 am   BACKBONE|DICT|INTERRES
   155   79   80 1    
   156   79  200 1    
   157   80   81 1    
   158   80   82 1    
   159   80  201 1    
   160   81  202 1    
   161   81  203 1    
   162   81  204 1    
   163   82   83 2    
   164   82   84 am   BACKBONE|DICT|INTERRES
   165   84   85 1    
   166   84  205 1    
   167   85   86 1    
   168   85   87 1    
   169   85  206 1    
   170   86  207 1    
   171   86  208 1    
   172   86  209 1    
   173   87   88 2    
   174   87   89 am   BACKBONE|DICT|INTERRES
   175   89   90 1    
   176   89  210 1    
   177   90   91 1    
   178   90   92 1    
   179   90  211 1    
   180   91  212 1    
   181   91  213 1    
   182   91  214 1    
   183   92   93 2    
   184   92   94 am   BACKBONE|DICT|INTERRES
   185   94   95 1    
   186   94  215 1    
   187   95   96 1    
   188   95   97 1    
   189   95  216 1    
   190   96  217 1    
   191   96  218 1    
   192   96  219 1    
   193   97   98 2    
   194   97   99 am   BACKBONE|DICT|INTERRES
   195   99  100 1    
   196   99  220 1    
   197  100  101 1    
   198  100  102 1    
   199  100  221 1    
   200  101  222 1    
   201  101  223 1    
   202  101  224 1    
   203  102  103 2    
   204  102  104 am   BACKBONE|DICT|INTERRES
   205  104  105 1    
   206  104  225 1    
   207  105  106 1    
   208  105  107 1    
   209  105  226 1    
   210  106  227 1    
   211  106  228 1    
   212  106  229 1    
   213  107  108 2    
   214  107  109 am   BACKBONE|DICT|INTERRES
   215  109  110 1    
   216  109  230 1    
   217  110  111 1    
   218  110  112 1    
   219  110  231 1    
   220  111  232 1    
   221  111  233 1    
   222  111  234 1    
   223  112  113 2    
   224  112  114 am   BACKBONE|DICT|INTERRES
   225  114  115 1    
   226  114  235 1    
   227  115  116 1    
   228  115  117 1    
   229  115  236 1    
   230  116  237 1    
   231  116  238 1    
   232  116  239 1    
   233  117  118 2    
   234  117  119 am   BACKBONE|DICT|INTERRES
   235  119  120 1    
   236  119  240 1    
   237  120  121 1    
   238  120  124 1    
   239  120  241 1    
   240  121  122 am   BACKBONE|DICT|INTERRES
   241  121  123 2    
   242  122  242 1    
   243  122  243 1    
   244  124  125 1    
   245  124  244 1    
   246  124  245 1    
   247  125  126 1    
   248  126  246 1    
   249  126  247 1    
@<TRIPOS>SUBSTRUCTURE
     1 UNK         1 GROUP             0       ****    0 ROOT    
