@<TRIPOS>MOLECULE
3R540
247   249    1
SMALL
USER_CHARGES


@<TRIPOS>ATOM
      1 CA         -5.8706  -12.3138  -45.4647 C.3       0 UNK        -0.1800 
      2 C          -4.3634  -12.1104  -45.4680 C.2       0 UNK         0.5000 
      3 O          -3.7926  -11.7416  -44.4404 O.2       0 UNK        -0.5000 
      4 N          -3.7098  -12.3689  -46.6100 N.am      1 UNK        -0.5000 
      5 CA         -2.2638  -12.2054  -46.8247 C.3       1 UNK         0.1400 
      6 C6         -1.8540  -12.4236  -48.3022 C.3       23 UNK        -0.0398 
      7 S7         -2.2742  -14.0751  -48.9618 S.3       23 UNK        -0.2404 
      8 C8         -0.6507  -14.8917  -48.8738 C.3       23 UNK        -0.0205 
      9 C9         -0.7591  -16.3658  -49.2209 C.ar      23 UNK        -0.0193 
     10 C10        -0.3843  -16.8259  -50.4858 C.ar      23 UNK        -0.1150 
     11 C11        -0.4561  -18.1873  -50.7960 C.ar      23 UNK        -0.0193 
     12 C12        -0.9203  -19.0876  -49.8320 C.ar      23 UNK        -0.1150 
     13 C13        -1.2951  -18.6375  -48.5632 C.ar      23 UNK        -0.0193 
     14 C14        -1.2127  -17.2758  -48.2634 C.ar      23 UNK        -0.1150 
     15 C15        -1.7302  -19.6278  -47.4985 C.3       23 UNK        -0.0205 
     16 S16        -0.2577  -20.2865  -46.6710 S.3       23 UNK        -0.2404 
     17 C17        -0.9597  -21.3498  -45.3727 C.3       23 UNK        -0.0398 
     18 CA         -1.1930  -22.7967  -45.8636 C.3       11 UNK         0.1400 
     19 N           0.0158  -23.4191  -46.4307 N.am      11 UNK        -0.5000 
     20 C           0.0406  -24.5327  -47.1804 C.2       10 UNK         0.5000 
     21 O          -0.9390  -25.2639  -47.3292 O.2       10 UNK        -0.5000 
     22 CA          1.3566  -24.9000  -47.8936 C.3       10 UNK         0.1400 
     23 CB          1.2555  -24.5573  -49.3885 C.3       10 UNK        -0.1800 
     24 N           2.5383  -24.2360  -47.3445 N.am      10 UNK        -0.5000 
     25 C           3.1180  -24.5303  -46.1726 C.2       9 UNK         0.5000 
     26 O           2.7156  -25.4141  -45.4156 O.2       9 UNK        -0.5000 
     27 CA          4.3464  -23.6829  -45.7756 C.3       9 UNK         0.1400 
     28 CB          5.6454  -24.4204  -46.1342 C.3       9 UNK        -0.1800 
     29 N           4.3668  -22.3505  -46.3927 N.am      9 UNK        -0.5000 
     30 C           3.4667  -21.3921  -46.1398 C.2       8 UNK         0.5000 
     31 O           2.5376  -21.5381  -45.3412 O.2       8 UNK        -0.5000 
     32 CA          3.5991  -20.0904  -46.9543 C.3       8 UNK         0.1400 
     33 CB          3.1726  -20.3245  -48.4138 C.3       8 UNK        -0.1800 
     34 N           2.7399  -19.0547  -46.3882 N.am      8 UNK        -0.5000 
     35 C           3.0858  -18.2213  -45.4046 C.2       7 UNK         0.5000 
     36 O           4.2341  -18.1088  -44.9662 O.2       7 UNK        -0.5000 
     37 CA          1.9339  -17.4203  -44.7736 C.3       7 UNK         0.1400 
     38 CB          1.2757  -18.2336  -43.6481 C.3       7 UNK        -0.1800 
     39 N           2.4239  -16.1666  -44.2089 N.am      7 UNK        -0.5000 
     40 C           2.5421  -15.0228  -44.8881 C.2       6 UNK         0.5000 
     41 O           2.1813  -14.8725  -46.0585 O.2       6 UNK        -0.5000 
     42 CA          3.1882  -13.8561  -44.1317 C.3       6 UNK         0.1400 
     43 CB          4.7218  -13.9035  -44.2754 C.3       6 UNK        -0.1800 
     44 N           2.6613  -12.6045  -44.6620 N.am      6 UNK        -0.5000 
     45 C           2.7684  -11.4037  -44.0858 C.2       5 UNK         0.5000 
     46 O           3.3445  -11.2074  -43.0147 O.2       5 UNK        -0.5000 
     47 CA          2.1063  -10.2216  -44.8075 C.3       5 UNK         0.1400 
     48 CB          2.1548  -10.3278  -46.3450 C.3       5 UNK        -0.1800 
     49 N           0.7200  -10.1380  -44.3632 N.am      5 UNK        -0.5000 
     50 C           0.1628   -9.0722  -43.7764 C.2       4 UNK         0.5000 
     51 O           0.7485   -8.0029  -43.5991 O.2       4 UNK        -0.5000 
     52 CA         -1.2956   -9.2107  -43.3006 C.3       4 UNK         0.1400 
     53 CB         -2.2680   -8.7070  -44.3777 C.3       4 UNK        -0.1800 
     54 N          -1.6683  -10.5719  -42.9085 N.am      4 UNK        -0.5000 
     55 C          -1.2405  -11.1798  -41.7918 C.2       3 UNK         0.5000 
     56 O          -0.4275  -10.6824  -41.0122 O.2       3 UNK        -0.5000 
     57 CA         -1.8296  -12.5650  -41.4801 C.3       3 UNK         0.1400 
     58 CB         -3.2251  -12.4252  -40.8514 C.3       3 UNK        -0.1800 
     59 N          -1.9306  -13.3844  -42.6844 N.am      3 UNK        -0.5000 
     60 C          -1.0542  -14.3347  -43.0368 C.2       2 UNK         0.5000 
     61 O          -0.0762  -14.6556  -42.3613 O.2       2 UNK        -0.5000 
     62 CA         -1.3074  -15.0424  -44.3834 C.3       2 UNK         0.1400 
     63 CB         -2.1950  -16.2802  -44.1786 C.3       2 UNK        -0.1800 
     64 N          -1.9222  -14.1770  -45.3900 N.am      2 UNK        -0.5000 
     65 C          -1.3921  -13.0385  -45.8607 C.2       1 UNK         0.5000 
     66 O          -0.2873  -12.6113  -45.5303 O.2       1 UNK        -0.5000 
     67 C          -1.9310  -23.6341  -44.7961 C.2       11 UNK         0.5000 
     68 O          -3.0144  -23.2327  -44.3722 O.2       11 UNK        -0.5000 
     69 N          -1.4074  -24.8156  -44.4419 N.am      12 UNK        -0.5000 
     70 CA         -2.1398  -25.8744  -43.7415 C.3       12 UNK         0.1400 
     71 CB         -1.1781  -27.0351  -43.4471 C.3       12 UNK        -0.1800 
     72 C          -3.3724  -26.3768  -44.5297 C.2       12 UNK         0.5000 
     73 O          -4.3452  -26.8134  -43.9143 O.2       12 UNK        -0.5000 
     74 N          -3.3289  -26.2658  -45.8674 N.am      13 UNK        -0.5000 
     75 CA         -4.4512  -26.5293  -46.7724 C.3       13 UNK         0.1400 
     76 CB         -3.8909  -26.9605  -48.1366 C.3       13 UNK        -0.1800 
     77 C          -5.4103  -25.3252  -46.9227 C.2       13 UNK         0.5000 
     78 O          -6.4203  -25.4481  -47.6173 O.2       13 UNK        -0.5000 
     79 N          -5.0914  -24.1917  -46.2773 N.am      14 UNK        -0.5000 
     80 CA         -5.8658  -22.9505  -46.2038 C.3       14 UNK         0.1400 
     81 CB         -7.1018  -23.1552  -45.2993 C.3       14 UNK        -0.1800 
     82 C          -6.1868  -22.3684  -47.5959 C.2       14 UNK         0.5000 
     83 O          -5.2616  -22.0447  -48.3444 O.2       14 UNK        -0.5000 
     84 N          -7.4802  -22.2528  -47.9268 N.am      15 UNK        -0.5000 
     85 CA         -7.9957  -21.7000  -49.1804 C.3       15 UNK         0.1400 
     86 CB         -9.5306  -21.6896  -49.1331 C.3       15 UNK        -0.1800 
     87 C          -7.5021  -22.4340  -50.4404 C.2       15 UNK         0.5000 
     88 O          -7.3176  -21.7937  -51.4748 O.2       15 UNK        -0.5000 
     89 N          -7.2552  -23.7471  -50.3276 N.am      16 UNK        -0.5000 
     90 CA         -6.7156  -24.5704  -51.4101 C.3       16 UNK         0.1400 
     91 CB         -6.8694  -26.0551  -51.0527 C.3       16 UNK        -0.1800 
     92 C          -5.2508  -24.2342  -51.7474 C.2       16 UNK         0.5000 
     93 O          -4.8538  -24.3926  -52.9010 O.2       16 UNK        -0.5000 
     94 N          -4.4847  -23.7522  -50.7574 N.am      17 UNK        -0.5000 
     95 CA         -3.1309  -23.2397  -50.9592 C.3       17 UNK         0.1400 
     96 CB         -2.3310  -23.3179  -49.6552 C.3       17 UNK        -0.1800 
     97 C          -3.1532  -21.8017  -51.4892 C.2       17 UNK         0.5000 
     98 O          -2.3857  -21.4892  -52.3955 O.2       17 UNK        -0.5000 
     99 N          -4.0442  -20.9622  -50.9420 N.am      18 UNK        -0.5000 
    100 CA        -4.2217  -19.5639  -51.3482 C.3       18 UNK         0.1400 
    101 CB        -5.1960  -18.8740  -50.3836 C.3       18 UNK        -0.1800 
    102 C         -4.6821  -19.4006  -52.8107 C.2       18 UNK         0.5000 
    103 O         -4.2901  -18.4365  -53.4681 O.2       18 UNK        -0.5000 
    104 N         -5.4815  -20.3577  -53.2991 N.am      19 UNK        -0.5000 
    105 CA        -5.9186  -20.4567  -54.6919 C.3       19 UNK         0.1400 
    106 CB        -7.1844  -21.3272  -54.7430 C.3       19 UNK        -0.1800 
    107 C         -4.8414  -21.0248  -55.6416 C.2       19 UNK         0.5000 
    108 O         -5.0184  -20.9422  -56.8583 O.2       19 UNK        -0.5000 
    109 N         -3.7701  -21.6083  -55.0906 N.am      20 UNK        -0.5000 
    110 CA        -2.6702  -22.2312  -55.8231 C.3       20 UNK         0.1400 
    111 CB        -2.3824  -23.6034  -55.1852 C.3       20 UNK        -0.1800 
    112 C         -1.4197  -21.3314  -55.8135 C.2       20 UNK         0.5000 
    113 O         -1.4533  -20.2065  -55.3097 O.2       20 UNK        -0.5000 
    114 N         -0.3259  -21.8512  -56.3860 N.am      21 UNK        -0.5000 
    115 CA         0.9799  -21.1896  -56.4538 C.3       21 UNK         0.1400 
    116 CB         1.8175  -21.8694  -57.5491 C.3       21 UNK        -0.1800 
    117 C          1.7477  -21.1828  -55.1147 C.2       21 UNK         0.5000 
    118 O          2.7046  -20.4190  -54.9915 O.2       21 UNK        -0.5000 
    119 N          1.3340  -22.0420  -54.1687 N.am      22 UNK        -0.5000 
    120 CA         1.8319  -22.2147  -52.7862 C.3       22 UNK         0.1400 
    121 C          3.3567  -22.4873  -52.5887 C.2       22 UNK         0.5000 
    122 N          4.1195  -22.7950  -53.6294 N.am      22 UNK        -0.7600 
    123 O          3.8504  -22.4794  -51.4643 O.2       22 UNK        -0.5000 
    124 C124        1.2391  -21.1910  -51.7730 C.3       23 UNK        -0.0398 
    125 S125        1.6466  -19.4357  -52.0777 S.3       23 UNK        -0.2404 
    126 C126       -0.0083  -18.6795  -52.1639 C.3       23 UNK        -0.0205 
    127 H127       -6.1463  -13.0558  -44.7155 H         1 UNK         0.0600 
    128 H128       -6.2360  -12.6547  -46.4336 H         1 UNK         0.0600 
    129 H129       -6.3730  -11.3780  -45.2205 H         1 UNK         0.0600 
    130 H130       -4.2296  -12.6930  -47.4137 H         1 UNK         0.3000 
    131 H131       -2.0407  -11.1631  -46.5945 H         1 UNK         0.0600 
    132 H132       -2.3592  -11.6848  -48.9256 H         1 UNK         0.0800 
    133 H133       -0.7880  -12.2300  -48.4374 H         1 UNK         0.0800 
    134 H134        0.0440  -14.3900  -49.5493 H         1 UNK         0.0800 
    135 H135       -0.2308  -14.7908  -47.8720 H         1 UNK         0.0800 
    136 H136       -0.0226  -16.1250  -51.2249 H         1 UNK         0.1150 
    137 H137       -0.9685  -20.1422  -50.0591 H         1 UNK         0.1150 
    138 H138       -1.4867  -16.9216  -47.2806 H         1 UNK         0.1150 
    139 H139       -2.3826  -19.1441  -46.7699 H         1 UNK         0.0800 
    140 H140       -2.3030  -20.4407  -47.9479 H         1 UNK         0.0800 
    141 H141       -1.8859  -20.8954  -45.0161 H         1 UNK         0.0800 
    142 H142       -0.2713  -21.3484  -44.5260 H         1 UNK         0.0800 
    143 H143       -1.9040  -22.7277  -46.6881 H         1 UNK         0.0600 
    144 H144        0.8701  -22.8877  -46.3208 H         1 UNK         0.3000 
    145 H145        1.4910  -25.9793  -47.7966 H         1 UNK         0.0600 
    146 H146        2.1518  -24.8652  -49.9276 H         1 UNK         0.0600 
    147 H147        0.4087  -25.0655  -49.8518 H         1 UNK         0.0600 
    148 H148        1.1219  -23.4868  -49.5445 H         1 UNK         0.0600 
    149 H149        2.9441  -23.5003  -47.9032 H         1 UNK         0.3000 
    150 H150        4.3156  -23.5523  -44.6918 H         1 UNK         0.0600 
    151 H151        5.7436  -24.5623  -47.2113 H         1 UNK         0.0600 
    152 H152        5.6762  -25.4067  -45.6691 H         1 UNK         0.0600 
    153 H153        6.5204  -23.8715  -45.7856 H         1 UNK         0.0600 
    154 H154        5.1027  -22.1740  -47.0618 H         1 UNK         0.3000 
    155 H155        4.6409  -19.7641  -46.9346 H         1 UNK         0.0600 
    156 H156        2.1522  -20.7031  -48.4809 H         1 UNK         0.0600 
    157 H157        3.8232  -21.0468  -48.9080 H         1 UNK         0.0600 
    158 H158        3.2205  -19.4016  -48.9925 H         1 UNK         0.0600 
    159 H159        1.7590  -19.1420  -46.6212 H         1 UNK         0.3000 
    160 H160        1.1825  -17.2129  -45.5393 H         1 UNK         0.0600 
    161 H161        0.4726  -17.6726  -43.1716 H         1 UNK         0.0600 
    162 H162        1.9952  -18.5067  -42.8751 H         1 UNK         0.0600 
    163 H163        0.8453  -19.1581  -44.0327 H         1 UNK         0.0600 
    164 H164        2.7861  -16.2180  -43.2679 H         1 UNK         0.3000 
    165 H165        2.9142  -13.9312  -43.0770 H         1 UNK         0.0600 
    166 H166        5.1184  -14.8575  -43.9257 H         1 UNK         0.0600 
    167 H167        5.0289  -13.7820  -45.3149 H         1 UNK         0.0600 
    168 H168        5.2048  -13.1215  -43.6899 H         1 UNK         0.0600 
    169 H169        2.0993  -12.7123  -45.4994 H         1 UNK         0.3000 
    170 H170        2.6636   -9.3277  -44.5199 H         1 UNK         0.0600 
    171 H171        3.1787  -10.4670  -46.6942 H         1 UNK         0.0600 
    172 H172        1.5592  -11.1565  -46.7273 H         1 UNK         0.0600 
    173 H173        1.7775   -9.4152  -46.8064 H         1 UNK         0.0600 
    174 H174        0.1783  -10.9901  -44.4691 H         1 UNK         0.3000 
    175 H175       -1.4121   -8.5692  -42.4244 H         1 UNK         0.0600 
    176 H176       -3.3005   -8.7519  -44.0303 H         1 UNK         0.0600 
    177 H177       -2.0574   -7.6692  -44.6386 H         1 UNK         0.0600 
    178 H178       -2.1970   -9.2942  -45.2919 H         1 UNK         0.0600 
    179 H179       -2.3754  -11.0288  -43.4789 H         1 UNK         0.3000 
    180 H180       -1.1799  -13.0481  -40.7471 H         1 UNK         0.0600 
    181 H181       -3.9322  -11.9536  -41.5352 H         1 UNK         0.0600 
    182 H182       -3.1868  -11.8174  -39.9465 H         1 UNK         0.0600 
    183 H183       -3.6289  -13.3985  -40.5724 H         1 UNK         0.0600 
    184 H184       -2.6790  -13.1498  -43.3255 H         1 UNK         0.3000 
    185 H185       -0.3451  -15.3712  -44.7747 H         1 UNK         0.0600 
    186 H186       -1.7786  -16.9426  -43.4194 H         1 UNK         0.0600 
    187 H187       -3.1986  -16.0040  -43.8527 H         1 UNK         0.0600 
    188 H188       -2.2886  -16.8606  -45.0956 H         1 UNK         0.0600 
    189 H189       -2.8391  -14.4415  -45.7189 H         1 UNK         0.3000 
    190 H190       -0.5196  -25.0751  -44.8476 H         1 UNK         0.3000 
    191 H191       -2.4949  -25.4686  -42.7920 H         1 UNK         0.0600 
    192 H192       -0.3391  -26.7066  -42.8333 H         1 UNK         0.0600 
    193 H193       -1.6845  -27.8341  -42.9040 H         1 UNK         0.0600 
    194 H194       -0.7748  -27.4652  -44.3650 H         1 UNK         0.0600 
    195 H195       -2.4790  -25.9171  -46.3036 H         1 UNK         0.3000 
    196 H196       -5.0375  -27.3602  -46.3750 H         1 UNK         0.0600 
    197 H197       -4.6879  -27.3008  -48.7972 H         1 UNK         0.0600 
    198 H198       -3.1868  -27.7861  -48.0320 H         1 UNK         0.0600 
    199 H199       -3.3748  -26.1426  -48.6368 H         1 UNK         0.0600 
    200 H200       -4.2447  -24.1856  -45.7229 H         1 UNK         0.3000 
    201 H201       -5.2229  -22.2157  -45.7175 H         1 UNK         0.0600 
    202 H202       -7.6527  -22.2237  -45.1624 H         1 UNK         0.0600 
    203 H203       -7.7903  -23.8990  -45.7022 H         1 UNK         0.0600 
    204 H204       -6.8008  -23.4932  -44.3075 H         1 UNK         0.0600 
    205 H205       -8.1697  -22.5668  -47.2596 H         1 UNK         0.3000 
    206 H206       -7.6520  -20.6669  -49.2457 H         1 UNK         0.0600 
    207 H207       -9.8964  -21.0916  -48.2982 H         1 UNK         0.0600 
    208 H208       -9.9466  -21.2596  -50.0454 H         1 UNK         0.0600 
    209 H209       -9.9368  -22.6966  -49.0298 H         1 UNK         0.0600 
    210 H210       -7.3872  -24.1976  -49.4308 H         1 UNK         0.3000 
    211 H211       -7.3087  -24.3782  -52.3070 H         1 UNK         0.0600 
    212 H212       -6.3070  -26.3121  -50.1566 H         1 UNK         0.0600 
    213 H213       -6.5069  -26.6911  -51.8613 H         1 UNK         0.0600 
    214 H214       -7.9140  -26.3134  -50.8787 H         1 UNK         0.0600 
    215 H215       -4.9006  -23.5935  -49.8485 H         1 UNK         0.3000 
    216 H216       -2.6180  -23.8595  -51.6978 H         1 UNK         0.0600 
    217 H217       -1.3468  -22.8614  -49.7665 H         1 UNK         0.0600 
    218 H218       -2.1754  -24.3554  -49.3716 H         1 UNK         0.0600 
    219 H219       -2.8359  -22.8126  -48.8338 H         1 UNK         0.0600 
    220 H220       -4.6160  -21.2942  -50.1733 H         1 UNK         0.3000 
    221 H221       -3.2549  -19.0678  -51.2611 H         1 UNK         0.0600 
    222 H222       -6.1983  -19.2943  -50.4603 H         1 UNK         0.0600 
    223 H223       -4.8647  -18.9709  -49.3493 H         1 UNK         0.0600 
    224 H224       -5.2699  -17.8084  -50.6037 H         1 UNK         0.0600 
    225 H225       -5.8311  -21.0684  -52.6647 H         1 UNK         0.3000 
    226 H226       -6.1772  -19.4581  -55.0500 H         1 UNK         0.0600 
    227 H227       -7.5674  -21.4075  -55.7611 H         1 UNK         0.0600 
    228 H228       -6.9890  -22.3385  -54.3831 H         1 UNK         0.0600 
    229 H229       -7.9799  -20.9024  -54.1304 H         1 UNK         0.0600 
    230 H230       -3.6358  -21.5385  -54.0891 H         1 UNK         0.3000 
    231 H231       -2.9518  -22.3919  -56.8656 H         1 UNK         0.0600 
    232 H232       -2.0146  -23.5064  -54.1637 H         1 UNK         0.0600 
    233 H233       -1.6392  -24.1645  -55.7519 H         1 UNK         0.0600 
    234 H234       -3.2835  -24.2160  -55.1557 H         1 UNK         0.0600 
    235 H235       -0.3804  -22.7715  -56.7980 H         1 UNK         0.3000 
    236 H236        0.8241  -20.1480  -56.7431 H         1 UNK         0.0600 
    237 H237        2.7878  -21.3832  -57.6591 H         1 UNK         0.0600 
    238 H238        2.0009  -22.9204  -57.3224 H         1 UNK         0.0600 
    239 H239        1.3192  -21.8159  -58.5173 H         1 UNK         0.0600 
    240 H240        0.5522  -22.6311  -54.4117 H         1 UNK         0.3000 
    241 H241        1.3985  -23.1722  -52.4948 H         1 UNK         0.0600 
    242 H242        3.7402  -22.7801  -54.5621 H         1 UNK         0.3800 
    243 H243        5.0984  -22.9869  -53.4863 H         1 UNK         0.3800 
    244 H244        1.5511  -21.4315  -50.7567 H         1 UNK         0.0800 
    245 H245        0.1573  -21.3103  -51.7659 H         1 UNK         0.0800 
    246 H246        0.0320  -17.8466  -52.8672 H         1 UNK         0.0800 
    247 H247       -0.7370  -19.3777  -52.5778 H         1 UNK         0.0800 
@<TRIPOS>BOND
     1    1    2 1    
     2    1  127 1    
     3    1  128 1    
     4    1  129 1    
     5    2    3 2    
     6    2    4 am   BACKBONE|DICT|INTERRES
     7    4    5 1    
     8    4  130 1    
     9    5    6 1    
    10    5   65 1    
    11    5  131 1    
    12    6    7 1    
    13    6  132 1    
    14    6  133 1    
    15    7    8 1    
    16    8    9 1    
    17    8  134 1    
    18    8  135 1    
    19    9   10 ar   
    20    9   14 ar   
    21   10   11 ar   
    22   10  136 1    
    23   11   12 ar   
    24   11  126 1    
    25   12   13 ar   
    26   12  137 1    
    27   13   14 ar   
    28   13   15 1    
    29   14  138 1    
    30   15   16 1    
    31   15  139 1    
    32   15  140 1    
    33   16   17 1    
    34   17   18 1    
    35   17  141 1    
    36   17  142 1    
    37   18   19 1    
    38   18   67 1    
    39   18  143 1    
    40   19   20 am   BACKBONE|DICT|INTERRES
    41   19  144 1    
    42   20   21 2    
    43   20   22 1    
    44   22   23 1    
    45   22   24 1    
    46   22  145 1    
    47   23  146 1    
    48   23  147 1    
    49   23  148 1    
    50   24   25 am   BACKBONE|DICT|INTERRES
    51   24  149 1    
    52   25   26 2    
    53   25   27 1    
    54   27   28 1    
    55   27   29 1    
    56   27  150 1    
    57   28  151 1    
    58   28  152 1    
    59   28  153 1    
    60   29   30 am   BACKBONE|DICT|INTERRES
    61   29  154 1    
    62   30   31 2    
    63   30   32 1    
    64   32   33 1    
    65   32   34 1    
    66   32  155 1    
    67   33  156 1    
    68   33  157 1    
    69   33  158 1    
    70   34   35 am   BACKBONE|DICT|INTERRES
    71   34  159 1    
    72   35   36 2    
    73   35   37 1    
    74   37   38 1    
    75   37   39 1    
    76   37  160 1    
    77   38  161 1    
    78   38  162 1    
    79   38  163 1    
    80   39   40 am   BACKBONE|DICT|INTERRES
    81   39  164 1    
    82   40   41 2    
    83   40   42 1    
    84   42   43 1    
    85   42   44 1    
    86   42  165 1    
    87   43  166 1    
    88   43  167 1    
    89   43  168 1    
    90   44   45 am   BACKBONE|DICT|INTERRES
    91   44  169 1    
    92   45   46 2    
    93   45   47 1    
    94   47   48 1    
    95   47   49 1    
    96   47  170 1    
    97   48  171 1    
    98   48  172 1    
    99   48  173 1    
   100   49   50 am   BACKBONE|DICT|INTERRES
   101   49  174 1    
   102   50   51 2    
   103   50   52 1    
   104   52   53 1    
   105   52   54 1    
   106   52  175 1    
   107   53  176 1    
   108   53  177 1    
   109   53  178 1    
   110   54   55 am   BACKBONE|DICT|INTERRES
   111   54  179 1    
   112   55   56 2    
   113   55   57 1    
   114   57   58 1    
   115   57   59 1    
   116   57  180 1    
   117   58  181 1    
   118   58  182 1    
   119   58  183 1    
   120   59   60 am   BACKBONE|DICT|INTERRES
   121   59  184 1    
   122   60   61 2    
   123   60   62 1    
   124   62   63 1    
   125   62   64 1    
   126   62  185 1    
   127   63  186 1    
   128   63  187 1    
   129   63  188 1    
   130   64   65 am   BACKBONE|DICT|INTERRES
   131   64  189 1    
   132   65   66 2    
   133   67   68 2    
   134   67   69 am   BACKBONE|DICT|INTERRES
   135   69   70 1    
   136   69  190 1    
   137   70   71 1    
   138   70   72 1    
   139   70  191 1    
   140   71  192 1    
   141   71  193 1    
   142   71  194 1    
   143   72   73 2    
   144   72   74 am   BACKBONE|DICT|INTERRES
   145   74   75 1    
   146   74  195 1    
   147   75   76 1    
   148   75   77 1    
   149   75  196 1    
   150   76  197 1    
   151   76  198 1    
   152   76  199 1    
   153   77   78 2    
   154   77   79 am   BACKBONE|DICT|INTERRES
   155   79   80 1    
   156   79  200 1    
   157   80   81 1    
   158   80   82 1    
   159   80  201 1    
   160   81  202 1    
   161   81  203 1    
   162   81  204 1    
   163   82   83 2    
   164   82   84 am   BACKBONE|DICT|INTERRES
   165   84   85 1    
   166   84  205 1    
   167   85   86 1    
   168   85   87 1    
   169   85  206 1    
   170   86  207 1    
   171   86  208 1    
   172   86  209 1    
   173   87   88 2    
   174   87   89 am   BACKBONE|DICT|INTERRES
   175   89   90 1    
   176   89  210 1    
   177   90   91 1    
   178   90   92 1    
   179   90  211 1    
   180   91  212 1    
   181   91  213 1    
   182   91  214 1    
   183   92   93 2    
   184   92   94 am   BACKBONE|DICT|INTERRES
   185   94   95 1    
   186   94  215 1    
   187   95   96 1    
   188   95   97 1    
   189   95  216 1    
   190   96  217 1    
   191   96  218 1    
   192   96  219 1    
   193   97   98 2    
   194   97   99 am   BACKBONE|DICT|INTERRES
   195   99  100 1    
   196   99  220 1    
   197  100  101 1    
   198  100  102 1    
   199  100  221 1    
   200  101  222 1    
   201  101  223 1    
   202  101  224 1    
   203  102  103 2    
   204  102  104 am   BACKBONE|DICT|INTERRES
   205  104  105 1    
   206  104  225 1    
   207  105  106 1    
   208  105  107 1    
   209  105  226 1    
   210  106  227 1    
   211  106  228 1    
   212  106  229 1    
   213  107  108 2    
   214  107  109 am   BACKBONE|DICT|INTERRES
   215  109  110 1    
   216  109  230 1    
   217  110  111 1    
   218  110  112 1    
   219  110  231 1    
   220  111  232 1    
   221  111  233 1    
   222  111  234 1    
   223  112  113 2    
   224  112  114 am   BACKBONE|DICT|INTERRES
   225  114  115 1    
   226  114  235 1    
   227  115  116 1    
   228  115  117 1    
   229  115  236 1    
   230  116  237 1    
   231  116  238 1    
   232  116  239 1    
   233  117  118 2    
   234  117  119 am   BACKBONE|DICT|INTERRES
   235  119  120 1    
   236  119  240 1    
   237  120  121 1    
   238  120  124 1    
   239  120  241 1    
   240  121  122 am   BACKBONE|DICT|INTERRES
   241  121  123 2    
   242  122  242 1    
   243  122  243 1    
   244  124  125 1    
   245  124  244 1    
   246  124  245 1    
   247  125  126 1    
   248  126  246 1    
   249  126  247 1    
@<TRIPOS>SUBSTRUCTURE
     1 UNK         1 GROUP             0       ****    0 ROOT    
