@<TRIPOS>MOLECULE
3R540
247   249    1
SMALL
USER_CHARGES


@<TRIPOS>ATOM
      1 CA          4.9769  -14.6451  -45.9340 C.3       0 UNK        -0.1800 
      2 C           3.6695  -14.9397  -46.6561 C.2       0 UNK         0.5000 
      3 O           3.3987  -16.0905  -46.9947 O.2       0 UNK        -0.5000 
      4 N           2.8650  -13.8984  -46.8980 N.am      1 UNK        -0.5000 
      5 CA          1.5089  -13.9901  -47.4463 C.3       1 UNK         0.1400 
      6 C6          1.0618  -12.6025  -47.9734 C.3       23 UNK        -0.0398 
      7 S7         -0.5344  -12.5572  -48.8614 S.3       23 UNK        -0.2404 
      8 C8         -0.1477  -13.4199  -50.4190 C.3       23 UNK        -0.0205 
      9 C9         -0.7673  -14.8093  -50.4449 C.ar      23 UNK        -0.0193 
     10 C10        -2.1346  -14.9542  -50.6942 C.ar      23 UNK        -0.1150 
     11 C11        -2.7227  -16.2212  -50.7235 C.ar      23 UNK        -0.0193 
     12 C12        -1.9382  -17.3505  -50.4784 C.ar      23 UNK        -0.1150 
     13 C13        -0.5690  -17.2191  -50.2333 C.ar      23 UNK        -0.0193 
     14 C14         0.0136  -15.9491  -50.2338 C.ar      23 UNK        -0.1150 
     15 C15         0.2897  -18.4482  -49.9908 C.3       23 UNK        -0.0205 
     16 S16         0.6955  -18.6624  -48.2307 S.3       23 UNK        -0.2404 
     17 C17        -0.8676  -19.3236  -47.5616 C.3       23 UNK        -0.0398 
     18 CA         -0.8995  -20.8681  -47.4868 C.3       11 UNK         0.1400 
     19 N           0.2619  -21.4387  -46.7991 N.am      11 UNK        -0.5000 
     20 C           0.5642  -22.7441  -46.7726 C.2       10 UNK         0.5000 
     21 O          -0.0761  -23.6055  -47.3736 O.2       10 UNK        -0.5000 
     22 CA          1.7410  -23.1618  -45.8756 C.3       10 UNK         0.1400 
     23 CB          3.0749  -23.0446  -46.6277 C.3       10 UNK        -0.1800 
     24 N           1.7833  -22.3683  -44.6460 N.am      10 UNK        -0.5000 
     25 C           0.9092  -22.5132  -43.6385 C.2       9 UNK         0.5000 
     26 O           0.0231  -23.3669  -43.6292 O.2       9 UNK        -0.5000 
     27 CA          1.0035  -21.5176  -42.4666 C.3       9 UNK         0.1400 
     28 CB          1.9667  -22.0422  -41.3924 C.3       9 UNK        -0.1800 
     29 N           1.4211  -20.1784  -42.8808 N.am      9 UNK        -0.5000 
     30 C           0.7165  -19.3775  -43.6960 C.2       8 UNK         0.5000 
     31 O          -0.3923  -19.6700  -44.1415 O.2       8 UNK        -0.5000 
     32 CA          1.3711  -18.0456  -44.1165 C.3       8 UNK         0.1400 
     33 CB          0.9491  -16.9494  -43.1298 C.3       8 UNK        -0.1800 
     34 N           2.8344  -18.0977  -44.1704 N.am      8 UNK        -0.5000 
     35 C           3.5639  -18.9949  -44.8523 C.2       7 UNK         0.5000 
     36 O           3.0751  -19.8323  -45.6105 O.2       7 UNK        -0.5000 
     37 CA          5.0800  -19.0407  -44.5669 C.3       7 UNK         0.1400 
     38 CB          5.8811  -18.4545  -45.7375 C.3       7 UNK        -0.1800 
     39 N           5.4801  -18.3772  -43.3209 N.am      7 UNK        -0.5000 
     40 C           5.0684  -18.7137  -42.0894 C.2       6 UNK         0.5000 
     41 O           4.3020  -19.6507  -41.8592 O.2       6 UNK        -0.5000 
     42 CA          5.5368  -17.8254  -40.9207 C.3       6 UNK         0.1400 
     43 CB          6.8540  -17.0666  -41.2002 C.3       6 UNK        -0.1800 
     44 N           4.4820  -16.8991  -40.4913 N.am      6 UNK        -0.5000 
     45 C           3.8898  -15.9465  -41.2269 C.2       5 UNK         0.5000 
     46 O           4.1519  -15.7343  -42.4144 O.2       5 UNK        -0.5000 
     47 CA          2.8206  -15.0948  -40.5185 C.3       5 UNK         0.1400 
     48 CB          3.3495  -14.4585  -39.2183 C.3       5 UNK        -0.1800 
     49 N           2.3736  -14.0385  -41.4220 N.am      5 UNK        -0.5000 
     50 C           1.1604  -13.4767  -41.4480 C.2       4 UNK         0.5000 
     51 O           0.2421  -13.8166  -40.6996 O.2       4 UNK        -0.5000 
     52 CA          0.9395  -12.3207  -42.4468 C.3       4 UNK         0.1400 
     53 CB          2.1596  -12.0168  -43.3434 C.3       4 UNK        -0.1800 
     54 N          -0.2173  -12.5916  -43.2982 N.am      4 UNK        -0.5000 
     55 C          -1.4580  -12.1274  -43.0927 C.2       3 UNK         0.5000 
     56 O          -1.7662  -11.4197  -42.1321 O.2       3 UNK        -0.5000 
     57 CA         -2.5421  -12.4610  -44.1419 C.3       3 UNK         0.1400 
     58 CB         -2.9271  -11.1993  -44.9314 C.3       3 UNK        -0.1800 
     59 N          -2.1458  -13.4931  -45.0995 N.am      3 UNK        -0.5000 
     60 C          -2.1846  -14.8122  -44.8716 C.2       2 UNK         0.5000 
     61 O          -2.6118  -15.3140  -43.8322 O.2       2 UNK        -0.5000 
     62 CA         -1.6413  -15.7271  -45.9915 C.3       2 UNK         0.1400 
     63 CB         -2.7959  -16.1743  -46.9012 C.3       2 UNK        -0.1800 
     64 N          -0.5899  -15.1330  -46.8285 N.am      2 UNK        -0.5000 
     65 C           0.5421  -14.5660  -46.3879 C.2       1 UNK         0.5000 
     66 O           0.8114  -14.4441  -45.1937 O.2       1 UNK        -0.5000 
     67 C          -2.2178  -21.3493  -46.8466 C.2       11 UNK         0.5000 
     68 O          -3.1492  -21.7056  -47.5682 O.2       11 UNK        -0.5000 
     69 N          -2.2536  -21.3885  -45.5065 N.am      12 UNK        -0.5000 
     70 CA         -3.3626  -21.9130  -44.7107 C.3       12 UNK         0.1400 
     71 CB         -3.1446  -21.5670  -43.2307 C.3       12 UNK        -0.1800 
     72 C          -3.5644  -23.4277  -44.8981 C.2       12 UNK         0.5000 
     73 O          -4.7057  -23.8681  -45.0303 O.2       12 UNK        -0.5000 
     74 N          -2.4654  -24.1951  -44.9617 N.am      13 UNK        -0.5000 
     75 CA         -2.4718  -25.6309  -45.2674 C.3       13 UNK         0.1400 
     76 CB         -1.0668  -26.2126  -45.0536 C.3       13 UNK        -0.1800 
     77 C          -2.9793  -25.9377  -46.6911 C.2       13 UNK         0.5000 
     78 O          -3.6560  -26.9455  -46.8952 O.2       13 UNK        -0.5000 
     79 N          -2.6919  -25.0304  -47.6331 N.am      14 UNK        -0.5000 
     80 CA         -3.2144  -25.0151  -49.0007 C.3       14 UNK         0.1400 
     81 CB         -2.2394  -24.2158  -49.8794 C.3       14 UNK        -0.1800 
     82 C          -4.6494  -24.4482  -49.1076 C.2       14 UNK         0.5000 
     83 O          -5.1481  -24.2843  -50.2224 O.2       14 UNK        -0.5000 
     84 N          -5.2785  -24.1277  -47.9649 N.am      15 UNK        -0.5000 
     85 CA         -6.6370  -23.5988  -47.7945 C.3       15 UNK         0.1400 
     86 CB         -7.6799  -24.6455  -48.2390 C.3       15 UNK        -0.1800 
     87 C          -6.8662  -22.2235  -48.4558 C.2       15 UNK         0.5000 
     88 O          -8.0148  -21.8612  -48.7160 O.2       15 UNK        -0.5000 
     89 N          -5.7740  -21.4913  -48.7296 N.am      16 UNK        -0.5000 
     90 CA         -5.7109  -20.2226  -49.4620 C.3       16 UNK         0.1400 
     91 CB         -6.3182  -19.0869  -48.6118 C.3       16 UNK        -0.1800 
     92 C          -6.3107  -20.3011  -50.8865 C.2       16 UNK         0.5000 
     93 O          -6.7924  -19.2921  -51.4036 O.2       16 UNK        -0.5000 
     94 N          -6.2867  -21.4960  -51.4952 N.am      17 UNK        -0.5000 
     95 CA         -6.8807  -21.7660  -52.8012 C.3       17 UNK         0.1400 
     96 CB         -7.0988  -23.2790  -52.9517 C.3       17 UNK        -0.1800 
     97 C          -6.0084  -21.2306  -53.9474 C.2       17 UNK         0.5000 
     98 O          -4.7871  -21.4078  -53.9267 O.2       17 UNK        -0.5000 
     99 N          -6.6592  -20.6333  -54.9549 N.am      18 UNK        -0.5000 
    100 CA        -6.0353  -20.1271  -56.1842 C.3       18 UNK         0.1400 
    101 CB        -7.0329  -19.2131  -56.9108 C.3       18 UNK        -0.1800 
    102 C         -5.5363  -21.2443  -57.1207 C.2       18 UNK         0.5000 
    103 O         -4.6692  -20.9994  -57.9588 O.2       18 UNK        -0.5000 
    104 N         -6.0767  -22.4571  -56.9463 N.am      19 UNK        -0.5000 
    105 CA        -5.6121  -23.6829  -57.5946 C.3       19 UNK         0.1400 
    106 CB        -6.7519  -24.7139  -57.5579 C.3       19 UNK        -0.1800 
    107 C         -4.3390  -24.2613  -56.9400 C.2       19 UNK         0.5000 
    108 O         -3.7449  -25.1813  -57.5044 O.2       19 UNK        -0.5000 
    109 N         -3.9576  -23.7400  -55.7657 N.am      20 UNK        -0.5000 
    110 CA        -2.8135  -24.1738  -54.9766 C.3       20 UNK         0.1400 
    111 CB        -3.3225  -24.7816  -53.6542 C.3       20 UNK        -0.1800 
    112 C         -1.8399  -22.9932  -54.8034 C.2       20 UNK         0.5000 
    113 O         -1.2797  -22.5275  -55.7968 O.2       20 UNK        -0.5000 
    114 N         -1.6119  -22.5630  -53.5562 N.am      21 UNK        -0.5000 
    115 CA        -0.5622  -21.6160  -53.1813 C.3       21 UNK         0.1400 
    116 CB        -0.2084  -21.8453  -51.7034 C.3       21 UNK        -0.1800 
    117 C         -0.9099  -20.1354  -53.4310 C.2       21 UNK         0.5000 
    118 O          0.0123  -19.3239  -53.5206 O.2       21 UNK        -0.5000 
    119 N         -2.2030  -19.7938  -53.5104 N.am      22 UNK        -0.5000 
    120 CA        -2.6708  -18.4226  -53.7781 C.3       22 UNK         0.1400 
    121 C         -2.5749  -18.0377  -55.2835 C.2       22 UNK         0.5000 
    122 N         -2.5893  -16.7502  -55.6030 N.am      22 UNK        -0.7600 
    123 O         -2.5061  -18.8865  -56.1693 O.2       22 UNK        -0.5000 
    124 C124       -4.0889  -18.2005  -53.1905 C.3       23 UNK        -0.0398 
    125 S125       -4.4949  -16.4574  -52.8260 S.3       23 UNK        -0.2404 
    126 C126       -4.2026  -16.3639  -51.0323 C.3       23 UNK        -0.0205 
    127 H127        5.0923  -13.5822  -45.7206 H         1 UNK         0.0600 
    128 H128        5.8237  -14.9638  -46.5418 H         1 UNK         0.0600 
    129 H129        5.0094  -15.1841  -44.9872 H         1 UNK         0.0600 
    130 H130        3.1421  -12.9845  -46.5717 H         1 UNK         0.3000 
    131 H131        1.5454  -14.6864  -48.2812 H         1 UNK         0.0600 
    132 H132        1.8218  -12.2032  -48.6468 H         1 UNK         0.0800 
    133 H133        1.0005  -11.8912  -47.1476 H         1 UNK         0.0800 
    134 H134        0.9310  -13.4714  -50.5739 H         1 UNK         0.0800 
    135 H135       -0.5439  -12.8353  -51.2506 H         1 UNK         0.0800 
    136 H136       -2.7411  -14.0775  -50.8745 H         1 UNK         0.1150 
    137 H137       -2.3898  -18.3320  -50.4986 H         1 UNK         0.1150 
    138 H138        1.0778  -15.8588  -50.0720 H         1 UNK         0.1150 
    139 H139       -0.2131  -19.3413  -50.3577 H         1 UNK         0.0800 
    140 H140        1.2152  -18.3616  -50.5618 H         1 UNK         0.0800 
    141 H141       -1.6996  -18.9682  -48.1686 H         1 UNK         0.0800 
    142 H142       -1.0091  -18.8855  -46.5734 H         1 UNK         0.0800 
    143 H143       -0.8820  -21.2467  -48.5107 H         1 UNK         0.0600 
    144 H144        0.8559  -20.7911  -46.2990 H         1 UNK         0.3000 
    145 H145        1.6021  -24.2100  -45.6032 H         1 UNK         0.0600 
    146 H146        3.9147  -23.3210  -45.9901 H         1 UNK         0.0600 
    147 H147        3.0894  -23.7095  -47.4921 H         1 UNK         0.0600 
    148 H148        3.2493  -22.0333  -46.9952 H         1 UNK         0.0600 
    149 H149        2.4344  -21.5926  -44.6306 H         1 UNK         0.3000 
    150 H150        0.0105  -21.4335  -42.0212 H         1 UNK         0.0600 
    151 H151        1.6532  -23.0227  -41.0319 H         1 UNK         0.0600 
    152 H152        2.0001  -21.3739  -40.5317 H         1 UNK         0.0600 
    153 H153        2.9822  -22.1424  -41.7776 H         1 UNK         0.0600 
    154 H154        2.3367  -19.8753  -42.5660 H         1 UNK         0.3000 
    155 H155        1.0158  -17.7834  -45.1148 H         1 UNK         0.0600 
    156 H156        1.1700  -17.2299  -42.0998 H         1 UNK         0.0600 
    157 H157       -0.1220  -16.7552  -43.1931 H         1 UNK         0.0600 
    158 H158        1.4641  -16.0127  -43.3334 H         1 UNK         0.0600 
    159 H159        3.3302  -17.4288  -43.5941 H         1 UNK         0.3000 
    160 H160        5.3484  -20.0948  -44.4723 H         1 UNK         0.0600 
    161 H161        5.6887  -17.3903  -45.8613 H         1 UNK         0.0600 
    162 H162        5.6175  -18.9447  -46.6757 H         1 UNK         0.0600 
    163 H163        6.9528  -18.5887  -45.5905 H         1 UNK         0.0600 
    164 H164        6.0636  -17.5586  -43.4157 H         1 UNK         0.3000 
    165 H165        5.7208  -18.4989  -40.0822 H         1 UNK         0.0600 
    166 H166        6.7494  -16.3163  -41.9843 H         1 UNK         0.0600 
    167 H167        7.2016  -16.5539  -40.3034 H         1 UNK         0.0600 
    168 H168        7.6451  -17.7541  -41.5027 H         1 UNK         0.0600 
    169 H169        4.1726  -17.0223  -39.5375 H         1 UNK         0.3000 
    170 H170        1.9818  -15.7527  -40.2835 H         1 UNK         0.0600 
    171 H171        4.2275  -13.8389  -39.4050 H         1 UNK         0.0600 
    172 H172        2.5921  -13.8291  -38.7507 H         1 UNK         0.0600 
    173 H173        3.6286  -15.2154  -38.4851 H         1 UNK         0.0600 
    174 H174        3.0531  -13.7822  -42.1265 H         1 UNK         0.3000 
    175 H175        0.7537  -11.4268  -41.8481 H         1 UNK         0.0600 
    176 H176        3.0150  -11.6949  -42.7483 H         1 UNK         0.0600 
    177 H177        1.9378  -11.2096  -44.0416 H         1 UNK         0.0600 
    178 H178        2.4686  -12.8825  -43.9295 H         1 UNK         0.0600 
    179 H179       -0.0465  -13.2333  -44.0684 H         1 UNK         0.3000 
    180 H180       -3.4252  -12.8040  -43.5990 H         1 UNK         0.0600 
    181 H181       -3.7370  -11.4040  -45.6319 H         1 UNK         0.0600 
    182 H182       -2.0825  -10.8075  -45.4994 H         1 UNK         0.0600 
    183 H183       -3.2700  -10.4074  -44.2643 H         1 UNK         0.0600 
    184 H184       -1.7796  -13.1728  -45.9840 H         1 UNK         0.3000 
    185 H185       -1.2143  -16.6104  -45.5139 H         1 UNK         0.0600 
    186 H186       -2.4501  -16.8505  -47.6795 H         1 UNK         0.0600 
    187 H187       -3.5646  -16.6987  -46.3322 H         1 UNK         0.0600 
    188 H188       -3.2711  -15.3244  -47.3929 H         1 UNK         0.0600 
    189 H189       -0.7514  -15.1676  -47.8257 H         1 UNK         0.3000 
    190 H190       -1.4675  -21.0039  -44.9896 H         1 UNK         0.3000 
    191 H191       -4.2745  -21.4133  -45.0445 H         1 UNK         0.0600 
    192 H192       -3.9890  -21.8978  -42.6250 H         1 UNK         0.0600 
    193 H193       -3.0424  -20.4910  -43.0880 H         1 UNK         0.0600 
    194 H194       -2.2492  -22.0435  -42.8325 H         1 UNK         0.0600 
    195 H195       -1.5613  -23.7757  -44.7688 H         1 UNK         0.3000 
    196 H196       -3.1502  -26.1174  -44.5636 H         1 UNK         0.0600 
    197 H197       -0.3372  -25.7611  -45.7254 H         1 UNK         0.0600 
    198 H198       -0.7249  -26.0535  -44.0308 H         1 UNK         0.0600 
    199 H199       -1.0581  -27.2879  -45.2357 H         1 UNK         0.0600 
    200 H200       -2.0697  -24.2682  -47.3876 H         1 UNK         0.3000 
    201 H201       -3.2469  -26.0397  -49.3759 H         1 UNK         0.0600 
    202 H202       -2.5624  -24.2042  -50.9183 H         1 UNK         0.0600 
    203 H203       -2.1615  -23.1803  -49.5508 H         1 UNK         0.0600 
    204 H204       -1.2396  -24.6496  -49.8551 H         1 UNK         0.0600 
    205 H205       -4.7700  -24.2528  -47.0980 H         1 UNK         0.3000 
    206 H206       -6.7687  -23.4389  -46.7240 H         1 UNK         0.0600 
    207 H207       -7.5020  -25.6075  -47.7582 H         1 UNK         0.0600 
    208 H208       -8.6897  -24.3332  -47.9704 H         1 UNK         0.0600 
    209 H209       -7.6625  -24.8008  -49.3183 H         1 UNK         0.0600 
    210 H210       -4.8742  -21.8509  -48.4204 H         1 UNK         0.3000 
    211 H211       -4.6508  -20.0029  -49.5962 H         1 UNK         0.0600 
    212 H212       -5.8364  -19.0280  -47.6358 H         1 UNK         0.0600 
    213 H213       -7.3867  -19.2310  -48.4500 H         1 UNK         0.0600 
    214 H214       -6.1937  -18.1164  -49.0909 H         1 UNK         0.0600 
    215 H215       -5.8617  -22.2833  -51.0201 H         1 UNK         0.3000 
    216 H216       -7.8574  -21.2788  -52.8409 H         1 UNK         0.0600 
    217 H217       -7.5679  -23.5173  -53.9070 H         1 UNK         0.0600 
    218 H218       -7.7501  -23.6613  -52.1653 H         1 UNK         0.0600 
    219 H219       -6.1607  -23.8309  -52.8997 H         1 UNK         0.0600 
    220 H220       -7.6615  -20.5239  -54.8906 H         1 UNK         0.3000 
    221 H221       -5.1651  -19.5303  -55.9119 H         1 UNK         0.0600 
    222 H222       -7.3296  -18.3743  -56.2808 H         1 UNK         0.0600 
    223 H223       -7.9351  -19.7522  -57.2024 H         1 UNK         0.0600 
    224 H224       -6.5917  -18.7962  -57.8171 H         1 UNK         0.0600 
    225 H225       -6.8041  -22.5606  -56.2550 H         1 UNK         0.3000 
    226 H226       -5.3779  -23.4668  -58.6391 H         1 UNK         0.0600 
    227 H227       -7.6436  -24.3345  -58.0573 H         1 UNK         0.0600 
    228 H228       -6.4640  -25.6345  -58.0672 H         1 UNK         0.0600 
    229 H229       -7.0244  -24.9764  -56.5349 H         1 UNK         0.0600 
    230 H230       -4.4550  -22.9386  -55.3979 H         1 UNK         0.3000 
    231 H231       -2.2572  -24.9514  -55.5034 H         1 UNK         0.0600 
    232 H232       -3.8431  -24.0483  -53.0378 H         1 UNK         0.0600 
    233 H233       -2.4984  -25.1948  -53.0719 H         1 UNK         0.0600 
    234 H234       -4.0167  -25.6003  -53.8442 H         1 UNK         0.0600 
    235 H235       -2.1391  -22.9764  -52.8023 H         1 UNK         0.3000 
    236 H236        0.3277  -21.8419  -53.7730 H         1 UNK         0.0600 
    237 H237        0.0505  -22.8871  -51.5138 H         1 UNK         0.0600 
    238 H238        0.6550  -21.2462  -51.4127 H         1 UNK         0.0600 
    239 H239       -1.0369  -21.5787  -51.0467 H         1 UNK         0.0600 
    240 H240       -2.9090  -20.5215  -53.5205 H         1 UNK         0.3000 
    241 H241       -1.9920  -17.7504  -53.2504 H         1 UNK         0.0600 
    242 H242       -2.6817  -16.0368  -54.8951 H         1 UNK         0.3800 
    243 H243       -2.5323  -16.4835  -56.5734 H         1 UNK         0.3800 
    244 H244       -4.1975  -18.7712  -52.2691 H         1 UNK         0.0800 
    245 H245       -4.8547  -18.5851  -53.8606 H         1 UNK         0.0800 
    246 H246       -4.7456  -15.5069  -50.6310 H         1 UNK         0.0800 
    247 H247       -4.6163  -17.2423  -50.5383 H         1 UNK         0.0800 
@<TRIPOS>BOND
     1    1    2 1    
     2    1  127 1    
     3    1  128 1    
     4    1  129 1    
     5    2    3 2    
     6    2    4 am   BACKBONE|DICT|INTERRES
     7    4    5 1    
     8    4  130 1    
     9    5    6 1    
    10    5   65 1    
    11    5  131 1    
    12    6    7 1    
    13    6  132 1    
    14    6  133 1    
    15    7    8 1    
    16    8    9 1    
    17    8  134 1    
    18    8  135 1    
    19    9   10 ar   
    20    9   14 ar   
    21   10   11 ar   
    22   10  136 1    
    23   11   12 ar   
    24   11  126 1    
    25   12   13 ar   
    26   12  137 1    
    27   13   14 ar   
    28   13   15 1    
    29   14  138 1    
    30   15   16 1    
    31   15  139 1    
    32   15  140 1    
    33   16   17 1    
    34   17   18 1    
    35   17  141 1    
    36   17  142 1    
    37   18   19 1    
    38   18   67 1    
    39   18  143 1    
    40   19   20 am   BACKBONE|DICT|INTERRES
    41   19  144 1    
    42   20   21 2    
    43   20   22 1    
    44   22   23 1    
    45   22   24 1    
    46   22  145 1    
    47   23  146 1    
    48   23  147 1    
    49   23  148 1    
    50   24   25 am   BACKBONE|DICT|INTERRES
    51   24  149 1    
    52   25   26 2    
    53   25   27 1    
    54   27   28 1    
    55   27   29 1    
    56   27  150 1    
    57   28  151 1    
    58   28  152 1    
    59   28  153 1    
    60   29   30 am   BACKBONE|DICT|INTERRES
    61   29  154 1    
    62   30   31 2    
    63   30   32 1    
    64   32   33 1    
    65   32   34 1    
    66   32  155 1    
    67   33  156 1    
    68   33  157 1    
    69   33  158 1    
    70   34   35 am   BACKBONE|DICT|INTERRES
    71   34  159 1    
    72   35   36 2    
    73   35   37 1    
    74   37   38 1    
    75   37   39 1    
    76   37  160 1    
    77   38  161 1    
    78   38  162 1    
    79   38  163 1    
    80   39   40 am   BACKBONE|DICT|INTERRES
    81   39  164 1    
    82   40   41 2    
    83   40   42 1    
    84   42   43 1    
    85   42   44 1    
    86   42  165 1    
    87   43  166 1    
    88   43  167 1    
    89   43  168 1    
    90   44   45 am   BACKBONE|DICT|INTERRES
    91   44  169 1    
    92   45   46 2    
    93   45   47 1    
    94   47   48 1    
    95   47   49 1    
    96   47  170 1    
    97   48  171 1    
    98   48  172 1    
    99   48  173 1    
   100   49   50 am   BACKBONE|DICT|INTERRES
   101   49  174 1    
   102   50   51 2    
   103   50   52 1    
   104   52   53 1    
   105   52   54 1    
   106   52  175 1    
   107   53  176 1    
   108   53  177 1    
   109   53  178 1    
   110   54   55 am   BACKBONE|DICT|INTERRES
   111   54  179 1    
   112   55   56 2    
   113   55   57 1    
   114   57   58 1    
   115   57   59 1    
   116   57  180 1    
   117   58  181 1    
   118   58  182 1    
   119   58  183 1    
   120   59   60 am   BACKBONE|DICT|INTERRES
   121   59  184 1    
   122   60   61 2    
   123   60   62 1    
   124   62   63 1    
   125   62   64 1    
   126   62  185 1    
   127   63  186 1    
   128   63  187 1    
   129   63  188 1    
   130   64   65 am   BACKBONE|DICT|INTERRES
   131   64  189 1    
   132   65   66 2    
   133   67   68 2    
   134   67   69 am   BACKBONE|DICT|INTERRES
   135   69   70 1    
   136   69  190 1    
   137   70   71 1    
   138   70   72 1    
   139   70  191 1    
   140   71  192 1    
   141   71  193 1    
   142   71  194 1    
   143   72   73 2    
   144   72   74 am   BACKBONE|DICT|INTERRES
   145   74   75 1    
   146   74  195 1    
   147   75   76 1    
   148   75   77 1    
   149   75  196 1    
   150   76  197 1    
   151   76  198 1    
   152   76  199 1    
   153   77   78 2    
   154   77   79 am   BACKBONE|DICT|INTERRES
   155   79   80 1    
   156   79  200 1    
   157   80   81 1    
   158   80   82 1    
   159   80  201 1    
   160   81  202 1    
   161   81  203 1    
   162   81  204 1    
   163   82   83 2    
   164   82   84 am   BACKBONE|DICT|INTERRES
   165   84   85 1    
   166   84  205 1    
   167   85   86 1    
   168   85   87 1    
   169   85  206 1    
   170   86  207 1    
   171   86  208 1    
   172   86  209 1    
   173   87   88 2    
   174   87   89 am   BACKBONE|DICT|INTERRES
   175   89   90 1    
   176   89  210 1    
   177   90   91 1    
   178   90   92 1    
   179   90  211 1    
   180   91  212 1    
   181   91  213 1    
   182   91  214 1    
   183   92   93 2    
   184   92   94 am   BACKBONE|DICT|INTERRES
   185   94   95 1    
   186   94  215 1    
   187   95   96 1    
   188   95   97 1    
   189   95  216 1    
   190   96  217 1    
   191   96  218 1    
   192   96  219 1    
   193   97   98 2    
   194   97   99 am   BACKBONE|DICT|INTERRES
   195   99  100 1    
   196   99  220 1    
   197  100  101 1    
   198  100  102 1    
   199  100  221 1    
   200  101  222 1    
   201  101  223 1    
   202  101  224 1    
   203  102  103 2    
   204  102  104 am   BACKBONE|DICT|INTERRES
   205  104  105 1    
   206  104  225 1    
   207  105  106 1    
   208  105  107 1    
   209  105  226 1    
   210  106  227 1    
   211  106  228 1    
   212  106  229 1    
   213  107  108 2    
   214  107  109 am   BACKBONE|DICT|INTERRES
   215  109  110 1    
   216  109  230 1    
   217  110  111 1    
   218  110  112 1    
   219  110  231 1    
   220  111  232 1    
   221  111  233 1    
   222  111  234 1    
   223  112  113 2    
   224  112  114 am   BACKBONE|DICT|INTERRES
   225  114  115 1    
   226  114  235 1    
   227  115  116 1    
   228  115  117 1    
   229  115  236 1    
   230  116  237 1    
   231  116  238 1    
   232  116  239 1    
   233  117  118 2    
   234  117  119 am   BACKBONE|DICT|INTERRES
   235  119  120 1    
   236  119  240 1    
   237  120  121 1    
   238  120  124 1    
   239  120  241 1    
   240  121  122 am   BACKBONE|DICT|INTERRES
   241  121  123 2    
   242  122  242 1    
   243  122  243 1    
   244  124  125 1    
   245  124  244 1    
   246  124  245 1    
   247  125  126 1    
   248  126  246 1    
   249  126  247 1    
@<TRIPOS>SUBSTRUCTURE
     1 UNK         1 GROUP             0       ****    0 ROOT    
