@<TRIPOS>MOLECULE
3R540
247   249    1
SMALL
USER_CHARGES


@<TRIPOS>ATOM
      1 CA         -0.1571  -10.0144  -50.4267 C.3       0 UNK        -0.1800 
      2 C           0.2530  -11.0566  -49.3972 C.2       0 UNK         0.5000 
      3 O          -0.4076  -11.1950  -48.3670 O.2       0 UNK        -0.5000 
      4 N           1.3271  -11.8086  -49.6775 N.am      1 UNK        -0.5000 
      5 CA          1.8893  -12.8457  -48.7995 C.3       1 UNK         0.1400 
      6 C6          3.2830  -13.3353  -49.2619 C.3       23 UNK        -0.0398 
      7 S7          3.3504  -13.9335  -50.9890 S.3       23 UNK        -0.2404 
      8 C8          3.7710  -15.6974  -50.7967 C.3       23 UNK        -0.0205 
      9 C9          2.5879  -16.5958  -51.1213 C.ar      23 UNK        -0.0193 
     10 C10         2.2468  -16.8349  -52.4562 C.ar      23 UNK        -0.1150 
     11 C11         1.1717  -17.6657  -52.7860 C.ar      23 UNK        -0.0193 
     12 C12         0.4275  -18.2465  -51.7530 C.ar      23 UNK        -0.1150 
     13 C13         0.7725  -18.0390  -50.4150 C.ar      23 UNK        -0.0193 
     14 C14         1.8517  -17.2074  -50.1023 C.ar      23 UNK        -0.1150 
     15 C15        -0.0317  -18.7192  -49.3186 C.3       23 UNK        -0.0205 
     16 S16         0.4460  -20.4613  -49.1449 S.3       23 UNK        -0.2404 
     17 C17        -0.9749  -21.0919  -48.2006 C.3       23 UNK        -0.0398 
     18 CA         -0.6281  -22.4041  -47.4650 C.3       11 UNK         0.1400 
     19 N           0.2195  -22.1780  -46.2912 N.am      11 UNK        -0.5000 
     20 C           0.8183  -23.1531  -45.5939 C.2       10 UNK         0.5000 
     21 O           0.7609  -24.3433  -45.8984 O.2       10 UNK        -0.5000 
     22 CA          1.5523  -22.7402  -44.3071 C.3       10 UNK         0.1400 
     23 CB          2.9350  -22.1522  -44.6252 C.3       10 UNK        -0.1800 
     24 N           0.7781  -21.7900  -43.5091 N.am      10 UNK        -0.5000 
     25 C          -0.4143  -22.0539  -42.9569 C.2       9 UNK         0.5000 
     26 O          -0.9636  -23.1534  -43.0122 O.2       9 UNK        -0.5000 
     27 CA         -1.1395  -20.8840  -42.2697 C.3       9 UNK         0.1400 
     28 CB         -0.6211  -20.6775  -40.8388 C.3       9 UNK        -0.1800 
     29 N          -1.0280  -19.6342  -43.0221 N.am      9 UNK        -0.5000 
     30 C          -1.5730  -19.4190  -44.2285 C.2       8 UNK         0.5000 
     31 O          -2.2346  -20.2557  -44.8420 O.2       8 UNK        -0.5000 
     32 CA         -1.2871  -18.0508  -44.8736 C.3       8 UNK         0.1400 
     33 CB         -2.2182  -16.9797  -44.2861 C.3       8 UNK        -0.1800 
     34 N           0.1071  -17.6356  -44.7045 N.am      8 UNK        -0.5000 
     35 C           1.1585  -18.3095  -45.1944 C.2       7 UNK         0.5000 
     36 O           1.0557  -19.3290  -45.8772 O.2       7 UNK        -0.5000 
     37 CA          2.5570  -17.8033  -44.7976 C.3       7 UNK         0.1400 
     38 CB          2.9543  -16.5666  -45.6135 C.3       7 UNK        -0.1800 
     39 N           2.6639  -17.4962  -43.3710 N.am      7 UNK        -0.5000 
     40 C           2.5402  -18.3826  -42.3758 C.2       6 UNK         0.5000 
     41 O           2.3241  -19.5785  -42.5622 O.2       6 UNK        -0.5000 
     42 CA          2.6291  -17.8578  -40.9284 C.3       6 UNK         0.1400 
     43 CB          4.0923  -17.7452  -40.4599 C.3       6 UNK        -0.1800 
     44 N           1.8760  -16.6174  -40.6948 N.am      6 UNK        -0.5000 
     45 C           2.1198  -15.3904  -41.1725 C.2       5 UNK         0.5000 
     46 O           3.1067  -15.0924  -41.8502 O.2       5 UNK        -0.5000 
     47 CA          1.0533  -14.3233  -40.8650 C.3       5 UNK         0.1400 
     48 CB          1.4553  -13.4986  -39.6330 C.3       5 UNK        -0.1800 
     49 N           0.8326  -13.4198  -41.9953 N.am      5 UNK        -0.5000 
     50 C           0.4417  -13.7940  -43.2210 C.2       4 UNK         0.5000 
     51 O           0.1924  -14.9599  -43.5405 O.2       4 UNK        -0.5000 
     52 CA          0.3562  -12.6686  -44.2654 C.3       4 UNK         0.1400 
     53 CB          1.7279  -12.4244  -44.9113 C.3       4 UNK        -0.1800 
     54 N          -0.6258  -12.9627  -45.3083 N.am      4 UNK        -0.5000 
     55 C          -1.9504  -12.8254  -45.1527 C.2       3 UNK         0.5000 
     56 O          -2.4674  -12.4391  -44.1029 O.2       3 UNK        -0.5000 
     57 CA         -2.8599  -13.1359  -46.3587 C.3       3 UNK         0.1400 
     58 CB         -3.6530  -11.8855  -46.7747 C.3       3 UNK        -0.1800 
     59 N          -2.1073  -13.6041  -47.5217 N.am      3 UNK        -0.5000 
     60 C          -2.0567  -14.8752  -47.9424 C.2       2 UNK         0.5000 
     61 O          -2.6599  -15.8009  -47.4029 O.2       2 UNK        -0.5000 
     62 CA         -1.1652  -15.1772  -49.1622 C.3       2 UNK         0.1400 
     63 CB         -1.9979  -15.2765  -50.4460 C.3       2 UNK        -0.1800 
     64 N          -0.0864  -14.2117  -49.3658 N.am      2 UNK        -0.5000 
     65 C           0.9282  -14.0188  -48.5130 C.2       1 UNK         0.5000 
     66 O           1.0854  -14.6868  -47.4935 O.2       1 UNK        -0.5000 
     67 C          -1.9041  -23.1962  -47.1157 C.2       11 UNK         0.5000 
     68 O          -2.2769  -24.0962  -47.8684 O.2       11 UNK        -0.5000 
     69 N          -2.5426  -22.8832  -45.9800 N.am      12 UNK        -0.5000 
     70 CA         -3.6940  -23.6237  -45.4615 C.3       12 UNK         0.1400 
     71 CB         -4.2956  -22.8882  -44.2561 C.3       12 UNK        -0.1800 
     72 C          -3.3511  -25.0869  -45.1217 C.2       12 UNK         0.5000 
     73 O          -4.0864  -25.9869  -45.5278 O.2       12 UNK        -0.5000 
     74 N          -2.2120  -25.3032  -44.4481 N.am      13 UNK        -0.5000 
     75 CA         -1.6655  -26.6245  -44.1231 C.3       13 UNK         0.1400 
     76 CB         -0.4628  -26.4624  -43.1816 C.3       13 UNK        -0.1800 
     77 C          -1.2761  -27.4478  -45.3675 C.2       13 UNK         0.5000 
     78 O          -1.4557  -28.6658  -45.3708 O.2       13 UNK        -0.5000 
     79 N          -0.7927  -26.7660  -46.4147 N.am      14 UNK        -0.5000 
     80 CA         -0.4778  -27.3321  -47.7294 C.3       14 UNK         0.1400 
     81 CB          0.4904  -26.3853  -48.4576 C.3       14 UNK        -0.1800 
     82 C          -1.7204  -27.6159  -48.6026 C.2       14 UNK         0.5000 
     83 O          -1.5625  -28.1192  -49.7155 O.2       14 UNK        -0.5000 
     84 N          -2.9203  -27.2873  -48.0999 N.am      15 UNK        -0.5000 
     85 CA         -4.2335  -27.4454  -48.7324 C.3       15 UNK         0.1400 
     86 CB         -4.5314  -28.9226  -49.0663 C.3       15 UNK        -0.1800 
     87 C          -4.4700  -26.4934  -49.9239 C.2       15 UNK         0.5000 
     88 O          -5.3343  -26.7642  -50.7590 O.2       15 UNK        -0.5000 
     89 N          -3.7460  -25.3654  -49.9545 N.am      16 UNK        -0.5000 
     90 CA         -3.9846  -24.2451  -50.8688 C.3       16 UNK         0.1400 
     91 CB         -2.6493  -23.5509  -51.1849 C.3       16 UNK        -0.1800 
     92 C          -5.0128  -23.2462  -50.2963 C.2       16 UNK         0.5000 
     93 O          -5.3669  -22.2883  -50.9819 O.2       16 UNK        -0.5000 
     94 N          -5.4665  -23.4739  -49.0514 N.am      17 UNK        -0.5000 
     95 CA         -6.5503  -22.7738  -48.3454 C.3       17 UNK         0.1400 
     96 CB         -7.9022  -23.0781  -49.0234 C.3       17 UNK        -0.1800 
     97 C          -6.3170  -21.2590  -48.1555 C.2       17 UNK         0.5000 
     98 O          -7.2814  -20.5024  -48.0336 O.2       17 UNK        -0.5000 
     99 N          -5.0393  -20.8493  -48.1477 N.am      18 UNK        -0.5000 
    100 CA        -4.5574  -19.4632  -48.1027 C.3       18 UNK         0.1400 
    101 CB        -4.9043  -18.8017  -46.7527 C.3       18 UNK        -0.1800 
    102 C         -4.9944  -18.6183  -49.3226 C.2       18 UNK         0.5000 
    103 O         -5.1132  -17.3972  -49.2126 O.2       18 UNK        -0.5000 
    104 N         -5.2215  -19.2737  -50.4715 N.am      19 UNK        -0.5000 
    105 CA        -5.5079  -18.6205  -51.7477 C.3       19 UNK         0.1400 
    106 CB        -6.0249  -19.6670  -52.7470 C.3       19 UNK        -0.1800 
    107 C         -4.2589  -17.9222  -52.3130 C.2       19 UNK         0.5000 
    108 O         -3.1371  -18.3547  -52.0429 O.2       19 UNK        -0.5000 
    109 N         -4.4849  -16.8789  -53.1187 N.am      20 UNK        -0.5000 
    110 CA        -3.4404  -16.0990  -53.7889 C.3       20 UNK         0.1400 
    111 CB        -3.8375  -14.6141  -53.7405 C.3       20 UNK        -0.1800 
    112 C         -3.1933  -16.5505  -55.2427 C.2       20 UNK         0.5000 
    113 O         -2.3266  -15.9787  -55.9039 O.2       20 UNK        -0.5000 
    114 N         -3.9593  -17.5437  -55.7204 N.am      21 UNK        -0.5000 
    115 CA        -3.9197  -18.0693  -57.0879 C.3       21 UNK         0.1400 
    116 CB        -5.0491  -19.0915  -57.3076 C.3       21 UNK        -0.1800 
    117 C         -2.5455  -18.6039  -57.5583 C.2       21 UNK         0.5000 
    118 O         -2.1133  -18.2065  -58.6394 O.2       21 UNK        -0.5000 
    119 N         -1.8207  -19.4490  -56.8109 N.am      22 UNK        -0.5000 
    120 CA        -2.1752  -20.1865  -55.5843 C.3       22 UNK         0.1400 
    121 C         -2.1540  -21.7325  -55.7747 C.2       22 UNK         0.5000 
    122 N         -1.9627  -22.2534  -56.9814 N.am      22 UNK        -0.7600 
    123 O         -2.3467  -22.4778  -54.8189 O.2       22 UNK        -0.5000 
    124 C124       -1.3300  -19.7289  -54.3660 C.3       23 UNK        -0.0398 
    125 S125        0.4746  -19.6548  -54.6575 S.3       23 UNK        -0.2404 
    126 C126        0.8321  -17.9066  -54.2571 C.3       23 UNK        -0.0205 
    127 H127       -1.1708  -10.2111  -50.7756 H         1 UNK         0.0600 
    128 H128        0.5073  -10.0150  -51.2912 H         1 UNK         0.0600 
    129 H129       -0.1356   -9.0199  -49.9812 H         1 UNK         0.0600 
    130 H130        1.8184  -11.6696  -50.5498 H         1 UNK         0.3000 
    131 H131        2.0437  -12.3612  -47.8346 H         1 UNK         0.0600 
    132 H132        3.9878  -12.5063  -49.1866 H         1 UNK         0.0800 
    133 H133        3.6669  -14.0921  -48.5760 H         1 UNK         0.0800 
    134 H134        4.1506  -15.9076  -49.7963 H         1 UNK         0.0800 
    135 H135        4.5910  -15.9316  -51.4772 H         1 UNK         0.0800 
    136 H136        2.8251  -16.3675  -53.2411 H         1 UNK         0.1150 
    137 H137       -0.4146  -18.8823  -51.9786 H         1 UNK         0.1150 
    138 H138        2.1160  -17.0363  -49.0683 H         1 UNK         0.1150 
    139 H139        0.1138  -18.2195  -48.3595 H         1 UNK         0.0800 
    140 H140       -1.0948  -18.6473  -49.5560 H         1 UNK         0.0800 
    141 H141       -1.7895  -21.2342  -48.9123 H         1 UNK         0.0800 
    142 H142       -1.3079  -20.3344  -47.4893 H         1 UNK         0.0800 
    143 H143       -0.0625  -23.0350  -48.1540 H         1 UNK         0.0600 
    144 H144        0.3597  -21.2128  -46.0072 H         1 UNK         0.3000 
    145 H145        1.6974  -23.6391  -43.7045 H         1 UNK         0.0600 
    146 H146        3.4866  -21.9280  -43.7121 H         1 UNK         0.0600 
    147 H147        3.5345  -22.8561  -45.2037 H         1 UNK         0.0600 
    148 H148        2.8600  -21.2315  -45.2039 H         1 UNK         0.0600 
    149 H149        1.1953  -20.8747  -43.3635 H         1 UNK         0.3000 
    150 H150       -2.1989  -21.1410  -42.2093 H         1 UNK         0.0600 
    151 H151       -0.7473  -21.5848  -40.2467 H         1 UNK         0.0600 
    152 H152       -1.1660  -19.8811  -40.3318 H         1 UNK         0.0600 
    153 H153        0.4386  -20.4238  -40.8230 H         1 UNK         0.0600 
    154 H154       -0.4656  -18.9034  -42.6142 H         1 UNK         0.3000 
    155 H155       -1.4882  -18.1320  -45.9439 H         1 UNK         0.0600 
    156 H156       -2.0667  -16.0174  -44.7742 H         1 UNK         0.0600 
    157 H157       -3.2650  -17.2521  -44.4241 H         1 UNK         0.0600 
    158 H158       -2.0503  -16.8385  -43.2178 H         1 UNK         0.0600 
    159 H159        0.2652  -16.7715  -44.1914 H         1 UNK         0.3000 
    160 H160        3.2698  -18.5996  -45.0215 H         1 UNK         0.0600 
    161 H161        3.9885  -16.2815  -45.4212 H         1 UNK         0.0600 
    162 H162        2.3218  -15.7129  -45.3703 H         1 UNK         0.0600 
    163 H163        2.8599  -16.7541  -46.6836 H         1 UNK         0.0600 
    164 H164        2.8352  -16.5283  -43.1154 H         1 UNK         0.3000 
    165 H165        2.1500  -18.6088  -40.2984 H         1 UNK         0.0600 
    166 H166        4.1502  -17.4110  -39.4241 H         1 UNK         0.0600 
    167 H167        4.5910  -18.7134  -40.5176 H         1 UNK         0.0600 
    168 H168        4.6685  -17.0497  -41.0704 H         1 UNK         0.0600 
    169 H169        1.0296  -16.7427  -40.1571 H         1 UNK         0.3000 
    170 H170        0.1051  -14.8230  -40.6561 H         1 UNK         0.0600 
    171 H171        1.6028  -14.1407  -38.7636 H         1 UNK         0.0600 
    172 H172        2.3859  -12.9544  -39.8001 H         1 UNK         0.0600 
    173 H173        0.6836  -12.7739  -39.3727 H         1 UNK         0.0600 
    174 H174        1.0520  -12.4482  -41.8327 H         1 UNK         0.3000 
    175 H175        0.0552  -11.7494  -43.7579 H         1 UNK         0.0600 
    176 H176        2.0882  -13.3048  -45.4425 H         1 UNK         0.0600 
    177 H177        1.6864  -11.5932  -45.6151 H         1 UNK         0.0600 
    178 H178        2.4758  -12.1722  -44.1585 H         1 UNK         0.0600 
    179 H179       -0.2732  -13.3752  -46.1609 H         1 UNK         0.3000 
    180 H180       -3.5733  -13.8960  -46.0340 H         1 UNK         0.0600 
    181 H181       -2.9914  -11.0744  -47.0816 H         1 UNK         0.0600 
    182 H182       -4.2673  -11.5163  -45.9525 H         1 UNK         0.0600 
    183 H183       -4.3236  -12.1036  -47.6060 H         1 UNK         0.0600 
    184 H184       -1.5554  -12.9007  -48.0017 H         1 UNK         0.3000 
    185 H185       -0.7072  -16.1447  -48.9755 H         1 UNK         0.0600 
    186 H186       -2.8017  -16.0053  -50.3346 H         1 UNK         0.0600 
    187 H187       -2.4523  -14.3203  -50.7068 H         1 UNK         0.0600 
    188 H188       -1.3798  -15.6007  -51.2831 H         1 UNK         0.0600 
    189 H189       -0.1465  -13.6200  -50.1810 H         1 UNK         0.3000 
    190 H190       -2.2254  -22.0876  -45.4322 H         1 UNK         0.3000 
    191 H191       -4.4507  -23.6421  -46.2465 H         1 UNK         0.0600 
    192 H192       -3.5898  -22.8204  -43.4291 H         1 UNK         0.0600 
    193 H193       -5.1831  -23.4043  -43.8881 H         1 UNK         0.0600 
    194 H194       -4.5954  -21.8747  -44.5239 H         1 UNK         0.0600 
    195 H195       -1.6834  -24.5006  -44.1138 H         1 UNK         0.3000 
    196 H196       -2.4401  -27.1805  -43.5910 H         1 UNK         0.0600 
    197 H197       -0.0522  -27.4328  -42.9001 H         1 UNK         0.0600 
    198 H198       -0.7483  -25.9505  -42.2624 H         1 UNK         0.0600 
    199 H199        0.3384  -25.8886  -43.6479 H         1 UNK         0.0600 
    200 H200       -0.6010  -25.7761  -46.2970 H         1 UNK         0.3000 
    201 H201        0.0325  -28.2854  -47.5791 H         1 UNK         0.0600 
    202 H202        1.3915  -26.2124  -47.8691 H         1 UNK         0.0600 
    203 H203        0.0293  -25.4185  -48.6586 H         1 UNK         0.0600 
    204 H204        0.8058  -26.8028  -49.4144 H         1 UNK         0.0600 
    205 H205       -2.9404  -26.8585  -47.1824 H         1 UNK         0.3000 
    206 H206       -4.9554  -27.1414  -47.9733 H         1 UNK         0.0600 
    207 H207       -4.3493  -29.5661  -48.2056 H         1 UNK         0.0600 
    208 H208       -5.5754  -29.0548  -49.3526 H         1 UNK         0.0600 
    209 H209       -3.9212  -29.2853  -49.8936 H         1 UNK         0.0600 
    210 H210       -3.0717  -25.1924  -49.2126 H         1 UNK         0.3000 
    211 H211       -4.3922  -24.6213  -51.8092 H         1 UNK         0.0600 
    212 H212       -2.1882  -23.1247  -50.2963 H         1 UNK         0.0600 
    213 H213       -2.7894  -22.7400  -51.9012 H         1 UNK         0.0600 
    214 H214       -1.9390  -24.2503  -51.6258 H         1 UNK         0.0600 
    215 H215       -5.0736  -24.2683  -48.5685 H         1 UNK         0.3000 
    216 H216       -6.5872  -23.1981  -47.3414 H         1 UNK         0.0600 
    217 H217       -8.7352  -22.6948  -48.4329 H         1 UNK         0.0600 
    218 H218       -8.0546  -24.1516  -49.1351 H         1 UNK         0.0600 
    219 H219       -7.9671  -22.6255  -50.0135 H         1 UNK         0.0600 
    220 H220       -4.3336  -21.5599  -48.2661 H         1 UNK         0.3000 
    221 H221       -3.4710  -19.5164  -48.1616 H         1 UNK         0.0600 
    222 H222       -5.9737  -18.6152  -46.6541 H         1 UNK         0.0600 
    223 H223       -4.5939  -19.4258  -45.9151 H         1 UNK         0.0600 
    224 H224       -4.3959  -17.8429  -46.6476 H         1 UNK         0.0600 
    225 H225       -5.1249  -20.2827  -50.4994 H         1 UNK         0.3000 
    226 H226       -6.2894  -17.8752  -51.5850 H         1 UNK         0.0600 
    227 H227       -6.3294  -19.2009  -53.6847 H         1 UNK         0.0600 
    228 H228       -5.2609  -20.4096  -52.9826 H         1 UNK         0.0600 
    229 H229       -6.8927  -20.1954  -52.3514 H         1 UNK         0.0600 
    230 H230       -5.4366  -16.5839  -53.2869 H         1 UNK         0.3000 
    231 H231       -2.4926  -16.2129  -53.2604 H         1 UNK         0.0600 
    232 H232       -3.9957  -14.2813  -52.7147 H         1 UNK         0.0600 
    233 H233       -4.7546  -14.4240  -54.2993 H         1 UNK         0.0600 
    234 H234       -3.0559  -13.9839  -54.1666 H         1 UNK         0.0600 
    235 H235       -4.6482  -17.9445  -55.1035 H         1 UNK         0.3000 
    236 H236       -4.1459  -17.2195  -57.7357 H         1 UNK         0.0600 
    237 H237       -6.0260  -18.6286  -57.1668 H         1 UNK         0.0600 
    238 H238       -5.0248  -19.4834  -58.3253 H         1 UNK         0.0600 
    239 H239       -4.9884  -19.9431  -56.6318 H         1 UNK         0.0600 
    240 H240       -0.9040  -19.6896  -57.1572 H         1 UNK         0.3000 
    241 H241       -3.2108  -19.9894  -55.3209 H         1 UNK         0.0600 
    242 H242       -1.9620  -23.2556  -57.0902 H         1 UNK         0.3800 
    243 H243       -1.8380  -21.6643  -57.7893 H         1 UNK         0.3800 
    244 H244       -1.5211  -20.3580  -53.4947 H         1 UNK         0.0800 
    245 H245       -1.6675  -18.7374  -54.0752 H         1 UNK         0.0800 
    246 H246        1.6728  -17.6010  -54.8817 H         1 UNK         0.0800 
    247 H247       -0.0011  -17.2665  -54.5491 H         1 UNK         0.0800 
@<TRIPOS>BOND
     1    1    2 1    
     2    1  127 1    
     3    1  128 1    
     4    1  129 1    
     5    2    3 2    
     6    2    4 am   BACKBONE|DICT|INTERRES
     7    4    5 1    
     8    4  130 1    
     9    5    6 1    
    10    5   65 1    
    11    5  131 1    
    12    6    7 1    
    13    6  132 1    
    14    6  133 1    
    15    7    8 1    
    16    8    9 1    
    17    8  134 1    
    18    8  135 1    
    19    9   10 ar   
    20    9   14 ar   
    21   10   11 ar   
    22   10  136 1    
    23   11   12 ar   
    24   11  126 1    
    25   12   13 ar   
    26   12  137 1    
    27   13   14 ar   
    28   13   15 1    
    29   14  138 1    
    30   15   16 1    
    31   15  139 1    
    32   15  140 1    
    33   16   17 1    
    34   17   18 1    
    35   17  141 1    
    36   17  142 1    
    37   18   19 1    
    38   18   67 1    
    39   18  143 1    
    40   19   20 am   BACKBONE|DICT|INTERRES
    41   19  144 1    
    42   20   21 2    
    43   20   22 1    
    44   22   23 1    
    45   22   24 1    
    46   22  145 1    
    47   23  146 1    
    48   23  147 1    
    49   23  148 1    
    50   24   25 am   BACKBONE|DICT|INTERRES
    51   24  149 1    
    52   25   26 2    
    53   25   27 1    
    54   27   28 1    
    55   27   29 1    
    56   27  150 1    
    57   28  151 1    
    58   28  152 1    
    59   28  153 1    
    60   29   30 am   BACKBONE|DICT|INTERRES
    61   29  154 1    
    62   30   31 2    
    63   30   32 1    
    64   32   33 1    
    65   32   34 1    
    66   32  155 1    
    67   33  156 1    
    68   33  157 1    
    69   33  158 1    
    70   34   35 am   BACKBONE|DICT|INTERRES
    71   34  159 1    
    72   35   36 2    
    73   35   37 1    
    74   37   38 1    
    75   37   39 1    
    76   37  160 1    
    77   38  161 1    
    78   38  162 1    
    79   38  163 1    
    80   39   40 am   BACKBONE|DICT|INTERRES
    81   39  164 1    
    82   40   41 2    
    83   40   42 1    
    84   42   43 1    
    85   42   44 1    
    86   42  165 1    
    87   43  166 1    
    88   43  167 1    
    89   43  168 1    
    90   44   45 am   BACKBONE|DICT|INTERRES
    91   44  169 1    
    92   45   46 2    
    93   45   47 1    
    94   47   48 1    
    95   47   49 1    
    96   47  170 1    
    97   48  171 1    
    98   48  172 1    
    99   48  173 1    
   100   49   50 am   BACKBONE|DICT|INTERRES
   101   49  174 1    
   102   50   51 2    
   103   50   52 1    
   104   52   53 1    
   105   52   54 1    
   106   52  175 1    
   107   53  176 1    
   108   53  177 1    
   109   53  178 1    
   110   54   55 am   BACKBONE|DICT|INTERRES
   111   54  179 1    
   112   55   56 2    
   113   55   57 1    
   114   57   58 1    
   115   57   59 1    
   116   57  180 1    
   117   58  181 1    
   118   58  182 1    
   119   58  183 1    
   120   59   60 am   BACKBONE|DICT|INTERRES
   121   59  184 1    
   122   60   61 2    
   123   60   62 1    
   124   62   63 1    
   125   62   64 1    
   126   62  185 1    
   127   63  186 1    
   128   63  187 1    
   129   63  188 1    
   130   64   65 am   BACKBONE|DICT|INTERRES
   131   64  189 1    
   132   65   66 2    
   133   67   68 2    
   134   67   69 am   BACKBONE|DICT|INTERRES
   135   69   70 1    
   136   69  190 1    
   137   70   71 1    
   138   70   72 1    
   139   70  191 1    
   140   71  192 1    
   141   71  193 1    
   142   71  194 1    
   143   72   73 2    
   144   72   74 am   BACKBONE|DICT|INTERRES
   145   74   75 1    
   146   74  195 1    
   147   75   76 1    
   148   75   77 1    
   149   75  196 1    
   150   76  197 1    
   151   76  198 1    
   152   76  199 1    
   153   77   78 2    
   154   77   79 am   BACKBONE|DICT|INTERRES
   155   79   80 1    
   156   79  200 1    
   157   80   81 1    
   158   80   82 1    
   159   80  201 1    
   160   81  202 1    
   161   81  203 1    
   162   81  204 1    
   163   82   83 2    
   164   82   84 am   BACKBONE|DICT|INTERRES
   165   84   85 1    
   166   84  205 1    
   167   85   86 1    
   168   85   87 1    
   169   85  206 1    
   170   86  207 1    
   171   86  208 1    
   172   86  209 1    
   173   87   88 2    
   174   87   89 am   BACKBONE|DICT|INTERRES
   175   89   90 1    
   176   89  210 1    
   177   90   91 1    
   178   90   92 1    
   179   90  211 1    
   180   91  212 1    
   181   91  213 1    
   182   91  214 1    
   183   92   93 2    
   184   92   94 am   BACKBONE|DICT|INTERRES
   185   94   95 1    
   186   94  215 1    
   187   95   96 1    
   188   95   97 1    
   189   95  216 1    
   190   96  217 1    
   191   96  218 1    
   192   96  219 1    
   193   97   98 2    
   194   97   99 am   BACKBONE|DICT|INTERRES
   195   99  100 1    
   196   99  220 1    
   197  100  101 1    
   198  100  102 1    
   199  100  221 1    
   200  101  222 1    
   201  101  223 1    
   202  101  224 1    
   203  102  103 2    
   204  102  104 am   BACKBONE|DICT|INTERRES
   205  104  105 1    
   206  104  225 1    
   207  105  106 1    
   208  105  107 1    
   209  105  226 1    
   210  106  227 1    
   211  106  228 1    
   212  106  229 1    
   213  107  108 2    
   214  107  109 am   BACKBONE|DICT|INTERRES
   215  109  110 1    
   216  109  230 1    
   217  110  111 1    
   218  110  112 1    
   219  110  231 1    
   220  111  232 1    
   221  111  233 1    
   222  111  234 1    
   223  112  113 2    
   224  112  114 am   BACKBONE|DICT|INTERRES
   225  114  115 1    
   226  114  235 1    
   227  115  116 1    
   228  115  117 1    
   229  115  236 1    
   230  116  237 1    
   231  116  238 1    
   232  116  239 1    
   233  117  118 2    
   234  117  119 am   BACKBONE|DICT|INTERRES
   235  119  120 1    
   236  119  240 1    
   237  120  121 1    
   238  120  124 1    
   239  120  241 1    
   240  121  122 am   BACKBONE|DICT|INTERRES
   241  121  123 2    
   242  122  242 1    
   243  122  243 1    
   244  124  125 1    
   245  124  244 1    
   246  124  245 1    
   247  125  126 1    
   248  126  246 1    
   249  126  247 1    
@<TRIPOS>SUBSTRUCTURE
     1 UNK         1 GROUP             0       ****    0 ROOT    
