@<TRIPOS>MOLECULE
3R540
247   249    1
SMALL
USER_CHARGES


@<TRIPOS>ATOM
      1 CA          5.6816  -13.4905  -45.8579 C.3       0 UNK        -0.1800 
      2 C           4.5921  -13.0611  -46.8298 C.2       0 UNK         0.5000 
      3 O           4.8191  -12.1642  -47.6416 O.2       0 UNK        -0.5000 
      4 N           3.4201  -13.7035  -46.7422 N.am      1 UNK        -0.5000 
      5 CA          2.2152  -13.4542  -47.5459 C.3       1 UNK         0.1400 
      6 C6          2.4082  -13.6523  -49.0783 C.3       23 UNK        -0.0398 
      7 S7          3.0735  -15.2870  -49.5553 S.3       23 UNK        -0.2404 
      8 C8          1.5484  -16.2688  -49.6739 C.3       23 UNK        -0.0205 
      9 C9          1.6823  -17.4279  -50.6493 C.ar      23 UNK        -0.0193 
     10 C10         1.2722  -17.2682  -51.9754 C.ar      23 UNK        -0.1150 
     11 C11         1.3363  -18.3341  -52.8769 C.ar      23 UNK        -0.0193 
     12 C12         1.8487  -19.5623  -52.4484 C.ar      23 UNK        -0.1150 
     13 C13         2.2422  -19.7428  -51.1186 C.ar      23 UNK        -0.0193 
     14 C14         2.1641  -18.6694  -50.2239 C.ar      23 UNK        -0.1150 
     15 C15         2.7264  -21.1076  -50.6509 C.3       23 UNK        -0.0205 
     16 S16         1.3335  -22.2417  -50.3346 S.3       23 UNK        -0.2404 
     17 C17         0.5820  -21.4913  -48.8509 C.3       23 UNK        -0.0398 
     18 CA          0.0988  -22.5382  -47.8169 C.3       11 UNK         0.1400 
     19 N          -0.0069  -21.9705  -46.4717 N.am      11 UNK        -0.5000 
     20 C          -0.2730  -22.6636  -45.3553 C.2       10 UNK         0.5000 
     21 O          -0.4289  -23.8832  -45.3246 O.2       10 UNK        -0.5000 
     22 CA         -0.4508  -21.8488  -44.0623 C.3       10 UNK         0.1400 
     23 CB          0.9077  -21.4205  -43.4886 C.3       10 UNK        -0.1800 
     24 N          -1.2992  -20.6731  -44.2593 N.am      10 UNK        -0.5000 
     25 C          -2.5920  -20.7246  -44.6134 C.2       9 UNK         0.5000 
     26 O          -3.2158  -21.7709  -44.7889 O.2       9 UNK        -0.5000 
     27 CA         -3.2935  -19.3783  -44.8479 C.3       9 UNK         0.1400 
     28 CB         -3.7494  -18.7595  -43.5178 C.3       9 UNK        -0.1800 
     29 N          -2.4284  -18.4354  -45.5518 N.am      9 UNK        -0.5000 
     30 C          -2.0979  -18.5326  -46.8468 C.2       8 UNK         0.5000 
     31 O          -2.5080  -19.4142  -47.6040 O.2       8 UNK        -0.5000 
     32 CA         -1.1065  -17.4808  -47.3693 C.3       8 UNK         0.1400 
     33 CB         -1.8229  -16.1472  -47.6337 C.3       8 UNK        -0.1800 
     34 N           0.0052  -17.2418  -46.4500 N.am      8 UNK        -0.5000 
     35 C           0.9014  -18.1588  -46.0591 C.2       7 UNK         0.5000 
     36 O           0.9085  -19.3200  -46.4569 O.2       7 UNK        -0.5000 
     37 CA          1.9473  -17.7127  -45.0230 C.3       7 UNK         0.1400 
     38 CB          3.2437  -17.2897  -45.7296 C.3       7 UNK        -0.1800 
     39 N           1.4785  -16.6163  -44.1761 N.am      7 UNK        -0.5000 
     40 C           0.4292  -16.6525  -43.3470 C.2       6 UNK         0.5000 
     41 O          -0.2594  -17.6618  -43.1772 O.2       6 UNK        -0.5000 
     42 CA          0.0712  -15.3258  -42.6392 C.3       6 UNK         0.1400 
     43 CB         -1.0065  -15.5096  -41.5559 C.3       6 UNK        -0.1800 
     44 N           1.2116  -14.6146  -42.0496 N.am      6 UNK        -0.5000 
     45 C           2.1979  -13.9839  -42.7016 C.2       5 UNK         0.5000 
     46 O           2.3408  -13.9998  -43.9288 O.2       5 UNK        -0.5000 
     47 CA          3.1216  -13.1298  -41.8270 C.3       5 UNK         0.1400 
     48 CB          4.4054  -12.6897  -42.5546 C.3       5 UNK        -0.1800 
     49 N           2.3656  -11.9548  -41.4059 N.am      5 UNK        -0.5000 
     50 C           2.5334  -11.2970  -40.2522 C.2       4 UNK         0.5000 
     51 O           3.3337  -11.6498  -39.3847 O.2       4 UNK        -0.5000 
     52 CA          1.6945  -10.0215  -40.0237 C.3       4 UNK         0.1400 
     53 CB          2.6099   -8.7913  -39.9064 C.3       4 UNK        -0.1800 
     54 N           0.7266   -9.7699  -41.0936 N.am      4 UNK        -0.5000 
     55 C          -0.5402  -10.2057  -41.1115 C.2       3 UNK         0.5000 
     56 O          -1.0528  -10.8632  -40.2057 O.2       3 UNK        -0.5000 
     57 CA         -1.3645   -9.8638  -42.3712 C.3       3 UNK         0.1400 
     58 CB         -2.1210   -8.5409  -42.1769 C.3       3 UNK        -0.1800 
     59 N          -0.5490   -9.7792  -43.5894 N.am      3 UNK        -0.5000 
     60 C           0.0886  -10.8235  -44.1331 C.2       2 UNK         0.5000 
     61 O           0.0111  -11.9652  -43.6795 O.2       2 UNK        -0.5000 
     62 CA          0.9938  -10.5358  -45.3398 C.3       2 UNK         0.1400 
     63 CB          2.1956   -9.6653  -44.9301 C.3       2 UNK        -0.1800 
     64 N           1.4981  -11.7914  -45.8931 N.am      2 UNK        -0.5000 
     65 C           1.6006  -12.0784  -47.1963 C.2       1 UNK         0.5000 
     66 O           1.2547  -11.3045  -48.0914 O.2       1 UNK        -0.5000 
     67 C          -1.2222  -23.2017  -48.2486 C.2       11 UNK         0.5000 
     68 O          -1.2050  -24.3610  -48.6641 O.2       11 UNK        -0.5000 
     69 N          -2.3433  -22.4797  -48.0862 N.am      12 UNK        -0.5000 
     70 CA         -3.6936  -22.9641  -48.3787 C.3       12 UNK         0.1400 
     71 CB         -4.7120  -21.8368  -48.1583 C.3       12 UNK        -0.1800 
     72 C          -4.0790  -24.2203  -47.5796 C.2       12 UNK         0.5000 
     73 O          -4.6398  -25.1504  -48.1570 O.2       12 UNK        -0.5000 
     74 N          -3.7411  -24.2434  -46.2840 N.am      13 UNK        -0.5000 
     75 CA         -3.9530  -25.3896  -45.4021 C.3       13 UNK         0.1400 
     76 CB         -3.7127  -24.9646  -43.9453 C.3       13 UNK        -0.1800 
     77 C          -3.0749  -26.6012  -45.7682 C.2       13 UNK         0.5000 
     78 O          -3.5704  -27.7287  -45.7642 O.2       13 UNK        -0.5000 
     79 N          -1.7920  -26.3526  -46.0637 N.am      14 UNK        -0.5000 
     80 CA         -0.7982  -27.3846  -46.3523 C.3       14 UNK         0.1400 
     81 CB          0.6136  -26.7937  -46.2105 C.3       14 UNK        -0.1800 
     82 C          -0.9741  -28.0324  -47.7355 C.2       14 UNK         0.5000 
     83 O          -0.9876  -29.2607  -47.8302 O.2       14 UNK        -0.5000 
     84 N          -1.0706  -27.2048  -48.7840 N.am      15 UNK        -0.5000 
     85 CA         -1.0607  -27.6574  -50.1767 C.3       15 UNK         0.1400 
     86 CB         -0.3728  -26.5916  -51.0431 C.3       15 UNK        -0.1800 
     87 C          -2.4601  -27.9760  -50.7289 C.2       15 UNK         0.5000 
     88 O          -2.5500  -28.6294  -51.7693 O.2       15 UNK        -0.5000 
     89 N          -3.5177  -27.4939  -50.0582 N.am      16 UNK        -0.5000 
     90 CA         -4.9456  -27.5968  -50.3960 C.3       16 UNK         0.1400 
     91 CB         -5.4129  -29.0627  -50.4820 C.3       16 UNK        -0.1800 
     92 C          -5.3424  -26.7994  -51.6539 C.2       16 UNK         0.5000 
     93 O          -6.2387  -25.9592  -51.5846 O.2       16 UNK        -0.5000 
     94 N          -4.6472  -27.0390  -52.7733 N.am      17 UNK        -0.5000 
     95 CA         -4.8295  -26.3559  -54.0577 C.3       17 UNK         0.1400 
     96 CB         -3.9701  -27.0544  -55.1213 C.3       17 UNK        -0.1800 
     97 C          -4.4981  -24.8523  -53.9988 C.2       17 UNK         0.5000 
     98 O          -5.0809  -24.0661  -54.7457 O.2       17 UNK        -0.5000 
     99 N          -3.6073  -24.4711  -53.0726 N.am      18 UNK        -0.5000 
    100 CA        -3.2212  -23.0896  -52.7833 C.3       18 UNK         0.1400 
    101 CB        -1.9590  -23.0914  -51.9128 C.3       18 UNK        -0.1800 
    102 C         -4.3375  -22.2371  -52.1450 C.2       18 UNK         0.5000 
    103 O         -4.1569  -21.0280  -52.0061 O.2       18 UNK        -0.5000 
    104 N         -5.4883  -22.8380  -51.8062 N.am      19 UNK        -0.5000 
    105 CA        -6.7101  -22.1171  -51.4361 C.3       19 UNK         0.1400 
    106 CB        -7.7708  -23.1221  -50.9672 C.3       19 UNK        -0.1800 
    107 C         -7.2600  -21.2282  -52.5740 C.2       19 UNK         0.5000 
    108 O         -7.9908  -20.2760  -52.2971 O.2       19 UNK        -0.5000 
    109 N         -6.8634  -21.5116  -53.8247 N.am      20 UNK        -0.5000 
    110 CA        -7.1002  -20.6906  -55.0116 C.3       20 UNK         0.1400 
    111 CB        -6.9088  -21.5668  -56.2621 C.3       20 UNK        -0.1800 
    112 C         -6.2119  -19.4237  -55.0309 C.2       20 UNK         0.5000 
    113 O         -5.3907  -19.2512  -55.9327 O.2       20 UNK        -0.5000 
    114 N         -6.4084  -18.5590  -54.0272 N.am      21 UNK        -0.5000 
    115 CA        -5.8557  -17.2086  -53.8660 C.3       21 UNK         0.1400 
    116 CB        -6.3039  -16.2954  -55.0274 C.3       21 UNK        -0.1800 
    117 C         -4.3351  -17.1177  -53.6037 C.2       21 UNK         0.5000 
    118 O         -3.7922  -16.0125  -53.6618 O.2       21 UNK        -0.5000 
    119 N         -3.6757  -18.2367  -53.2789 N.am      22 UNK        -0.5000 
    120 CA        -2.2965  -18.2509  -52.7644 C.3       22 UNK         0.1400 
    121 C         -2.3010  -18.1249  -51.2181 C.2       22 UNK         0.5000 
    122 N         -2.9181  -19.0582  -50.5038 N.am      22 UNK        -0.7600 
    123 O         -1.7491  -17.1777  -50.6704 O.2       22 UNK        -0.5000 
    124 C124       -1.5022  -19.5028  -53.2265 C.3       23 UNK        -0.0398 
    125 S125       -0.5562  -19.2614  -54.7694 S.3       23 UNK        -0.2404 
    126 C126        0.8268  -18.1531  -54.3028 C.3       23 UNK        -0.0205 
    127 H127        6.5587  -13.8335  -46.4065 H         1 UNK         0.0600 
    128 H128        5.3489  -14.3021  -45.2103 H         1 UNK         0.0600 
    129 H129        5.9781  -12.6503  -45.2303 H         1 UNK         0.0600 
    130 H130        3.2972  -14.3611  -45.9852 H         1 UNK         0.3000 
    131 H131        1.4824  -14.1931  -47.2182 H         1 UNK         0.0600 
    132 H132        1.4646  -13.4954  -49.6030 H         1 UNK         0.0800 
    133 H133        3.0861  -12.8959  -49.4756 H         1 UNK         0.0800 
    134 H134        0.7067  -15.6416  -49.9709 H         1 UNK         0.0800 
    135 H135        1.3146  -16.6464  -48.6823 H         1 UNK         0.0800 
    136 H136        0.8756  -16.3152  -52.2963 H         1 UNK         0.1150 
    137 H137        1.8960  -20.3923  -53.1395 H         1 UNK         0.1150 
    138 H138        2.4625  -18.8016  -49.1932 H         1 UNK         0.1150 
    139 H139        3.3692  -21.5452  -51.4160 H         1 UNK         0.0800 
    140 H140        3.3414  -21.0158  -49.7543 H         1 UNK         0.0800 
    141 H141       -0.2173  -20.8090  -49.1478 H         1 UNK         0.0800 
    142 H142        1.3481  -20.8698  -48.3904 H         1 UNK         0.0800 
    143 H143        0.8536  -23.3253  -47.7546 H         1 UNK         0.0600 
    144 H144        0.1517  -20.9675  -46.3980 H         1 UNK         0.3000 
    145 H145       -0.9415  -22.4910  -43.3279 H         1 UNK         0.0600 
    146 H146        0.7871  -20.8403  -42.5735 H         1 UNK         0.0600 
    147 H147        1.4736  -20.8172  -44.1976 H         1 UNK         0.0600 
    148 H148        1.5165  -22.2919  -43.2449 H         1 UNK         0.0600 
    149 H149       -0.8695  -19.7673  -44.1257 H         1 UNK         0.3000 
    150 H150       -4.1784  -19.5610  -45.4614 H         1 UNK         0.0600 
    151 H151       -4.4137  -19.4377  -42.9807 H         1 UNK         0.0600 
    152 H152       -4.2966  -17.8312  -43.6823 H         1 UNK         0.0600 
    153 H153       -2.9055  -18.5395  -42.8627 H         1 UNK         0.0600 
    154 H154       -2.0009  -17.7107  -44.9937 H         1 UNK         0.3000 
    155 H155       -0.6973  -17.8570  -48.3086 H         1 UNK         0.0600 
    156 H156       -2.6868  -16.2894  -48.2842 H         1 UNK         0.0600 
    157 H157       -1.1612  -15.4364  -48.1286 H         1 UNK         0.0600 
    158 H158       -2.1816  -15.6883  -46.7117 H         1 UNK         0.0600 
    159 H159        0.0748  -16.3168  -46.0553 H         1 UNK         0.3000 
    160 H160        2.1667  -18.5623  -44.3747 H         1 UNK         0.0600 
    161 H161        3.0710  -16.4792  -46.4374 H         1 UNK         0.0600 
    162 H162        3.6684  -18.1232  -46.2907 H         1 UNK         0.0600 
    163 H163        3.9985  -16.9613  -45.0148 H         1 UNK         0.0600 
    164 H164        1.9744  -15.7308  -44.2407 H         1 UNK         0.3000 
    165 H165       -0.3525  -14.6790  -43.4098 H         1 UNK         0.0600 
    166 H166       -1.2975  -14.5518  -41.1237 H         1 UNK         0.0600 
    167 H167       -1.9094  -15.9614  -41.9692 H         1 UNK         0.0600 
    168 H168       -0.6566  -16.1524  -40.7473 H         1 UNK         0.0600 
    169 H169        1.1909  -14.5311  -41.0438 H         1 UNK         0.3000 
    170 H170        3.4014  -13.7300  -40.9586 H         1 UNK         0.0600 
    171 H171        4.1846  -12.0895  -43.4379 H         1 UNK         0.0600 
    172 H172        5.0465  -12.0979  -41.9013 H         1 UNK         0.0600 
    173 H173        4.9833  -13.5562  -42.8763 H         1 UNK         0.0600 
    174 H174        1.6311  -11.6606  -42.0367 H         1 UNK         0.3000 
    175 H175        1.1683  -10.1439  -39.0747 H         1 UNK         0.0600 
    176 H176        3.1828   -8.6271  -40.8200 H         1 UNK         0.0600 
    177 H177        2.0330   -7.8886  -39.7046 H         1 UNK         0.0600 
    178 H178        3.3224   -8.9074  -39.0886 H         1 UNK         0.0600 
    179 H179        1.0570   -9.2306  -41.8801 H         1 UNK         0.3000 
    180 H180       -2.0994  -10.6599  -42.5094 H         1 UNK         0.0600 
    181 H181       -2.7679   -8.3276  -43.0281 H         1 UNK         0.0600 
    182 H182       -1.4377   -7.6997  -42.0539 H         1 UNK         0.0600 
    183 H183       -2.7555   -8.5807  -41.2904 H         1 UNK         0.0600 
    184 H184       -0.4541   -8.8655  -44.0093 H         1 UNK         0.3000 
    185 H185        0.3940  -10.0041  -46.0811 H         1 UNK         0.0600 
    186 H186        2.7859  -10.1384  -44.1445 H         1 UNK         0.0600 
    187 H187        2.8564   -9.4858  -45.7786 H         1 UNK         0.0600 
    188 H188        1.8756   -8.6903  -44.5614 H         1 UNK         0.0600 
    189 H189        1.7402  -12.5005  -45.2067 H         1 UNK         0.3000 
    190 H190       -2.2743  -21.5314  -47.7345 H         1 UNK         0.3000 
    191 H191       -3.7253  -23.2384  -49.4325 H         1 UNK         0.0600 
    192 H192       -4.5267  -21.0024  -48.8346 H         1 UNK         0.0600 
    193 H193       -4.6770  -21.4556  -47.1378 H         1 UNK         0.0600 
    194 H194       -5.7283  -22.1862  -48.3436 H         1 UNK         0.0600 
    195 H195       -3.3229  -23.4165  -45.8674 H         1 UNK         0.3000 
    196 H196       -4.9968  -25.6966  -45.4952 H         1 UNK         0.0600 
    197 H197       -4.3944  -24.1663  -43.6511 H         1 UNK         0.0600 
    198 H198       -2.6942  -24.6056  -43.7930 H         1 UNK         0.0600 
    199 H199       -3.8740  -25.7992  -43.2619 H         1 UNK         0.0600 
    200 H200       -1.4489  -25.3976  -46.0068 H         1 UNK         0.3000 
    201 H201       -0.9022  -28.1729  -45.6034 H         1 UNK         0.0600 
    202 H202        0.7879  -26.4320  -45.1970 H         1 UNK         0.0600 
    203 H203        0.7720  -25.9587  -46.8942 H         1 UNK         0.0600 
    204 H204        1.3765  -27.5436  -46.4233 H         1 UNK         0.0600 
    205 H205       -1.0763  -26.1971  -48.6317 H         1 UNK         0.3000 
    206 H206       -0.4691  -28.5722  -50.2550 H         1 UNK         0.0600 
    207 H207       -0.9201  -25.6515  -51.0300 H         1 UNK         0.0600 
    208 H208        0.6400  -26.3916  -50.6931 H         1 UNK         0.0600 
    209 H209       -0.3001  -26.9149  -52.0823 H         1 UNK         0.0600 
    210 H210       -3.3243  -26.9422  -49.2324 H         1 UNK         0.3000 
    211 H211       -5.4826  -27.1471  -49.5607 H         1 UNK         0.0600 
    212 H212       -4.9566  -29.5956  -51.3162 H         1 UNK         0.0600 
    213 H213       -6.4937  -29.1155  -50.6180 H         1 UNK         0.0600 
    214 H214       -5.1739  -29.6048  -49.5670 H         1 UNK         0.0600 
    215 H215       -3.9036  -27.7305  -52.7163 H         1 UNK         0.3000 
    216 H216       -5.8790  -26.4508  -54.3435 H         1 UNK         0.0600 
    217 H217       -4.0951  -26.5831  -56.0971 H         1 UNK         0.0600 
    218 H218       -4.2509  -28.1023  -55.2288 H         1 UNK         0.0600 
    219 H219       -2.9093  -27.0157  -54.8698 H         1 UNK         0.0600 
    220 H220       -3.1921  -25.1877  -52.4968 H         1 UNK         0.3000 
    221 H221       -2.9727  -22.6099  -53.7319 H         1 UNK         0.0600 
    222 H222       -2.1088  -23.6799  -51.0118 H         1 UNK         0.0600 
    223 H223       -1.1092  -23.5125  -52.4501 H         1 UNK         0.0600 
    224 H224       -1.6774  -22.0848  -51.6020 H         1 UNK         0.0600 
    225 H225       -5.5764  -23.8402  -51.9211 H         1 UNK         0.3000 
    226 H226       -6.4709  -21.4570  -50.6005 H         1 UNK         0.0600 
    227 H227       -7.4088  -23.7121  -50.1246 H         1 UNK         0.0600 
    228 H228       -8.6777  -22.6112  -50.6413 H         1 UNK         0.0600 
    229 H229       -8.0496  -23.8119  -51.7647 H         1 UNK         0.0600 
    230 H230       -6.2598  -22.3132  -53.9624 H         1 UNK         0.3000 
    231 H231       -8.1397  -20.3563  -54.9997 H         1 UNK         0.0600 
    232 H232       -7.1301  -21.0058  -57.1709 H         1 UNK         0.0600 
    233 H233       -7.5734  -22.4308  -56.2444 H         1 UNK         0.0600 
    234 H234       -5.8852  -21.9347  -56.3432 H         1 UNK         0.0600 
    235 H235       -7.0674  -18.8471  -53.3095 H         1 UNK         0.3000 
    236 H236       -6.3213  -16.8198  -52.9594 H         1 UNK         0.0600 
    237 H237       -5.8258  -16.5722  -55.9674 H         1 UNK         0.0600 
    238 H238       -7.3832  -16.3416  -55.1726 H         1 UNK         0.0600 
    239 H239       -6.0518  -15.2530  -54.8295 H         1 UNK         0.0600 
    240 H240       -4.1897  -19.1041  -53.2003 H         1 UNK         0.3000 
    241 H241       -1.7647  -17.3723  -53.1343 H         1 UNK         0.0600 
    242 H242       -2.8966  -19.0261  -49.4919 H         1 UNK         0.3800 
    243 H243       -3.4030  -19.8200  -50.9746 H         1 UNK         0.3800 
    244 H244       -0.8225  -19.8663  -52.4555 H         1 UNK         0.0800 
    245 H245       -2.1789  -20.3342  -53.4079 H         1 UNK         0.0800 
    246 H246        0.5009  -17.1238  -54.4601 H         1 UNK         0.0800 
    247 H247        1.6533  -18.3147  -54.9960 H         1 UNK         0.0800 
@<TRIPOS>BOND
     1    1    2 1    
     2    1  127 1    
     3    1  128 1    
     4    1  129 1    
     5    2    3 2    
     6    2    4 am   BACKBONE|DICT|INTERRES
     7    4    5 1    
     8    4  130 1    
     9    5    6 1    
    10    5   65 1    
    11    5  131 1    
    12    6    7 1    
    13    6  132 1    
    14    6  133 1    
    15    7    8 1    
    16    8    9 1    
    17    8  134 1    
    18    8  135 1    
    19    9   10 ar   
    20    9   14 ar   
    21   10   11 ar   
    22   10  136 1    
    23   11   12 ar   
    24   11  126 1    
    25   12   13 ar   
    26   12  137 1    
    27   13   14 ar   
    28   13   15 1    
    29   14  138 1    
    30   15   16 1    
    31   15  139 1    
    32   15  140 1    
    33   16   17 1    
    34   17   18 1    
    35   17  141 1    
    36   17  142 1    
    37   18   19 1    
    38   18   67 1    
    39   18  143 1    
    40   19   20 am   BACKBONE|DICT|INTERRES
    41   19  144 1    
    42   20   21 2    
    43   20   22 1    
    44   22   23 1    
    45   22   24 1    
    46   22  145 1    
    47   23  146 1    
    48   23  147 1    
    49   23  148 1    
    50   24   25 am   BACKBONE|DICT|INTERRES
    51   24  149 1    
    52   25   26 2    
    53   25   27 1    
    54   27   28 1    
    55   27   29 1    
    56   27  150 1    
    57   28  151 1    
    58   28  152 1    
    59   28  153 1    
    60   29   30 am   BACKBONE|DICT|INTERRES
    61   29  154 1    
    62   30   31 2    
    63   30   32 1    
    64   32   33 1    
    65   32   34 1    
    66   32  155 1    
    67   33  156 1    
    68   33  157 1    
    69   33  158 1    
    70   34   35 am   BACKBONE|DICT|INTERRES
    71   34  159 1    
    72   35   36 2    
    73   35   37 1    
    74   37   38 1    
    75   37   39 1    
    76   37  160 1    
    77   38  161 1    
    78   38  162 1    
    79   38  163 1    
    80   39   40 am   BACKBONE|DICT|INTERRES
    81   39  164 1    
    82   40   41 2    
    83   40   42 1    
    84   42   43 1    
    85   42   44 1    
    86   42  165 1    
    87   43  166 1    
    88   43  167 1    
    89   43  168 1    
    90   44   45 am   BACKBONE|DICT|INTERRES
    91   44  169 1    
    92   45   46 2    
    93   45   47 1    
    94   47   48 1    
    95   47   49 1    
    96   47  170 1    
    97   48  171 1    
    98   48  172 1    
    99   48  173 1    
   100   49   50 am   BACKBONE|DICT|INTERRES
   101   49  174 1    
   102   50   51 2    
   103   50   52 1    
   104   52   53 1    
   105   52   54 1    
   106   52  175 1    
   107   53  176 1    
   108   53  177 1    
   109   53  178 1    
   110   54   55 am   BACKBONE|DICT|INTERRES
   111   54  179 1    
   112   55   56 2    
   113   55   57 1    
   114   57   58 1    
   115   57   59 1    
   116   57  180 1    
   117   58  181 1    
   118   58  182 1    
   119   58  183 1    
   120   59   60 am   BACKBONE|DICT|INTERRES
   121   59  184 1    
   122   60   61 2    
   123   60   62 1    
   124   62   63 1    
   125   62   64 1    
   126   62  185 1    
   127   63  186 1    
   128   63  187 1    
   129   63  188 1    
   130   64   65 am   BACKBONE|DICT|INTERRES
   131   64  189 1    
   132   65   66 2    
   133   67   68 2    
   134   67   69 am   BACKBONE|DICT|INTERRES
   135   69   70 1    
   136   69  190 1    
   137   70   71 1    
   138   70   72 1    
   139   70  191 1    
   140   71  192 1    
   141   71  193 1    
   142   71  194 1    
   143   72   73 2    
   144   72   74 am   BACKBONE|DICT|INTERRES
   145   74   75 1    
   146   74  195 1    
   147   75   76 1    
   148   75   77 1    
   149   75  196 1    
   150   76  197 1    
   151   76  198 1    
   152   76  199 1    
   153   77   78 2    
   154   77   79 am   BACKBONE|DICT|INTERRES
   155   79   80 1    
   156   79  200 1    
   157   80   81 1    
   158   80   82 1    
   159   80  201 1    
   160   81  202 1    
   161   81  203 1    
   162   81  204 1    
   163   82   83 2    
   164   82   84 am   BACKBONE|DICT|INTERRES
   165   84   85 1    
   166   84  205 1    
   167   85   86 1    
   168   85   87 1    
   169   85  206 1    
   170   86  207 1    
   171   86  208 1    
   172   86  209 1    
   173   87   88 2    
   174   87   89 am   BACKBONE|DICT|INTERRES
   175   89   90 1    
   176   89  210 1    
   177   90   91 1    
   178   90   92 1    
   179   90  211 1    
   180   91  212 1    
   181   91  213 1    
   182   91  214 1    
   183   92   93 2    
   184   92   94 am   BACKBONE|DICT|INTERRES
   185   94   95 1    
   186   94  215 1    
   187   95   96 1    
   188   95   97 1    
   189   95  216 1    
   190   96  217 1    
   191   96  218 1    
   192   96  219 1    
   193   97   98 2    
   194   97   99 am   BACKBONE|DICT|INTERRES
   195   99  100 1    
   196   99  220 1    
   197  100  101 1    
   198  100  102 1    
   199  100  221 1    
   200  101  222 1    
   201  101  223 1    
   202  101  224 1    
   203  102  103 2    
   204  102  104 am   BACKBONE|DICT|INTERRES
   205  104  105 1    
   206  104  225 1    
   207  105  106 1    
   208  105  107 1    
   209  105  226 1    
   210  106  227 1    
   211  106  228 1    
   212  106  229 1    
   213  107  108 2    
   214  107  109 am   BACKBONE|DICT|INTERRES
   215  109  110 1    
   216  109  230 1    
   217  110  111 1    
   218  110  112 1    
   219  110  231 1    
   220  111  232 1    
   221  111  233 1    
   222  111  234 1    
   223  112  113 2    
   224  112  114 am   BACKBONE|DICT|INTERRES
   225  114  115 1    
   226  114  235 1    
   227  115  116 1    
   228  115  117 1    
   229  115  236 1    
   230  116  237 1    
   231  116  238 1    
   232  116  239 1    
   233  117  118 2    
   234  117  119 am   BACKBONE|DICT|INTERRES
   235  119  120 1    
   236  119  240 1    
   237  120  121 1    
   238  120  124 1    
   239  120  241 1    
   240  121  122 am   BACKBONE|DICT|INTERRES
   241  121  123 2    
   242  122  242 1    
   243  122  243 1    
   244  124  125 1    
   245  124  244 1    
   246  124  245 1    
   247  125  126 1    
   248  126  246 1    
   249  126  247 1    
@<TRIPOS>SUBSTRUCTURE
     1 UNK         1 GROUP             0       ****    0 ROOT    
