@<TRIPOS>MOLECULE
3R540
247   249    1
SMALL
USER_CHARGES


@<TRIPOS>ATOM
      1 CA          0.1512  -17.2800  -48.8630 C.3       0 UNK        -0.1800 
      2 C           0.5629  -15.9199  -49.4036 C.2       0 UNK         0.5000 
      3 O          -0.0442  -14.9104  -49.0488 O.2       0 UNK        -0.5000 
      4 N           1.5882  -15.8905  -50.2656 N.am      1 UNK        -0.5000 
      5 CA          2.0666  -14.7012  -50.9875 C.3       1 UNK         0.1400 
      6 C6          3.0777  -15.0642  -52.1028 C.3       23 UNK        -0.0398 
      7 S7          4.5599  -15.9491  -51.4952 S.3       23 UNK        -0.2404 
      8 C8          4.5928  -17.4247  -52.5598 C.3       23 UNK        -0.0205 
      9 C9          3.4658  -18.3958  -52.2417 C.ar      23 UNK        -0.0193 
     10 C10         2.3668  -18.5065  -53.0966 C.ar      23 UNK        -0.1150 
     11 C11         1.3379  -19.4143  -52.8239 C.ar      23 UNK        -0.0193 
     12 C12         1.4286  -20.2311  -51.6920 C.ar      23 UNK        -0.1150 
     13 C13         2.5307  -20.1399  -50.8362 C.ar      23 UNK        -0.0193 
     14 C14         3.5403  -19.2132  -51.1115 C.ar      23 UNK        -0.1150 
     15 C15         2.6630  -21.0659  -49.6372 C.3       23 UNK        -0.0205 
     16 S16         1.9767  -20.3226  -48.1270 S.3       23 UNK        -0.2404 
     17 C17         0.2581  -20.9373  -48.1613 C.3       23 UNK        -0.0398 
     18 CA          0.1115  -22.2236  -47.3175 C.3       11 UNK         0.1400 
     19 N           0.3373  -21.9869  -45.8898 N.am      11 UNK        -0.5000 
     20 C           0.5451  -22.9538  -44.9874 C.2       10 UNK         0.5000 
     21 O           0.5750  -24.1513  -45.2685 O.2       10 UNK        -0.5000 
     22 CA          0.6909  -22.5153  -43.5201 C.3       10 UNK         0.1400 
     23 CB          2.0863  -21.9311  -43.2543 C.3       10 UNK        -0.1800 
     24 N          -0.3382  -21.5537  -43.1224 N.am      10 UNK        -0.5000 
     25 C          -1.6495  -21.8303  -43.0818 C.2       9 UNK         0.5000 
     26 O          -2.1196  -22.9402  -43.3356 O.2       9 UNK        -0.5000 
     27 CA         -2.5993  -20.6680  -42.7367 C.3       9 UNK         0.1400 
     28 CB         -2.6436  -20.4350  -41.2194 C.3       9 UNK        -0.1800 
     29 N          -2.2513  -19.4201  -43.4193 N.am      9 UNK        -0.5000 
     30 C          -2.2660  -19.2525  -44.7501 C.2       8 UNK         0.5000 
     31 O          -2.6062  -20.1250  -45.5451 O.2       8 UNK        -0.5000 
     32 CA         -1.7522  -17.9101  -45.2972 C.3       8 UNK         0.1400 
     33 CB         -2.8192  -16.8131  -45.1744 C.3       8 UNK        -0.1800 
     34 N          -0.5183  -17.4767  -44.6463 N.am      8 UNK        -0.5000 
     35 C           0.6271  -18.1721  -44.6451 C.2       7 UNK         0.5000 
     36 O           0.7772  -19.2455  -45.2241 O.2       7 UNK        -0.5000 
     37 CA          1.7776  -17.6005  -43.8046 C.3       7 UNK         0.1400 
     38 CB          2.4622  -16.4350  -44.5331 C.3       7 UNK        -0.1800 
     39 N           1.3151  -17.1677  -42.4863 N.am      7 UNK        -0.5000 
     40 C           0.8865  -18.0016  -41.5275 C.2       6 UNK         0.5000 
     41 O           0.8727  -19.2274  -41.6405 O.2       6 UNK        -0.5000 
     42 CA          0.3483  -17.3521  -40.2401 C.3       6 UNK         0.1400 
     43 CB          1.5008  -16.9932  -39.2903 C.3       6 UNK        -0.1800 
     44 N          -0.4522  -16.1562  -40.5071 N.am      6 UNK        -0.5000 
     45 C          -1.6417  -16.1668  -41.1248 C.2       5 UNK         0.5000 
     46 O          -2.2008  -17.1901  -41.5176 O.2       5 UNK        -0.5000 
     47 CA         -2.2914  -14.7964  -41.3913 C.3       5 UNK         0.1400 
     48 CB         -3.0552  -14.3084  -40.1513 C.3       5 UNK        -0.1800 
     49 N          -1.3350  -13.7675  -41.8133 N.am      5 UNK        -0.5000 
     50 C          -0.5847  -13.8429  -42.9197 C.2       4 UNK         0.5000 
     51 O          -0.5668  -14.8229  -43.6672 O.2       4 UNK        -0.5000 
     52 CA          0.3322  -12.6476  -43.2239 C.3       4 UNK         0.1400 
     53 CB          1.7265  -12.8750  -42.6200 C.3       4 UNK        -0.1800 
     54 N           0.4654  -12.4678  -44.6676 N.am      4 UNK        -0.5000 
     55 C          -0.4766  -11.9484  -45.4648 C.2       3 UNK         0.5000 
     56 O          -1.5219  -11.4558  -45.0363 O.2       3 UNK        -0.5000 
     57 CA         -0.2447  -12.0102  -46.9912 C.3       3 UNK         0.1400 
     58 CB         -0.4601  -10.6390  -47.6639 C.3       3 UNK        -0.1800 
     59 N           1.0312  -12.6066  -47.4113 N.am      3 UNK        -0.5000 
     60 C           2.2738  -12.1252  -47.2400 C.2       2 UNK         0.5000 
     61 O           2.5291  -11.0861  -46.6316 O.2       2 UNK        -0.5000 
     62 CA          3.4376  -12.9522  -47.8263 C.3       2 UNK         0.1400 
     63 CB          4.1687  -13.7152  -46.7117 C.3       2 UNK        -0.1800 
     64 N           3.0127  -13.9064  -48.8521 N.am      2 UNK        -0.5000 
     65 C           2.6039  -13.5689  -50.0832 C.2       1 UNK         0.5000 
     66 O           2.6178  -12.4131  -50.5091 O.2       1 UNK        -0.5000 
     67 C          -1.2302  -22.9354  -47.5866 C.2       11 UNK         0.5000 
     68 O          -1.2976  -23.7544  -48.5061 O.2       11 UNK        -0.5000 
     69 N          -2.2605  -22.6513  -46.7755 N.am      12 UNK        -0.5000 
     70 CA         -3.5499  -23.3424  -46.7948 C.3       12 UNK         0.1400 
     71 CB         -4.5732  -22.6162  -45.9108 C.3       12 UNK        -0.1800 
     72 C          -3.4260  -24.8232  -46.4056 C.2       12 UNK         0.5000 
     73 O          -3.9914  -25.6767  -47.0893 O.2       12 UNK        -0.5000 
     74 N          -2.6520  -25.1054  -45.3500 N.am      13 UNK        -0.5000 
     75 CA         -2.3275  -26.4637  -44.9161 C.3       13 UNK         0.1400 
     76 CB         -1.6339  -26.4106  -43.5463 C.3       13 UNK        -0.1800 
     77 C          -1.4656  -27.2262  -45.9418 C.2       13 UNK         0.5000 
     78 O          -1.6857  -28.4204  -46.1477 O.2       13 UNK        -0.5000 
     79 N          -0.5073  -26.5256  -46.5633 N.am      14 UNK        -0.5000 
     80 CA          0.4236  -27.0829  -47.5411 C.3       14 UNK         0.1400 
     81 CB          1.6109  -26.1256  -47.7296 C.3       14 UNK        -0.1800 
     82 C          -0.2266  -27.4086  -48.8973 C.2       14 UNK         0.5000 
     83 O          -0.0461  -28.5222  -49.3930 O.2       14 UNK        -0.5000 
     84 N          -0.9298  -26.4358  -49.4951 N.am      15 UNK        -0.5000 
     85 CA         -1.3830  -26.5085  -50.8878 C.3       15 UNK         0.1400 
     86 CB         -0.2047  -26.1856  -51.8319 C.3       15 UNK        -0.1800 
     87 C          -2.6103  -25.6198  -51.1589 C.2       15 UNK         0.5000 
     88 O          -2.7265  -25.0561  -52.2500 O.2       15 UNK        -0.5000 
     89 N          -3.5006  -25.4819  -50.1630 N.am      16 UNK        -0.5000 
     90 CA         -4.7681  -24.7319  -50.2136 C.3       16 UNK         0.1400 
     91 CB         -5.7522  -25.4066  -51.1920 C.3       16 UNK        -0.1800 
     92 C          -4.6112  -23.2228  -50.5109 C.2       16 UNK         0.5000 
     93 O          -5.5905  -22.5737  -50.8808 O.2       16 UNK        -0.5000 
     94 N          -3.3824  -22.6979  -50.3632 N.am      17 UNK        -0.5000 
     95 CA         -2.9312  -21.3480  -50.7165 C.3       17 UNK         0.1400 
     96 CB         -3.3990  -20.3304  -49.6575 C.3       17 UNK        -0.1800 
     97 C          -3.3137  -20.9527  -52.1580 C.2       17 UNK         0.5000 
     98 O          -3.7273  -19.8187  -52.3949 O.2       17 UNK        -0.5000 
     99 N          -3.2280  -21.9278  -53.0769 N.am      18 UNK        -0.5000 
    100 CA        -3.6883  -21.9244  -54.4714 C.3       18 UNK         0.1400 
    101 CB        -2.9620  -20.8609  -55.3169 C.3       18 UNK        -0.1800 
    102 C         -5.2197  -21.8183  -54.6279 C.2       18 UNK         0.5000 
    103 O         -5.8121  -22.6404  -55.3280 O.2       18 UNK        -0.5000 
    104 N         -5.8314  -20.8241  -53.9776 N.am      19 UNK        -0.5000 
    105 CA        -7.2632  -20.5388  -53.9979 C.3       19 UNK         0.1400 
    106 CB        -7.6262  -19.7660  -55.2822 C.3       19 UNK        -0.1800 
    107 C         -7.6753  -19.8031  -52.7100 C.2       19 UNK         0.5000 
    108 O         -8.3740  -18.7911  -52.7756 O.2       19 UNK        -0.5000 
    109 N         -7.2085  -20.3101  -51.5586 N.am      20 UNK        -0.5000 
    110 CA        -7.4419  -19.8255  -50.1885 C.3       20 UNK         0.1400 
    111 CB        -8.9458  -19.8116  -49.8457 C.3       20 UNK        -0.1800 
    112 C         -6.7578  -18.4854  -49.8366 C.2       20 UNK         0.5000 
    113 O         -6.8425  -18.0528  -48.6865 O.2       20 UNK        -0.5000 
    114 N         -6.0597  -17.8755  -50.7976 N.am      21 UNK        -0.5000 
    115 CA        -5.2558  -16.6686  -50.6715 C.3       21 UNK         0.1400 
    116 CB        -6.1505  -15.4227  -50.5379 C.3       21 UNK        -0.1800 
    117 C         -4.3769  -16.5830  -51.9247 C.2       21 UNK         0.5000 
    118 O         -4.8519  -16.9102  -53.0160 O.2       21 UNK        -0.5000 
    119 N         -3.1266  -16.1461  -51.7468 N.am      22 UNK        -0.5000 
    120 CA        -2.0998  -16.1023  -52.8016 C.3       22 UNK         0.1400 
    121 C         -1.3759  -14.7274  -52.9057 C.2       22 UNK         0.5000 
    122 N         -1.8383  -13.6815  -52.2307 N.am      22 UNK        -0.7600 
    123 O         -0.3871  -14.5929  -53.6203 O.2       22 UNK        -0.5000 
    124 C124       -1.1205  -17.3018  -52.6663 C.3       23 UNK        -0.0398 
    125 S125       -0.5747  -17.9587  -54.2754 S.3       23 UNK        -0.2404 
    126 C126        0.1508  -19.5539  -53.7709 C.3       23 UNK        -0.0205 
    127 H127       -0.9351  -17.3592  -48.8231 H         1 UNK         0.0600 
    128 H128        0.5438  -17.4215  -47.8560 H         1 UNK         0.0600 
    129 H129        0.5220  -18.0852  -49.4970 H         1 UNK         0.0600 
    130 H130        2.0708  -16.7494  -50.4932 H         1 UNK         0.3000 
    131 H131        1.1923  -14.2751  -51.4806 H         1 UNK         0.0600 
    132 H132        2.5715  -15.6678  -52.8562 H         1 UNK         0.0800 
    133 H133        3.4045  -14.1673  -52.6322 H         1 UNK         0.0800 
    134 H134        5.5491  -17.9319  -52.4246 H         1 UNK         0.0800 
    135 H135        4.5593  -17.1181  -53.6065 H         1 UNK         0.0800 
    136 H136        2.3133  -17.8890  -53.9822 H         1 UNK         0.1150 
    137 H137        0.6529  -20.9551  -51.4893 H         1 UNK         0.1150 
    138 H138        4.3957  -19.1397  -50.4544 H         1 UNK         0.1150 
    139 H139        2.1873  -22.0272  -49.8378 H         1 UNK         0.0800 
    140 H140        3.7172  -21.2869  -49.4637 H         1 UNK         0.0800 
    141 H141       -0.0324  -21.1092  -49.1971 H         1 UNK         0.0800 
    142 H142       -0.4016  -20.1546  -47.7827 H         1 UNK         0.0800 
    143 H143        0.8877  -22.9149  -47.6500 H         1 UNK         0.0600 
    144 H144        0.3767  -21.0136  -45.5920 H         1 UNK         0.3000 
    145 H145        0.5741  -23.4043  -42.8968 H         1 UNK         0.0600 
    146 H146        2.2184  -21.6932  -42.1987 H         1 UNK         0.0600 
    147 H147        2.8657  -22.6433  -43.5277 H         1 UNK         0.0600 
    148 H148        2.2598  -21.0193  -43.8258 H         1 UNK         0.0600 
    149 H149       -0.0205  -20.6244  -42.8677 H         1 UNK         0.3000 
    150 H150       -3.6015  -20.9534  -43.0624 H         1 UNK         0.0600 
    151 H151       -2.9061  -21.3518  -40.6900 H         1 UNK         0.0600 
    152 H152       -3.3896  -19.6843  -40.9584 H         1 UNK         0.0600 
    153 H153       -1.6808  -20.0967  -40.8354 H         1 UNK         0.0600 
    154 H154       -1.9976  -18.6345  -42.8272 H         1 UNK         0.3000 
    155 H155       -1.5321  -18.0499  -46.3572 H         1 UNK         0.0600 
    156 H156       -3.0656  -16.6061  -44.1328 H         1 UNK         0.0600 
    157 H157       -3.7403  -17.1059  -45.6798 H         1 UNK         0.0600 
    158 H158       -2.4793  -15.8818  -45.6283 H         1 UNK         0.0600 
    159 H159       -0.5476  -16.5779  -44.1688 H         1 UNK         0.3000 
    160 H160        2.5163  -18.3924  -43.6632 H         1 UNK         0.0600 
    161 H161        1.7733  -15.6118  -44.7230 H         1 UNK         0.0600 
    162 H162        2.8534  -16.7619  -45.4975 H         1 UNK         0.0600 
    163 H163        3.3018  -16.0465  -43.9567 H         1 UNK         0.0600 
    164 H164        1.2385  -16.1740  -42.3332 H         1 UNK         0.3000 
    165 H165       -0.2901  -18.0840  -39.7404 H         1 UNK         0.0600 
    166 H166        1.1248  -16.6046  -38.3437 H         1 UNK         0.0600 
    167 H167        2.1057  -17.8719  -39.0622 H         1 UNK         0.0600 
    168 H168        2.1628  -16.2420  -39.7229 H         1 UNK         0.0600 
    169 H169       -0.0646  -15.2695  -40.2205 H         1 UNK         0.3000 
    170 H170       -3.0112  -14.9287  -42.2017 H         1 UNK         0.0600 
    171 H171       -3.7860  -15.0503  -39.8261 H         1 UNK         0.0600 
    172 H172       -2.3847  -14.1184  -39.3123 H         1 UNK         0.0600 
    173 H173       -3.6007  -13.3881  -40.3608 H         1 UNK         0.0600 
    174 H174       -1.2861  -12.9365  -41.2414 H         1 UNK         0.3000 
    175 H175       -0.0987  -11.7428  -42.7900 H         1 UNK         0.0600 
    176 H176        2.2036  -13.7681  -43.0244 H         1 UNK         0.0600 
    177 H177        2.3832  -12.0277  -42.8186 H         1 UNK         0.0600 
    178 H178        1.6702  -12.9941  -41.5372 H         1 UNK         0.0600 
    179 H179        1.2796  -12.8723  -45.1025 H         1 UNK         0.3000 
    180 H180       -1.0139  -12.6821  -47.3748 H         1 UNK         0.0600 
    181 H181        0.2304   -9.8860  -47.2835 H         1 UNK         0.0600 
    182 H182       -1.4711  -10.2705  -47.4867 H         1 UNK         0.0600 
    183 H183       -0.3252  -10.7047  -48.7436 H         1 UNK         0.0600 
    184 H184        0.9282  -13.4709  -47.9336 H         1 UNK         0.3000 
    185 H185        4.1423  -12.2513  -48.2788 H         1 UNK         0.0600 
    186 H186        4.5314  -13.0331  -45.9415 H         1 UNK         0.0600 
    187 H187        3.5141  -14.4384  -46.2273 H         1 UNK         0.0600 
    188 H188        5.0334  -14.2524  -47.1018 H         1 UNK         0.0600 
    189 H189        2.9823  -14.8808  -48.5903 H         1 UNK         0.3000 
    190 H190       -2.1653  -21.8987  -46.0990 H         1 UNK         0.3000 
    191 H191       -3.9282  -23.3031  -47.8114 H         1 UNK         0.0600 
    192 H192       -4.2463  -22.5581  -44.8736 H         1 UNK         0.0600 
    193 H193       -5.5344  -23.1314  -45.9229 H         1 UNK         0.0600 
    194 H194       -4.7479  -21.6007  -46.2663 H         1 UNK         0.0600 
    195 H195       -2.2524  -24.3421  -44.8129 H         1 UNK         0.3000 
    196 H196       -3.2649  -27.0114  -44.7987 H         1 UNK         0.0600 
    197 H197       -1.4071  -27.4141  -43.1842 H         1 UNK         0.0600 
    198 H198       -2.2696  -25.9310  -42.8018 H         1 UNK         0.0600 
    199 H199       -0.6958  -25.8567  -43.5891 H         1 UNK         0.0600 
    200 H200       -0.3432  -25.5667  -46.2721 H         1 UNK         0.3000 
    201 H201        0.8170  -28.0159  -47.1315 H         1 UNK         0.0600 
    202 H202        2.1263  -25.9442  -46.7863 H         1 UNK         0.0600 
    203 H203        1.2930  -25.1631  -48.1291 H         1 UNK         0.0600 
    204 H204        2.3415  -26.5423  -48.4240 H         1 UNK         0.0600 
    205 H205       -1.0419  -25.5361  -49.0317 H         1 UNK         0.3000 
    206 H206       -1.7159  -27.5270  -51.0978 H         1 UNK         0.0600 
    207 H207        0.6309  -26.8682  -51.6776 H         1 UNK         0.0600 
    208 H208       -0.4977  -26.2765  -52.8786 H         1 UNK         0.0600 
    209 H209        0.1606  -25.1696  -51.6773 H         1 UNK         0.0600 
    210 H210       -3.3148  -25.9490  -49.2836 H         1 UNK         0.3000 
    211 H211       -5.2114  -24.7975  -49.2206 H         1 UNK         0.0600 
    212 H212       -5.4257  -25.3093  -52.2279 H         1 UNK         0.0600 
    213 H213       -6.7447  -24.9600  -51.1213 H         1 UNK         0.0600 
    214 H214       -5.8614  -26.4685  -50.9720 H         1 UNK         0.0600 
    215 H215       -2.6583  -23.3176  -50.0170 H         1 UNK         0.3000 
    216 H216       -1.8419  -21.3705  -50.6973 H         1 UNK         0.0600 
    217 H217       -3.0377  -19.3263  -49.8830 H         1 UNK         0.0600 
    218 H218       -3.0291  -20.5904  -48.6662 H         1 UNK         0.0600 
    219 H219       -4.4849  -20.2867  -49.6020 H         1 UNK         0.0600 
    220 H220       -2.9335  -22.8394  -52.7447 H         1 UNK         0.3000 
    221 H221       -3.4055  -22.9000  -54.8702 H         1 UNK         0.0600 
    222 H222       -3.1482  -19.8483  -54.9583 H         1 UNK         0.0600 
    223 H223       -1.8856  -21.0271  -55.3147 H         1 UNK         0.0600 
    224 H224       -3.2909  -20.9009  -56.3559 H         1 UNK         0.0600 
    225 H225       -5.2500  -20.2133  -53.4069 H         1 UNK         0.3000 
    226 H226       -7.8115  -21.4830  -53.9982 H         1 UNK         0.0600 
    227 H227       -7.3708  -20.3360  -56.1754 H         1 UNK         0.0600 
    228 H228       -8.6962  -19.5599  -55.3283 H         1 UNK         0.0600 
    229 H229       -7.1020  -18.8108  -55.3331 H         1 UNK         0.0600 
    230 H230       -6.6216  -21.1413  -51.6005 H         1 UNK         0.3000 
    231 H231       -6.9757  -20.5683  -49.5399 H         1 UNK         0.0600 
    232 H232       -9.4107  -20.7717  -50.0696 H         1 UNK         0.0600 
    233 H233       -9.4832  -19.0395  -50.3965 H         1 UNK         0.0600 
    234 H234       -9.1013  -19.6173  -48.7840 H         1 UNK         0.0600 
    235 H235       -6.0236  -18.2938  -51.7187 H         1 UNK         0.3000 
    236 H236       -4.6187  -16.7622  -49.7895 H         1 UNK         0.0600 
    237 H237       -5.5495  -14.5140  -50.4893 H         1 UNK         0.0600 
    238 H238       -6.8282  -15.3248  -51.3871 H         1 UNK         0.0600 
    239 H239       -6.7542  -15.4586  -49.6312 H         1 UNK         0.0600 
    240 H240       -2.8194  -15.8713  -50.8248 H         1 UNK         0.3000 
    241 H241       -2.6053  -16.1916  -53.7646 H         1 UNK         0.0600 
    242 H242       -1.3676  -12.7948  -52.3161 H         1 UNK         0.3800 
    243 H243       -2.6740  -13.7489  -51.6733 H         1 UNK         0.3800 
    244 H244       -0.2456  -17.0387  -52.0725 H         1 UNK         0.0800 
    245 H245       -1.6019  -18.1242  -52.1356 H         1 UNK         0.0800 
    246 H246        0.4809  -20.0854  -54.6641 H         1 UNK         0.0800 
    247 H247       -0.6314  -20.1650  -53.3200 H         1 UNK         0.0800 
@<TRIPOS>BOND
     1    1    2 1    
     2    1  127 1    
     3    1  128 1    
     4    1  129 1    
     5    2    3 2    
     6    2    4 am   BACKBONE|DICT|INTERRES
     7    4    5 1    
     8    4  130 1    
     9    5    6 1    
    10    5   65 1    
    11    5  131 1    
    12    6    7 1    
    13    6  132 1    
    14    6  133 1    
    15    7    8 1    
    16    8    9 1    
    17    8  134 1    
    18    8  135 1    
    19    9   10 ar   
    20    9   14 ar   
    21   10   11 ar   
    22   10  136 1    
    23   11   12 ar   
    24   11  126 1    
    25   12   13 ar   
    26   12  137 1    
    27   13   14 ar   
    28   13   15 1    
    29   14  138 1    
    30   15   16 1    
    31   15  139 1    
    32   15  140 1    
    33   16   17 1    
    34   17   18 1    
    35   17  141 1    
    36   17  142 1    
    37   18   19 1    
    38   18   67 1    
    39   18  143 1    
    40   19   20 am   BACKBONE|DICT|INTERRES
    41   19  144 1    
    42   20   21 2    
    43   20   22 1    
    44   22   23 1    
    45   22   24 1    
    46   22  145 1    
    47   23  146 1    
    48   23  147 1    
    49   23  148 1    
    50   24   25 am   BACKBONE|DICT|INTERRES
    51   24  149 1    
    52   25   26 2    
    53   25   27 1    
    54   27   28 1    
    55   27   29 1    
    56   27  150 1    
    57   28  151 1    
    58   28  152 1    
    59   28  153 1    
    60   29   30 am   BACKBONE|DICT|INTERRES
    61   29  154 1    
    62   30   31 2    
    63   30   32 1    
    64   32   33 1    
    65   32   34 1    
    66   32  155 1    
    67   33  156 1    
    68   33  157 1    
    69   33  158 1    
    70   34   35 am   BACKBONE|DICT|INTERRES
    71   34  159 1    
    72   35   36 2    
    73   35   37 1    
    74   37   38 1    
    75   37   39 1    
    76   37  160 1    
    77   38  161 1    
    78   38  162 1    
    79   38  163 1    
    80   39   40 am   BACKBONE|DICT|INTERRES
    81   39  164 1    
    82   40   41 2    
    83   40   42 1    
    84   42   43 1    
    85   42   44 1    
    86   42  165 1    
    87   43  166 1    
    88   43  167 1    
    89   43  168 1    
    90   44   45 am   BACKBONE|DICT|INTERRES
    91   44  169 1    
    92   45   46 2    
    93   45   47 1    
    94   47   48 1    
    95   47   49 1    
    96   47  170 1    
    97   48  171 1    
    98   48  172 1    
    99   48  173 1    
   100   49   50 am   BACKBONE|DICT|INTERRES
   101   49  174 1    
   102   50   51 2    
   103   50   52 1    
   104   52   53 1    
   105   52   54 1    
   106   52  175 1    
   107   53  176 1    
   108   53  177 1    
   109   53  178 1    
   110   54   55 am   BACKBONE|DICT|INTERRES
   111   54  179 1    
   112   55   56 2    
   113   55   57 1    
   114   57   58 1    
   115   57   59 1    
   116   57  180 1    
   117   58  181 1    
   118   58  182 1    
   119   58  183 1    
   120   59   60 am   BACKBONE|DICT|INTERRES
   121   59  184 1    
   122   60   61 2    
   123   60   62 1    
   124   62   63 1    
   125   62   64 1    
   126   62  185 1    
   127   63  186 1    
   128   63  187 1    
   129   63  188 1    
   130   64   65 am   BACKBONE|DICT|INTERRES
   131   64  189 1    
   132   65   66 2    
   133   67   68 2    
   134   67   69 am   BACKBONE|DICT|INTERRES
   135   69   70 1    
   136   69  190 1    
   137   70   71 1    
   138   70   72 1    
   139   70  191 1    
   140   71  192 1    
   141   71  193 1    
   142   71  194 1    
   143   72   73 2    
   144   72   74 am   BACKBONE|DICT|INTERRES
   145   74   75 1    
   146   74  195 1    
   147   75   76 1    
   148   75   77 1    
   149   75  196 1    
   150   76  197 1    
   151   76  198 1    
   152   76  199 1    
   153   77   78 2    
   154   77   79 am   BACKBONE|DICT|INTERRES
   155   79   80 1    
   156   79  200 1    
   157   80   81 1    
   158   80   82 1    
   159   80  201 1    
   160   81  202 1    
   161   81  203 1    
   162   81  204 1    
   163   82   83 2    
   164   82   84 am   BACKBONE|DICT|INTERRES
   165   84   85 1    
   166   84  205 1    
   167   85   86 1    
   168   85   87 1    
   169   85  206 1    
   170   86  207 1    
   171   86  208 1    
   172   86  209 1    
   173   87   88 2    
   174   87   89 am   BACKBONE|DICT|INTERRES
   175   89   90 1    
   176   89  210 1    
   177   90   91 1    
   178   90   92 1    
   179   90  211 1    
   180   91  212 1    
   181   91  213 1    
   182   91  214 1    
   183   92   93 2    
   184   92   94 am   BACKBONE|DICT|INTERRES
   185   94   95 1    
   186   94  215 1    
   187   95   96 1    
   188   95   97 1    
   189   95  216 1    
   190   96  217 1    
   191   96  218 1    
   192   96  219 1    
   193   97   98 2    
   194   97   99 am   BACKBONE|DICT|INTERRES
   195   99  100 1    
   196   99  220 1    
   197  100  101 1    
   198  100  102 1    
   199  100  221 1    
   200  101  222 1    
   201  101  223 1    
   202  101  224 1    
   203  102  103 2    
   204  102  104 am   BACKBONE|DICT|INTERRES
   205  104  105 1    
   206  104  225 1    
   207  105  106 1    
   208  105  107 1    
   209  105  226 1    
   210  106  227 1    
   211  106  228 1    
   212  106  229 1    
   213  107  108 2    
   214  107  109 am   BACKBONE|DICT|INTERRES
   215  109  110 1    
   216  109  230 1    
   217  110  111 1    
   218  110  112 1    
   219  110  231 1    
   220  111  232 1    
   221  111  233 1    
   222  111  234 1    
   223  112  113 2    
   224  112  114 am   BACKBONE|DICT|INTERRES
   225  114  115 1    
   226  114  235 1    
   227  115  116 1    
   228  115  117 1    
   229  115  236 1    
   230  116  237 1    
   231  116  238 1    
   232  116  239 1    
   233  117  118 2    
   234  117  119 am   BACKBONE|DICT|INTERRES
   235  119  120 1    
   236  119  240 1    
   237  120  121 1    
   238  120  124 1    
   239  120  241 1    
   240  121  122 am   BACKBONE|DICT|INTERRES
   241  121  123 2    
   242  122  242 1    
   243  122  243 1    
   244  124  125 1    
   245  124  244 1    
   246  124  245 1    
   247  125  126 1    
   248  126  246 1    
   249  126  247 1    
@<TRIPOS>SUBSTRUCTURE
     1 UNK         1 GROUP             0       ****    0 ROOT    
