@<TRIPOS>MOLECULE
3R540
247   249    1
SMALL
USER_CHARGES


@<TRIPOS>ATOM
      1 CA         -5.1182  -12.6054  -48.0466 C.3       0 UNK        -0.1800 
      2 C          -3.8290  -12.9612  -47.3212 C.2       0 UNK         0.5000 
      3 O          -3.4663  -12.2945  -46.3524 O.2       0 UNK        -0.5000 
      4 N          -3.1432  -14.0207  -47.7725 N.am      1 UNK        -0.5000 
      5 CA         -1.8511  -14.4938  -47.2470 C.3       1 UNK         0.1400 
      6 C6         -1.2336  -15.6077  -48.1306 C.3       23 UNK        -0.0398 
      7 S7         -1.0316  -15.0529  -49.8619 S.3       23 UNK        -0.2404 
      8 C8          0.7727  -15.0531  -50.0884 C.3       23 UNK        -0.0205 
      9 C9          1.2969  -16.3959  -50.5810 C.ar      23 UNK        -0.0193 
     10 C10         1.2271  -16.7221  -51.9391 C.ar      23 UNK        -0.1150 
     11 C11         1.7858  -17.9123  -52.4163 C.ar      23 UNK        -0.0193 
     12 C12         2.4090  -18.7841  -51.5177 C.ar      23 UNK        -0.1150 
     13 C13         2.4630  -18.4849  -50.1541 C.ar      23 UNK        -0.0193 
     14 C14         1.9065  -17.2863  -49.6941 C.ar      23 UNK        -0.1150 
     15 C15         3.1541  -19.4392  -49.1865 C.3       23 UNK        -0.0205 
     16 S16         2.3245  -21.0598  -49.0628 S.3       23 UNK        -0.2404 
     17 C17         0.6145  -20.5683  -48.6771 C.3       23 UNK        -0.0398 
     18 CA         -0.1448  -21.6120  -47.8243 C.3       11 UNK         0.1400 
     19 N           0.3491  -21.6863  -46.4420 N.am      11 UNK        -0.5000 
     20 C          -0.0487  -22.5971  -45.5406 C.2       10 UNK         0.5000 
     21 O          -0.8497  -23.4953  -45.7913 O.2       10 UNK        -0.5000 
     22 CA          0.4783  -22.4506  -44.1008 C.3       10 UNK         0.1400 
     23 CB          1.8943  -23.0287  -43.9660 C.3       10 UNK        -0.1800 
     24 N           0.4470  -21.0678  -43.6213 N.am      10 UNK        -0.5000 
     25 C          -0.6703  -20.3389  -43.4806 C.2       9 UNK         0.5000 
     26 O          -1.7981  -20.7667  -43.7197 O.2       9 UNK        -0.5000 
     27 CA         -0.5012  -18.8727  -43.0517 C.3       9 UNK         0.1400 
     28 CB         -0.3747  -18.7529  -41.5256 C.3       9 UNK        -0.1800 
     29 N           0.6490  -18.2528  -43.7033 N.am      9 UNK        -0.5000 
     30 C           0.7041  -17.9653  -45.0111 C.2       8 UNK         0.5000 
     31 O          -0.2354  -18.1253  -45.7927 O.2       8 UNK        -0.5000 
     32 CA          2.0669  -17.4990  -45.5516 C.3       8 UNK         0.1400 
     33 CB          2.2584  -15.9886  -45.3934 C.3       8 UNK        -0.1800 
     34 N           3.1913  -18.1969  -44.9307 N.am      8 UNK        -0.5000 
     35 C           3.4537  -19.4957  -45.1264 C.2       7 UNK         0.5000 
     36 O           2.7706  -20.2237  -45.8432 O.2       7 UNK        -0.5000 
     37 CA          4.6500  -20.0946  -44.3668 C.3       7 UNK         0.1400 
     38 CB          5.9406  -19.9246  -45.1814 C.3       7 UNK        -0.1800 
     39 N           4.8422  -19.5312  -43.0297 N.am      7 UNK        -0.5000 
     40 C           3.9357  -19.5517  -42.0431 C.2       6 UNK         0.5000 
     41 O           2.8063  -20.0281  -42.1676 O.2       6 UNK        -0.5000 
     42 CA          4.3467  -18.9442  -40.6875 C.3       6 UNK         0.1400 
     43 CB          5.8262  -18.5017  -40.6106 C.3       6 UNK        -0.1800 
     44 N           3.4689  -17.8441  -40.2785 N.am      6 UNK        -0.5000 
     45 C           3.2408  -16.6960  -40.9329 C.2       5 UNK         0.5000 
     46 O           3.6785  -16.4419  -42.0586 O.2       5 UNK        -0.5000 
     47 CA          2.4203  -15.6497  -40.1515 C.3       5 UNK         0.1400 
     48 CB          3.1715  -15.2009  -38.8847 C.3       5 UNK        -0.1800 
     49 N           2.1225  -14.4554  -40.9409 N.am      5 UNK        -0.5000 
     50 C           1.1069  -14.3417  -41.8017 C.2       4 UNK         0.5000 
     51 O           0.3227  -15.2569  -42.0576 O.2       4 UNK        -0.5000 
     52 CA          0.9393  -12.9634  -42.4653 C.3       4 UNK         0.1400 
     53 CB          1.8063  -12.8307  -43.7262 C.3       4 UNK        -0.1800 
     54 N          -0.4579  -12.7589  -42.8323 N.am      4 UNK        -0.5000 
     55 C          -1.3381  -12.0320  -42.1315 C.2       3 UNK         0.5000 
     56 O          -1.0348  -11.3558  -41.1473 O.2       3 UNK        -0.5000 
     57 CA         -2.8092  -12.0591  -42.5959 C.3       3 UNK         0.1400 
     58 CB         -3.1401  -10.7950  -43.4034 C.3       3 UNK        -0.1800 
     59 N          -3.1394  -13.2402  -43.3955 N.am      3 UNK        -0.5000 
     60 C          -3.2237  -14.4863  -42.9042 C.2       2 UNK         0.5000 
     61 O          -3.1444  -14.7454  -41.7029 O.2       2 UNK        -0.5000 
     62 CA         -3.4380  -15.6419  -43.9056 C.3       2 UNK         0.1400 
     63 CB         -4.8942  -16.1276  -43.8332 C.3       2 UNK        -0.1800 
     64 N          -3.1198  -15.3155  -45.2989 N.am      2 UNK        -0.5000 
     65 C          -1.9225  -14.9276  -45.7657 C.2       1 UNK         0.5000 
     66 O          -0.9191  -14.8306  -45.0626 O.2       1 UNK        -0.5000 
     67 C          -1.6620  -21.3373  -47.9008 C.2       11 UNK         0.5000 
     68 O          -2.3170  -21.8285  -48.8203 O.2       11 UNK        -0.5000 
     69 N          -2.2010  -20.5593  -46.9531 N.am      12 UNK        -0.5000 
     70 CA         -3.6362  -20.3097  -46.8418 C.3       12 UNK         0.1400 
     71 CB         -3.8768  -19.0438  -46.0090 C.3       12 UNK        -0.1800 
     72 C          -4.3811  -21.5238  -46.2552 C.2       12 UNK         0.5000 
     73 O          -5.4180  -21.9179  -46.7901 O.2       12 UNK        -0.5000 
     74 N          -3.8279  -22.1098  -45.1839 N.am      13 UNK        -0.5000 
     75 CA         -4.3746  -23.2740  -44.4833 C.3       13 UNK         0.1400 
     76 CB         -3.5703  -23.5198  -43.1983 C.3       13 UNK        -0.1800 
     77 C          -4.4165  -24.5500  -45.3438 C.2       13 UNK         0.5000 
     78 O          -5.3552  -25.3374  -45.2124 O.2       13 UNK        -0.5000 
     79 N          -3.4236  -24.7231  -46.2262 N.am      14 UNK        -0.5000 
     80 CA         -3.3025  -25.8207  -47.1870 C.3       14 UNK         0.1400 
     81 CB         -1.8417  -25.8997  -47.6669 C.3       14 UNK        -0.1800 
     82 C          -4.2974  -25.6891  -48.3600 C.2       14 UNK         0.5000 
     83 O          -3.8817  -25.5788  -49.5131 O.2       14 UNK        -0.5000 
     84 N          -5.5989  -25.6858  -48.0399 N.am      15 UNK        -0.5000 
     85 CA         -6.7454  -25.6362  -48.9556 C.3       15 UNK         0.1400 
     86 CB         -6.8796  -26.9767  -49.7077 C.3       15 UNK        -0.1800 
     87 C          -6.7310  -24.4176  -49.9054 C.2       15 UNK         0.5000 
     88 O          -7.1368  -24.5344  -51.0632 O.2       15 UNK        -0.5000 
     89 N          -6.2545  -23.2727  -49.3933 N.am      16 UNK        -0.5000 
     90 CA         -6.0885  -21.9972  -50.0933 C.3       16 UNK         0.1400 
     91 CB         -7.4558  -21.3953  -50.4807 C.3       16 UNK        -0.1800 
     92 C          -5.1031  -22.0601  -51.2781 C.2       16 UNK         0.5000 
     93 O          -5.2819  -21.3257  -52.2519 O.2       16 UNK        -0.5000 
     94 N          -4.0498  -22.8882  -51.1665 N.am      17 UNK        -0.5000 
     95 CA         -2.9482  -23.0148  -52.1329 C.3       17 UNK         0.1400 
     96 CB         -1.8862  -23.9871  -51.5979 C.3       17 UNK        -0.1800 
     97 C          -2.2987  -21.6726  -52.5214 C.2       17 UNK         0.5000 
     98 O          -1.9425  -21.4964  -53.6846 O.2       17 UNK        -0.5000 
     99 N          -2.2656  -20.7317  -51.5673 N.am      18 UNK        -0.5000 
    100 CA        -1.9105  -19.3175  -51.7210 C.3       18 UNK         0.1400 
    101 CB        -2.2506  -18.5965  -50.4063 C.3       18 UNK        -0.1800 
    102 C         -2.5949  -18.5771  -52.8931 C.2       18 UNK         0.5000 
    103 O         -2.0254  -17.6102  -53.3989 O.2       18 UNK        -0.5000 
    104 N         -3.7989  -19.0203  -53.2809 N.am      19 UNK        -0.5000 
    105 CA        -4.5581  -18.5013  -54.4177 C.3       19 UNK         0.1400 
    106 CB        -5.8644  -17.8812  -53.8967 C.3       19 UNK        -0.1800 
    107 C         -4.8643  -19.5969  -55.4553 C.2       19 UNK         0.5000 
    108 O         -4.9621  -19.2893  -56.6438 O.2       19 UNK        -0.5000 
    109 N         -5.0459  -20.8460  -55.0045 N.am      20 UNK        -0.5000 
    110 CA        -5.4436  -21.9725  -55.8475 C.3       20 UNK         0.1400 
    111 CB        -6.1120  -23.0439  -54.9714 C.3       20 UNK        -0.1800 
    112 C         -4.2843  -22.5862  -56.6530 C.2       20 UNK         0.5000 
    113 O         -4.5277  -23.0870  -57.7519 O.2       20 UNK        -0.5000 
    114 N         -3.0637  -22.5655  -56.1004 N.am      21 UNK        -0.5000 
    115 CA        -1.8811  -23.2102  -56.6795 C.3       21 UNK         0.1400 
    116 CB        -1.3121  -24.2090  -55.6574 C.3       21 UNK        -0.1800 
    117 C         -0.7986  -22.2021  -57.1043 C.2       21 UNK         0.5000 
    118 O          0.1203  -22.5867  -57.8298 O.2       21 UNK        -0.5000 
    119 N         -0.9079  -20.9445  -56.6659 N.am      22 UNK        -0.5000 
    120 CA         0.0429  -19.8639  -56.9528 C.3       22 UNK         0.1400 
    121 C         -0.6358  -18.4667  -56.9322 C.2       22 UNK         0.5000 
    122 N          0.0919  -17.4072  -57.2620 N.am      22 UNK        -0.7600 
    123 O         -1.8223  -18.3282  -56.6482 O.2       22 UNK        -0.5000 
    124 C124        1.3249  -19.9566  -56.0779 C.3       23 UNK        -0.0398 
    125 S125        1.0264  -19.8447  -54.2775 S.3       23 UNK        -0.2404 
    126 C126        1.7703  -18.2248  -53.9068 C.3       23 UNK        -0.0205 
    127 H127       -5.3174  -13.2843  -48.8762 H         1 UNK         0.0600 
    128 H128       -5.0568  -11.5921  -48.4432 H         1 UNK         0.0600 
    129 H129       -5.9612  -12.6527  -47.3573 H         1 UNK         0.0600 
    130 H130       -3.4842  -14.5167  -48.5839 H         1 UNK         0.3000 
    131 H131       -1.1712  -13.6394  -47.2772 H         1 UNK         0.0600 
    132 H132       -1.8660  -16.4970  -48.1238 H         1 UNK         0.0800 
    133 H133       -0.2676  -15.9245  -47.7342 H         1 UNK         0.0800 
    134 H134        1.2681  -14.7544  -49.1633 H         1 UNK         0.0800 
    135 H135        1.0259  -14.2853  -50.8210 H         1 UNK         0.0800 
    136 H136        0.7574  -16.0339  -52.6280 H         1 UNK         0.1150 
    137 H137        2.8534  -19.7004  -51.8807 H         1 UNK         0.1150 
    138 H138        1.9685  -17.0253  -48.6504 H         1 UNK         0.1150 
    139 H139        4.1810  -19.5975  -49.5181 H         1 UNK         0.0800 
    140 H140        3.2247  -18.9988  -48.1931 H         1 UNK         0.0800 
    141 H141        0.1266  -20.4257  -49.6426 H         1 UNK         0.0800 
    142 H142        0.6102  -19.5974  -48.1781 H         1 UNK         0.0800 
    143 H143        0.0110  -22.5946  -48.2750 H         1 UNK         0.0600 
    144 H144        1.0730  -21.0214  -46.1802 H         1 UNK         0.3000 
    145 H145       -0.1776  -23.0301  -43.4484 H         1 UNK         0.0600 
    146 H146        2.2821  -22.9002  -42.9553 H         1 UNK         0.0600 
    147 H147        1.8957  -24.0974  -44.1830 H         1 UNK         0.0600 
    148 H148        2.5919  -22.5593  -44.6575 H         1 UNK         0.0600 
    149 H149        1.3336  -20.6509  -43.3560 H         1 UNK         0.3000 
    150 H150       -1.3979  -18.3326  -43.3596 H         1 UNK         0.0600 
    151 H151       -1.2384  -19.1971  -41.0294 H         1 UNK         0.0600 
    152 H152       -0.3257  -17.7100  -41.2146 H         1 UNK         0.0600 
    153 H153        0.5141  -19.2573  -41.1474 H         1 UNK         0.0600 
    154 H154        1.4809  -18.1312  -43.1440 H         1 UNK         0.3000 
    155 H155        2.0822  -17.7313  -46.6141 H         1 UNK         0.0600 
    156 H156        2.2113  -15.6941  -44.3451 H         1 UNK         0.0600 
    157 H157        1.4849  -15.4418  -45.9315 H         1 UNK         0.0600 
    158 H158        3.2197  -15.6648  -45.7921 H         1 UNK         0.0600 
    159 H159        3.7626  -17.6700  -44.2834 H         1 UNK         0.3000 
    160 H160        4.4635  -21.1629  -44.2469 H         1 UNK         0.0600 
    161 H161        6.2046  -18.8734  -45.3034 H         1 UNK         0.0600 
    162 H162        5.8315  -20.3536  -46.1787 H         1 UNK         0.0600 
    163 H163        6.7798  -20.4293  -44.7024 H         1 UNK         0.0600 
    164 H164        5.7382  -19.1042  -42.8453 H         1 UNK         0.3000 
    165 H165        4.2057  -19.7380  -39.9527 H         1 UNK         0.0600 
    166 H166        6.0545  -17.6976  -41.3111 H         1 UNK         0.0600 
    167 H167        6.0705  -18.1422  -39.6109 H         1 UNK         0.0600 
    168 H168        6.5002  -19.3331  -40.8209 H         1 UNK         0.0600 
    169 H169        3.0299  -17.9684  -39.3772 H         1 UNK         0.3000 
    170 H170        1.4811  -16.1181  -39.8487 H         1 UNK         0.0600 
    171 H171        4.1412  -14.7635  -39.1265 H         1 UNK         0.0600 
    172 H172        2.5986  -14.4575  -38.3298 H         1 UNK         0.0600 
    173 H173        3.3492  -16.0355  -38.2057 H         1 UNK         0.0600 
    174 H174        2.7543  -13.6771  -40.8232 H         1 UNK         0.3000 
    175 H175        1.2620  -12.2020  -41.7521 H         1 UNK         0.0600 
    176 H176        2.8388  -13.1256  -43.5346 H         1 UNK         0.0600 
    177 H177        1.8219  -11.7995  -44.0789 H         1 UNK         0.0600 
    178 H178        1.4281  -13.4475  -44.5399 H         1 UNK         0.0600 
    179 H179       -0.8010  -13.3674  -43.5684 H         1 UNK         0.3000 
    180 H180       -3.4373  -12.0651  -41.7027 H         1 UNK         0.0600 
    181 H181       -4.1847  -10.7861  -43.7152 H         1 UNK         0.0600 
    182 H182       -2.5220  -10.7180  -44.2987 H         1 UNK         0.0600 
    183 H183       -2.9697   -9.8963  -42.8094 H         1 UNK         0.0600 
    184 H184       -3.2307  -13.0958  -44.3952 H         1 UNK         0.3000 
    185 H185       -2.7821  -16.4586  -43.6011 H         1 UNK         0.0600 
    186 H186       -5.0622  -16.9890  -44.4761 H         1 UNK         0.0600 
    187 H187       -5.1565  -16.4290  -42.8182 H         1 UNK         0.0600 
    188 H188       -5.5925  -15.3452  -44.1334 H         1 UNK         0.0600 
    189 H189       -3.8929  -15.3267  -45.9475 H         1 UNK         0.3000 
    190 H190       -1.6059  -20.1696  -46.2340 H         1 UNK         0.3000 
    191 H191       -4.0349  -20.1239  -47.8412 H         1 UNK         0.0600 
    192 H192       -4.9419  -18.8154  -45.9632 H         1 UNK         0.0600 
    193 H193       -3.3751  -18.1814  -46.4487 H         1 UNK         0.0600 
    194 H194       -3.5176  -19.1513  -44.9856 H         1 UNK         0.0600 
    195 H195       -2.9921  -21.6942  -44.7785 H         1 UNK         0.3000 
    196 H196       -5.4019  -23.0356  -44.2006 H         1 UNK         0.0600 
    197 H197       -2.5258  -23.7428  -43.4169 H         1 UNK         0.0600 
    198 H198       -3.5970  -22.6490  -42.5431 H         1 UNK         0.0600 
    199 H199       -3.9764  -24.3622  -42.6369 H         1 UNK         0.0600 
    200 H200       -2.6574  -24.0555  -46.2188 H         1 UNK         0.3000 
    201 H201       -3.5330  -26.7562  -46.6737 H         1 UNK         0.0600 
    202 H202       -1.7016  -26.7211  -48.3706 H         1 UNK         0.0600 
    203 H203       -1.5339  -24.9799  -48.1666 H         1 UNK         0.0600 
    204 H204       -1.1617  -26.0703  -46.8321 H         1 UNK         0.0600 
    205 H205       -5.8218  -25.7181  -47.0486 H         1 UNK         0.3000 
    206 H206       -7.6310  -25.5190  -48.3297 H         1 UNK         0.0600 
    207 H207       -6.9118  -27.8167  -49.0139 H         1 UNK         0.0600 
    208 H208       -7.7982  -27.0082  -50.2947 H         1 UNK         0.0600 
    209 H209       -6.0467  -27.1391  -50.3928 H         1 UNK         0.0600 
    210 H210       -5.9482  -23.2676  -48.4269 H         1 UNK         0.3000 
    211 H211       -5.6310  -21.3166  -49.3758 H         1 UNK         0.0600 
    212 H212       -8.1239  -21.3491  -49.6208 H         1 UNK         0.0600 
    213 H213       -7.9491  -21.9761  -51.2604 H         1 UNK         0.0600 
    214 H214       -7.3429  -20.3775  -50.8563 H         1 UNK         0.0600 
    215 H215       -3.9827  -23.4754  -50.3440 H         1 UNK         0.3000 
    216 H216       -3.3653  -23.4446  -53.0445 H         1 UNK         0.0600 
    217 H217       -1.0230  -24.0342  -52.2629 H         1 UNK         0.0600 
    218 H218       -2.2838  -24.9985  -51.5208 H         1 UNK         0.0600 
    219 H219       -1.5254  -23.6910  -50.6127 H         1 UNK         0.0600 
    220 H220       -2.5477  -21.0240  -50.6371 H         1 UNK         0.3000 
    221 H221       -0.8332  -19.2612  -51.8843 H         1 UNK         0.0600 
    222 H222       -1.5860  -18.8872  -49.5961 H         1 UNK         0.0600 
    223 H223       -3.2756  -18.7953  -50.0912 H         1 UNK         0.0600 
    224 H224       -2.1554  -17.5192  -50.5219 H         1 UNK         0.0600 
    225 H225       -4.2006  -19.8174  -52.7986 H         1 UNK         0.3000 
    226 H226       -3.9929  -17.7231  -54.9344 H         1 UNK         0.0600 
    227 H227       -5.6619  -17.0566  -53.2130 H         1 UNK         0.0600 
    228 H228       -6.4642  -17.4846  -54.7169 H         1 UNK         0.0600 
    229 H229       -6.4736  -18.6146  -53.3663 H         1 UNK         0.0600 
    230 H230       -5.0300  -21.0216  -54.0030 H         1 UNK         0.3000 
    231 H231       -6.1899  -21.6211  -56.5634 H         1 UNK         0.0600 
    232 H232       -5.4225  -23.4523  -54.2328 H         1 UNK         0.0600 
    233 H233       -6.4722  -23.8759  -55.5777 H         1 UNK         0.0600 
    234 H234       -6.9699  -22.6372  -54.4354 H         1 UNK         0.0600 
    235 H235       -2.9201  -22.1060  -55.2056 H         1 UNK         0.3000 
    236 H236       -2.1515  -23.7735  -57.5746 H         1 UNK         0.0600 
    237 H237       -2.0689  -24.9269  -55.3410 H         1 UNK         0.0600 
    238 H238       -0.4853  -24.7764  -56.0864 H         1 UNK         0.0600 
    239 H239       -0.9327  -23.7057  -54.7683 H         1 UNK         0.0600 
    240 H240       -1.6861  -20.6812  -56.0768 H         1 UNK         0.3000 
    241 H241        0.3509  -19.9900  -57.9926 H         1 UNK         0.0600 
    242 H242        1.0586  -17.4847  -57.5355 H         1 UNK         0.3800 
    243 H243       -0.3482  -16.5004  -57.2586 H         1 UNK         0.3800 
    244 H244        1.8189  -20.9107  -56.2647 H         1 UNK         0.0800 
    245 H245        2.0510  -19.2019  -56.3814 H         1 UNK         0.0800 
    246 H246        2.7969  -18.2038  -54.2748 H         1 UNK         0.0800 
    247 H247        1.2229  -17.4563  -54.4549 H         1 UNK         0.0800 
@<TRIPOS>BOND
     1    1    2 1    
     2    1  127 1    
     3    1  128 1    
     4    1  129 1    
     5    2    3 2    
     6    2    4 am   BACKBONE|DICT|INTERRES
     7    4    5 1    
     8    4  130 1    
     9    5    6 1    
    10    5   65 1    
    11    5  131 1    
    12    6    7 1    
    13    6  132 1    
    14    6  133 1    
    15    7    8 1    
    16    8    9 1    
    17    8  134 1    
    18    8  135 1    
    19    9   10 ar   
    20    9   14 ar   
    21   10   11 ar   
    22   10  136 1    
    23   11   12 ar   
    24   11  126 1    
    25   12   13 ar   
    26   12  137 1    
    27   13   14 ar   
    28   13   15 1    
    29   14  138 1    
    30   15   16 1    
    31   15  139 1    
    32   15  140 1    
    33   16   17 1    
    34   17   18 1    
    35   17  141 1    
    36   17  142 1    
    37   18   19 1    
    38   18   67 1    
    39   18  143 1    
    40   19   20 am   BACKBONE|DICT|INTERRES
    41   19  144 1    
    42   20   21 2    
    43   20   22 1    
    44   22   23 1    
    45   22   24 1    
    46   22  145 1    
    47   23  146 1    
    48   23  147 1    
    49   23  148 1    
    50   24   25 am   BACKBONE|DICT|INTERRES
    51   24  149 1    
    52   25   26 2    
    53   25   27 1    
    54   27   28 1    
    55   27   29 1    
    56   27  150 1    
    57   28  151 1    
    58   28  152 1    
    59   28  153 1    
    60   29   30 am   BACKBONE|DICT|INTERRES
    61   29  154 1    
    62   30   31 2    
    63   30   32 1    
    64   32   33 1    
    65   32   34 1    
    66   32  155 1    
    67   33  156 1    
    68   33  157 1    
    69   33  158 1    
    70   34   35 am   BACKBONE|DICT|INTERRES
    71   34  159 1    
    72   35   36 2    
    73   35   37 1    
    74   37   38 1    
    75   37   39 1    
    76   37  160 1    
    77   38  161 1    
    78   38  162 1    
    79   38  163 1    
    80   39   40 am   BACKBONE|DICT|INTERRES
    81   39  164 1    
    82   40   41 2    
    83   40   42 1    
    84   42   43 1    
    85   42   44 1    
    86   42  165 1    
    87   43  166 1    
    88   43  167 1    
    89   43  168 1    
    90   44   45 am   BACKBONE|DICT|INTERRES
    91   44  169 1    
    92   45   46 2    
    93   45   47 1    
    94   47   48 1    
    95   47   49 1    
    96   47  170 1    
    97   48  171 1    
    98   48  172 1    
    99   48  173 1    
   100   49   50 am   BACKBONE|DICT|INTERRES
   101   49  174 1    
   102   50   51 2    
   103   50   52 1    
   104   52   53 1    
   105   52   54 1    
   106   52  175 1    
   107   53  176 1    
   108   53  177 1    
   109   53  178 1    
   110   54   55 am   BACKBONE|DICT|INTERRES
   111   54  179 1    
   112   55   56 2    
   113   55   57 1    
   114   57   58 1    
   115   57   59 1    
   116   57  180 1    
   117   58  181 1    
   118   58  182 1    
   119   58  183 1    
   120   59   60 am   BACKBONE|DICT|INTERRES
   121   59  184 1    
   122   60   61 2    
   123   60   62 1    
   124   62   63 1    
   125   62   64 1    
   126   62  185 1    
   127   63  186 1    
   128   63  187 1    
   129   63  188 1    
   130   64   65 am   BACKBONE|DICT|INTERRES
   131   64  189 1    
   132   65   66 2    
   133   67   68 2    
   134   67   69 am   BACKBONE|DICT|INTERRES
   135   69   70 1    
   136   69  190 1    
   137   70   71 1    
   138   70   72 1    
   139   70  191 1    
   140   71  192 1    
   141   71  193 1    
   142   71  194 1    
   143   72   73 2    
   144   72   74 am   BACKBONE|DICT|INTERRES
   145   74   75 1    
   146   74  195 1    
   147   75   76 1    
   148   75   77 1    
   149   75  196 1    
   150   76  197 1    
   151   76  198 1    
   152   76  199 1    
   153   77   78 2    
   154   77   79 am   BACKBONE|DICT|INTERRES
   155   79   80 1    
   156   79  200 1    
   157   80   81 1    
   158   80   82 1    
   159   80  201 1    
   160   81  202 1    
   161   81  203 1    
   162   81  204 1    
   163   82   83 2    
   164   82   84 am   BACKBONE|DICT|INTERRES
   165   84   85 1    
   166   84  205 1    
   167   85   86 1    
   168   85   87 1    
   169   85  206 1    
   170   86  207 1    
   171   86  208 1    
   172   86  209 1    
   173   87   88 2    
   174   87   89 am   BACKBONE|DICT|INTERRES
   175   89   90 1    
   176   89  210 1    
   177   90   91 1    
   178   90   92 1    
   179   90  211 1    
   180   91  212 1    
   181   91  213 1    
   182   91  214 1    
   183   92   93 2    
   184   92   94 am   BACKBONE|DICT|INTERRES
   185   94   95 1    
   186   94  215 1    
   187   95   96 1    
   188   95   97 1    
   189   95  216 1    
   190   96  217 1    
   191   96  218 1    
   192   96  219 1    
   193   97   98 2    
   194   97   99 am   BACKBONE|DICT|INTERRES
   195   99  100 1    
   196   99  220 1    
   197  100  101 1    
   198  100  102 1    
   199  100  221 1    
   200  101  222 1    
   201  101  223 1    
   202  101  224 1    
   203  102  103 2    
   204  102  104 am   BACKBONE|DICT|INTERRES
   205  104  105 1    
   206  104  225 1    
   207  105  106 1    
   208  105  107 1    
   209  105  226 1    
   210  106  227 1    
   211  106  228 1    
   212  106  229 1    
   213  107  108 2    
   214  107  109 am   BACKBONE|DICT|INTERRES
   215  109  110 1    
   216  109  230 1    
   217  110  111 1    
   218  110  112 1    
   219  110  231 1    
   220  111  232 1    
   221  111  233 1    
   222  111  234 1    
   223  112  113 2    
   224  112  114 am   BACKBONE|DICT|INTERRES
   225  114  115 1    
   226  114  235 1    
   227  115  116 1    
   228  115  117 1    
   229  115  236 1    
   230  116  237 1    
   231  116  238 1    
   232  116  239 1    
   233  117  118 2    
   234  117  119 am   BACKBONE|DICT|INTERRES
   235  119  120 1    
   236  119  240 1    
   237  120  121 1    
   238  120  124 1    
   239  120  241 1    
   240  121  122 am   BACKBONE|DICT|INTERRES
   241  121  123 2    
   242  122  242 1    
   243  122  243 1    
   244  124  125 1    
   245  124  244 1    
   246  124  245 1    
   247  125  126 1    
   248  126  246 1    
   249  126  247 1    
@<TRIPOS>SUBSTRUCTURE
     1 UNK         1 GROUP             0       ****    0 ROOT    
