@<TRIPOS>MOLECULE
3R540
247   249    1
SMALL
USER_CHARGES


@<TRIPOS>ATOM
      1 CA         -1.7495   -7.9856  -46.4401 C.3       0 UNK        -0.1800 
      2 C          -1.2858   -9.4262  -46.6045 C.2       0 UNK         0.5000 
      3 O          -0.7533  -10.0073  -45.6587 O.2       0 UNK        -0.5000 
      4 N          -1.4933  -10.0017  -47.7971 N.am      1 UNK        -0.5000 
      5 CA         -1.0786  -11.3557  -48.1847 C.3       1 UNK         0.1400 
      6 C6         -1.7544  -12.4553  -47.3128 C.3       23 UNK        -0.0398 
      7 S7         -1.9377  -14.0609  -48.1644 S.3       23 UNK        -0.2404 
      8 C8         -3.6658  -13.9758  -48.7296 C.3       23 UNK        -0.0205 
      9 C9         -4.2016  -15.3605  -49.0537 C.ar      23 UNK        -0.0193 
     10 C10        -3.8925  -15.9727  -50.2724 C.ar      23 UNK        -0.1150 
     11 C11        -4.3628  -17.2586  -50.5572 C.ar      23 UNK        -0.0193 
     12 C12        -5.1582  -17.9239  -49.6224 C.ar      23 UNK        -0.1150 
     13 C13        -5.4702  -17.3234  -48.4008 C.ar      23 UNK        -0.0193 
     14 C14        -4.9962  -16.0382  -48.1241 C.ar      23 UNK        -0.1150 
     15 C15        -6.2790  -18.0898  -47.3663 C.3       23 UNK        -0.0205 
     16 S16        -5.3145  -18.5241  -45.8785 S.3       23 UNK        -0.2404 
     17 C17        -3.7193  -19.1310  -46.5391 C.3       23 UNK        -0.0398 
     18 CA         -3.6917  -20.6377  -46.8901 C.3       11 UNK         0.1400 
     19 N          -2.5063  -20.9421  -47.6996 N.am      11 UNK        -0.5000 
     20 C          -2.0868  -22.1520  -48.0954 C.2       10 UNK         0.5000 
     21 O          -2.7416  -23.1832  -47.9551 O.2       10 UNK        -0.5000 
     22 CA         -0.6598  -22.2454  -48.6731 C.3       10 UNK         0.1400 
     23 CB         -0.6988  -22.3426  -50.2030 C.3       10 UNK        -0.1800 
     24 N           0.2300  -21.1468  -48.2750 N.am      10 UNK        -0.5000 
     25 C           0.5273  -20.8039  -47.0130 C.2       9 UNK         0.5000 
     26 O           0.1109  -21.4155  -46.0247 O.2       9 UNK        -0.5000 
     27 CA          1.3326  -19.5055  -46.8419 C.3       9 UNK         0.1400 
     28 CB          0.4792  -18.3031  -47.2841 C.3       9 UNK        -0.1800 
     29 N           1.7288  -19.3175  -45.4479 N.am      9 UNK        -0.5000 
     30 C           2.7958  -19.8911  -44.8747 C.2       8 UNK         0.5000 
     31 O           3.6022  -20.5872  -45.4939 O.2       8 UNK        -0.5000 
     32 CA          3.0078  -19.6547  -43.3659 C.3       8 UNK         0.1400 
     33 CB          4.4368  -19.1728  -43.0593 C.3       8 UNK        -0.1800 
     34 N           2.0541  -18.6808  -42.8313 N.am      8 UNK        -0.5000 
     35 C           1.1268  -18.9477  -41.9037 C.2       7 UNK         0.5000 
     36 O           1.0239  -20.0347  -41.3343 O.2       7 UNK        -0.5000 
     37 CA          0.1343  -17.8252  -41.5438 C.3       7 UNK         0.1400 
     38 CB          0.5733  -17.1113  -40.2576 C.3       7 UNK        -0.1800 
     39 N          -0.0866  -16.8358  -42.6036 N.am      7 UNK        -0.5000 
     40 C          -0.6938  -17.0979  -43.7700 C.2       6 UNK         0.5000 
     41 O          -1.0082  -18.2358  -44.1196 O.2       6 UNK        -0.5000 
     42 CA         -0.9949  -15.9264  -44.7255 C.3       6 UNK         0.1400 
     43 CB         -2.5132  -15.6831  -44.8535 C.3       6 UNK        -0.1800 
     44 N          -0.2565  -14.6947  -44.4325 N.am      6 UNK        -0.5000 
     45 C          -0.5041  -13.7628  -43.5023 C.2       5 UNK         0.5000 
     46 O          -1.4329  -13.8163  -42.6952 O.2       5 UNK        -0.5000 
     47 CA          0.5061  -12.5982  -43.4587 C.3       5 UNK         0.1400 
     48 CB          0.1418  -11.5136  -42.4238 C.3       5 UNK        -0.1800 
     49 N           1.8779  -13.0748  -43.2517 N.am      5 UNK        -0.5000 
     50 C           2.3337  -13.8120  -42.2264 C.2       4 UNK         0.5000 
     51 O           1.6418  -14.1585  -41.2692 O.2       4 UNK        -0.5000 
     52 CA          3.8163  -14.2356  -42.3035 C.3       4 UNK         0.1400 
     53 CB          4.1637  -15.4091  -41.3613 C.3       4 UNK        -0.1800 
     54 N           4.2552  -14.5217  -43.6753 N.am      4 UNK        -0.5000 
     55 C           3.7859  -15.4860  -44.4797 C.2       3 UNK         0.5000 
     56 O           2.8896  -16.2739  -44.1677 O.2       3 UNK        -0.5000 
     57 CA          4.4080  -15.5207  -45.8895 C.3       3 UNK         0.1400 
     58 CB          4.2156  -16.8755  -46.5956 C.3       3 UNK        -0.1800 
     59 N           3.9243  -14.4274  -46.7425 N.am      3 UNK        -0.5000 
     60 C           2.6496  -14.1263  -47.0307 C.2       2 UNK         0.5000 
     61 O           1.6705  -14.7066  -46.5536 O.2       2 UNK        -0.5000 
     62 CA          2.4307  -12.9774  -48.0258 C.3       2 UNK         0.1400 
     63 CB          2.8805  -13.3690  -49.4447 C.3       2 UNK        -0.1800 
     64 N           1.0097  -12.6553  -48.0410 N.am      2 UNK        -0.5000 
     65 C           0.4655  -11.4614  -48.2835 C.2       1 UNK         0.5000 
     66 O           1.1298  -10.4696  -48.5974 O.2       1 UNK        -0.5000 
     67 C          -3.7719  -21.5029  -45.6111 C.2       11 UNK         0.5000 
     68 O          -4.8359  -22.0387  -45.3002 O.2       11 UNK        -0.5000 
     69 N          -2.6318  -21.6472  -44.9240 N.am      12 UNK        -0.5000 
     70 CA         -2.4835  -22.4615  -43.7246 C.3       12 UNK         0.1400 
     71 CB         -1.5949  -21.7075  -42.7232 C.3       12 UNK        -0.1800 
     72 C          -1.8749  -23.8308  -44.0631 C.2       12 UNK         0.5000 
     73 O          -2.3851  -24.8521  -43.6030 O.2       12 UNK        -0.5000 
     74 N          -0.7948  -23.8306  -44.8572 N.am      13 UNK        -0.5000 
     75 CA          0.0414  -25.0029  -45.1244 C.3       13 UNK         0.1400 
     76 CB          1.3769  -24.5369  -45.7253 C.3       13 UNK        -0.1800 
     77 C          -0.6147  -26.0688  -46.0218 C.2       13 UNK         0.5000 
     78 O          -0.2477  -27.2403  -45.9213 O.2       13 UNK        -0.5000 
     79 N          -1.5584  -25.6569  -46.8764 N.am      14 UNK        -0.5000 
     80 CA         -2.2774  -26.5208  -47.8148 C.3       14 UNK         0.1400 
     81 CB         -1.7374  -26.2720  -49.2353 C.3       14 UNK        -0.1800 
     82 C          -3.7985  -26.2957  -47.7379 C.2       14 UNK         0.5000 
     83 O          -4.5106  -26.6808  -48.6650 O.2       14 UNK        -0.5000 
     84 N          -4.2744  -25.6446  -46.6637 N.am      15 UNK        -0.5000 
     85 CA         -5.6748  -25.2858  -46.3955 C.3       15 UNK         0.1400 
     86 CB         -6.4825  -26.5496  -46.0343 C.3       15 UNK        -0.1800 
     87 C          -6.3399  -24.4593  -47.5231 C.2       15 UNK         0.5000 
     88 O          -7.5448  -24.5839  -47.7482 O.2       15 UNK        -0.5000 
     89 N          -5.5296  -23.6540  -48.2266 N.am      16 UNK        -0.5000 
     90 CA         -5.8585  -22.8265  -49.3913 C.3       16 UNK         0.1400 
     91 CB         -6.9667  -21.8061  -49.0569 C.3       16 UNK        -0.1800 
     92 C          -6.1736  -23.6264  -50.6739 C.2       16 UNK         0.5000 
     93 O          -6.6331  -23.0273  -51.6473 O.2       16 UNK        -0.5000 
     94 N          -5.9125  -24.9443  -50.6867 N.am      17 UNK        -0.5000 
     95 CA         -6.1272  -25.8057  -51.8534 C.3       17 UNK         0.1400 
     96 CB         -6.0878  -27.2816  -51.4309 C.3       17 UNK        -0.1800 
     97 C          -5.1045  -25.5323  -52.9699 C.2       17 UNK         0.5000 
     98 O          -5.4696  -25.5235  -54.1462 O.2       17 UNK        -0.5000 
     99 N          -3.8516  -25.2597  -52.5811 N.am      18 UNK        -0.5000 
    100 CA        -2.7654  -24.8466  -53.4698 C.3       18 UNK         0.1400 
    101 CB        -1.4238  -25.3295  -52.8899 C.3       18 UNK        -0.1800 
    102 C         -2.8083  -23.3227  -53.6983 C.2       18 UNK         0.5000 
    103 O         -1.8435  -22.6188  -53.3977 O.2       18 UNK        -0.5000 
    104 N         -3.9412  -22.8351  -54.2222 N.am      19 UNK        -0.5000 
    105 CA        -4.2406  -21.4165  -54.4442 C.3       19 UNK         0.1400 
    106 CB        -5.6630  -21.2853  -55.0069 C.3       19 UNK        -0.1800 
    107 C         -3.2289  -20.6930  -55.3548 C.2       19 UNK         0.5000 
    108 O         -2.9776  -19.5024  -55.1691 O.2       19 UNK        -0.5000 
    109 N         -2.6362  -21.4363  -56.2982 N.am      20 UNK        -0.5000 
    110 CA        -1.5921  -20.9625  -57.2054 C.3       20 UNK         0.1400 
    111 CB        -1.3798  -22.0137  -58.3057 C.3       20 UNK        -0.1800 
    112 C         -0.2558  -20.6381  -56.5063 C.2       20 UNK         0.5000 
    113 O          0.5270  -19.8620  -57.0560 O.2       20 UNK        -0.5000 
    114 N         -0.0048  -21.2302  -55.3284 N.am      21 UNK        -0.5000 
    115 CA         1.2073  -20.9939  -54.5451 C.3       21 UNK         0.1400 
    116 CB         1.4745  -22.1918  -53.6211 C.3       21 UNK        -0.1800 
    117 C          1.1226  -19.6840  -53.7439 C.2       21 UNK         0.5000 
    118 O          2.0999  -18.9348  -53.7121 O.2       21 UNK        -0.5000 
    119 N         -0.0351  -19.4272  -53.1200 N.am      22 UNK        -0.5000 
    120 CA        -0.3129  -18.1827  -52.3835 C.3       22 UNK         0.1400 
    121 C         -0.7530  -16.9944  -53.2841 C.2       22 UNK         0.5000 
    122 N         -1.3710  -17.2232  -54.4361 N.am      22 UNK        -0.7600 
    123 O         -0.5155  -15.8414  -52.9363 O.2       22 UNK        -0.5000 
    124 C124       -1.2806  -18.3969  -51.1910 C.3       23 UNK        -0.0398 
    125 S125       -2.8131  -19.2996  -51.6058 S.3       23 UNK        -0.2404 
    126 C126       -4.0038  -17.9464  -51.8637 C.3       23 UNK        -0.0205 
    127 H127       -2.4775   -7.9160  -45.6317 H         1 UNK         0.0600 
    128 H128       -2.2130   -7.6016  -47.3493 H         1 UNK         0.0600 
    129 H129       -0.9024   -7.3455  -46.1936 H         1 UNK         0.0600 
    130 H130       -1.9078   -9.4529  -48.5373 H         1 UNK         0.3000 
    131 H131       -1.4431  -11.4742  -49.2062 H         1 UNK         0.0600 
    132 H132       -1.2075  -12.6107  -46.3820 H         1 UNK         0.0800 
    133 H133       -2.7445  -12.1219  -47.0003 H         1 UNK         0.0800 
    134 H134       -3.7295  -13.3333  -49.6089 H         1 UNK         0.0800 
    135 H135       -4.2887  -13.5139  -47.9624 H         1 UNK         0.0800 
    136 H136       -3.2689  -15.4551  -50.9882 H         1 UNK         0.1150 
    137 H137       -5.5084  -18.9233  -49.8391 H         1 UNK         0.1150 
    138 H138       -5.2248  -15.5792  -47.1724 H         1 UNK         0.1150 
    139 H139       -7.1375  -17.4877  -47.0660 H         1 UNK         0.0800 
    140 H140       -6.6878  -19.0026  -47.7988 H         1 UNK         0.0800 
    141 H141       -2.9528  -18.9079  -45.7958 H         1 UNK         0.0800 
    142 H142       -3.4348  -18.5376  -47.4066 H         1 UNK         0.0800 
    143 H143       -4.5607  -20.8654  -47.5068 H         1 UNK         0.0600 
    144 H144       -1.8908  -20.1655  -47.8827 H         1 UNK         0.3000 
    145 H145       -0.2323  -23.1737  -48.2919 H         1 UNK         0.0600 
    146 H146        0.2628  -22.6715  -50.5954 H         1 UNK         0.0600 
    147 H147       -1.4483  -23.0606  -50.5347 H         1 UNK         0.0600 
    148 H148       -0.9435  -21.3896  -50.6685 H         1 UNK         0.0600 
    149 H149        0.6230  -20.6029  -49.0289 H         1 UNK         0.3000 
    150 H150        2.2259  -19.5562  -47.4678 H         1 UNK         0.0600 
    151 H151        0.3295  -18.3006  -48.3633 H         1 UNK         0.0600 
    152 H152        0.9534  -17.3562  -47.0310 H         1 UNK         0.0600 
    153 H153       -0.5066  -18.3155  -46.8186 H         1 UNK         0.0600 
    154 H154        1.0634  -18.8439  -44.8519 H         1 UNK         0.3000 
    155 H155        2.8739  -20.6264  -42.8870 H         1 UNK         0.0600 
    156 H156        4.6625  -18.2299  -43.5555 H         1 UNK         0.0600 
    157 H157        5.1773  -19.9023  -43.3892 H         1 UNK         0.0600 
    158 H158        4.5805  -19.0280  -41.9885 H         1 UNK         0.0600 
    159 H159        2.1045  -17.7497  -43.2406 H         1 UNK         0.3000 
    160 H160       -0.8276  -18.3030  -41.3460 H         1 UNK         0.0600 
    161 H161        1.5581  -16.6584  -40.3660 H         1 UNK         0.0600 
    162 H162        0.6282  -17.8115  -39.4232 H         1 UNK         0.0600 
    163 H163       -0.1295  -16.3260  -39.9784 H         1 UNK         0.0600 
    164 H164        0.1692  -15.8800  -42.3949 H         1 UNK         0.3000 
    165 H165       -0.6392  -16.2264  -45.7095 H         1 UNK         0.0600 
    166 H166       -2.7320  -14.7883  -45.4340 H         1 UNK         0.0600 
    167 H167       -2.9914  -15.5738  -43.8799 H         1 UNK         0.0600 
    168 H168       -2.9968  -16.5190  -45.3569 H         1 UNK         0.0600 
    169 H169        0.5682  -14.5806  -45.0182 H         1 UNK         0.3000 
    170 H170        0.4852  -12.1320  -44.4447 H         1 UNK         0.0600 
    171 H171       -0.8427  -11.0941  -42.6343 H         1 UNK         0.0600 
    172 H172        0.1198  -11.9081  -41.4075 H         1 UNK         0.0600 
    173 H173        0.8557  -10.6906  -42.4495 H         1 UNK         0.0600 
    174 H174        2.5298  -12.8650  -43.9931 H         1 UNK         0.3000 
    175 H175        4.3910  -13.3701  -41.9710 H         1 UNK         0.0600 
    176 H176        3.6006  -16.3096  -41.6057 H         1 UNK         0.0600 
    177 H177        5.2239  -15.6556  -41.4153 H         1 UNK         0.0600 
    178 H178        3.9432  -15.1578  -40.3233 H         1 UNK         0.0600 
    179 H179        4.9738  -13.9096  -44.0363 H         1 UNK         0.3000 
    180 H180        5.4821  -15.3733  -45.7667 H         1 UNK         0.0600 
    181 H181        3.1646  -17.0932  -46.7697 H         1 UNK         0.0600 
    182 H182        4.6258  -17.6900  -45.9985 H         1 UNK         0.0600 
    183 H183        4.7228  -16.8928  -47.5600 H         1 UNK         0.0600 
    184 H184        4.6490  -13.8700  -47.1728 H         1 UNK         0.3000 
    185 H185        3.0016  -12.1136  -47.6792 H         1 UNK         0.0600 
    186 H186        3.9451  -13.6033  -49.4738 H         1 UNK         0.0600 
    187 H187        2.3403  -14.2443  -49.8082 H         1 UNK         0.0600 
    188 H188        2.7108  -12.5559  -50.1507 H         1 UNK         0.0600 
    189 H189        0.4142  -13.4287  -47.7660 H         1 UNK         0.3000 
    190 H190       -1.7825  -21.2239  -45.2814 H         1 UNK         0.3000 
    191 H191       -3.4548  -22.6277  -43.2539 H         1 UNK         0.0600 
    192 H192       -1.4527  -22.2855  -41.8094 H         1 UNK         0.0600 
    193 H193       -2.0421  -20.7543  -42.4404 H         1 UNK         0.0600 
    194 H194       -0.6075  -21.4971  -43.1370 H         1 UNK         0.0600 
    195 H195       -0.4463  -22.9421  -45.2115 H         1 UNK         0.3000 
    196 H196        0.2568  -25.4799  -44.1659 H         1 UNK         0.0600 
    197 H197        1.2388  -24.0472  -46.6887 H         1 UNK         0.0600 
    198 H198        1.8831  -23.8330  -45.0642 H         1 UNK         0.0600 
    199 H199        2.0516  -25.3798  -45.8802 H         1 UNK         0.0600 
    200 H200       -1.8091  -24.6753  -46.9103 H         1 UNK         0.3000 
    201 H201       -2.1169  -27.5716  -47.5665 H         1 UNK         0.0600 
    202 H202       -1.9440  -25.2549  -49.5663 H         1 UNK         0.0600 
    203 H203       -2.1920  -26.9521  -49.9568 H         1 UNK         0.0600 
    204 H204       -0.6595  -26.4269  -49.2813 H         1 UNK         0.0600 
    205 H205       -3.6114  -25.3719  -45.9519 H         1 UNK         0.3000 
    206 H206       -5.6618  -24.6410  -45.5161 H         1 UNK         0.0600 
    207 H207       -6.0059  -27.1042  -45.2261 H         1 UNK         0.0600 
    208 H208       -7.4876  -26.2916  -45.6987 H         1 UNK         0.0600 
    209 H209       -6.5837  -27.2207  -46.8879 H         1 UNK         0.0600 
    210 H210       -4.5447  -23.6428  -47.9705 H         1 UNK         0.3000 
    211 H211       -4.9516  -22.2617  -49.6113 H         1 UNK         0.0600 
    212 H212       -7.0113  -21.0184  -49.8096 H         1 UNK         0.0600 
    213 H213       -6.7943  -21.3311  -48.0923 H         1 UNK         0.0600 
    214 H214       -7.9500  -22.2757  -49.0216 H         1 UNK         0.0600 
    215 H215       -5.5339  -25.3888  -49.8562 H         1 UNK         0.3000 
    216 H216       -7.1227  -25.5973  -52.2512 H         1 UNK         0.0600 
    217 H217       -5.0959  -27.5789  -51.0891 H         1 UNK         0.0600 
    218 H218       -6.3520  -27.9311  -52.2663 H         1 UNK         0.0600 
    219 H219       -6.7945  -27.4820  -50.6253 H         1 UNK         0.0600 
    220 H220       -3.6539  -25.2510  -51.5916 H         1 UNK         0.3000 
    221 H221       -2.8899  -25.3234  -54.4442 H         1 UNK         0.0600 
    222 H222       -1.4106  -26.4139  -52.7798 H         1 UNK         0.0600 
    223 H223       -1.2202  -24.8937  -51.9132 H         1 UNK         0.0600 
    224 H224       -0.5953  -25.0603  -53.5463 H         1 UNK         0.0600 
    225 H225       -4.6853  -23.4920  -54.4239 H         1 UNK         0.3000 
    226 H226       -4.2198  -20.9266  -53.4712 H         1 UNK         0.0600 
    227 H227       -5.7646  -21.7924  -55.9671 H         1 UNK         0.0600 
    228 H228       -6.3971  -21.7107  -54.3220 H         1 UNK         0.0600 
    229 H229       -5.9286  -20.2379  -55.1567 H         1 UNK         0.0600 
    230 H230       -2.8996  -22.4075  -56.3750 H         1 UNK         0.3000 
    231 H231       -1.9461  -20.0423  -57.6752 H         1 UNK         0.0600 
    232 H232       -1.0421  -22.9652  -57.8928 H         1 UNK         0.0600 
    233 H233       -0.6283  -21.6823  -59.0236 H         1 UNK         0.0600 
    234 H234       -2.2997  -22.1951  -58.8618 H         1 UNK         0.0600 
    235 H235       -0.7107  -21.8211  -54.9029 H         1 UNK         0.3000 
    236 H236        2.0562  -20.9131  -55.2277 H         1 UNK         0.0600 
    237 H237        1.5637  -23.1173  -54.1900 H         1 UNK         0.0600 
    238 H238        2.4051  -22.0570  -53.0686 H         1 UNK         0.0600 
    239 H239        0.6785  -22.3246  -52.8905 H         1 UNK         0.0600 
    240 H240       -0.8009  -20.0820  -53.2005 H         1 UNK         0.3000 
    241 H241        0.6278  -17.8574  -51.9341 H         1 UNK         0.0600 
    242 H242       -1.6928  -18.1534  -54.6865 H         1 UNK         0.3800 
    243 H243       -1.6359  -16.4411  -55.0122 H         1 UNK         0.3800 
    244 H244       -1.5172  -17.4504  -50.7033 H         1 UNK         0.0800 
    245 H245       -0.7694  -18.9848  -50.4300 H         1 UNK         0.0800 
    246 H246       -4.9087  -18.3587  -52.3120 H         1 UNK         0.0800 
    247 H247       -3.6070  -17.2328  -52.5862 H         1 UNK         0.0800 
@<TRIPOS>BOND
     1    1    2 1    
     2    1  127 1    
     3    1  128 1    
     4    1  129 1    
     5    2    3 2    
     6    2    4 am   BACKBONE|DICT|INTERRES
     7    4    5 1    
     8    4  130 1    
     9    5    6 1    
    10    5   65 1    
    11    5  131 1    
    12    6    7 1    
    13    6  132 1    
    14    6  133 1    
    15    7    8 1    
    16    8    9 1    
    17    8  134 1    
    18    8  135 1    
    19    9   10 ar   
    20    9   14 ar   
    21   10   11 ar   
    22   10  136 1    
    23   11   12 ar   
    24   11  126 1    
    25   12   13 ar   
    26   12  137 1    
    27   13   14 ar   
    28   13   15 1    
    29   14  138 1    
    30   15   16 1    
    31   15  139 1    
    32   15  140 1    
    33   16   17 1    
    34   17   18 1    
    35   17  141 1    
    36   17  142 1    
    37   18   19 1    
    38   18   67 1    
    39   18  143 1    
    40   19   20 am   BACKBONE|DICT|INTERRES
    41   19  144 1    
    42   20   21 2    
    43   20   22 1    
    44   22   23 1    
    45   22   24 1    
    46   22  145 1    
    47   23  146 1    
    48   23  147 1    
    49   23  148 1    
    50   24   25 am   BACKBONE|DICT|INTERRES
    51   24  149 1    
    52   25   26 2    
    53   25   27 1    
    54   27   28 1    
    55   27   29 1    
    56   27  150 1    
    57   28  151 1    
    58   28  152 1    
    59   28  153 1    
    60   29   30 am   BACKBONE|DICT|INTERRES
    61   29  154 1    
    62   30   31 2    
    63   30   32 1    
    64   32   33 1    
    65   32   34 1    
    66   32  155 1    
    67   33  156 1    
    68   33  157 1    
    69   33  158 1    
    70   34   35 am   BACKBONE|DICT|INTERRES
    71   34  159 1    
    72   35   36 2    
    73   35   37 1    
    74   37   38 1    
    75   37   39 1    
    76   37  160 1    
    77   38  161 1    
    78   38  162 1    
    79   38  163 1    
    80   39   40 am   BACKBONE|DICT|INTERRES
    81   39  164 1    
    82   40   41 2    
    83   40   42 1    
    84   42   43 1    
    85   42   44 1    
    86   42  165 1    
    87   43  166 1    
    88   43  167 1    
    89   43  168 1    
    90   44   45 am   BACKBONE|DICT|INTERRES
    91   44  169 1    
    92   45   46 2    
    93   45   47 1    
    94   47   48 1    
    95   47   49 1    
    96   47  170 1    
    97   48  171 1    
    98   48  172 1    
    99   48  173 1    
   100   49   50 am   BACKBONE|DICT|INTERRES
   101   49  174 1    
   102   50   51 2    
   103   50   52 1    
   104   52   53 1    
   105   52   54 1    
   106   52  175 1    
   107   53  176 1    
   108   53  177 1    
   109   53  178 1    
   110   54   55 am   BACKBONE|DICT|INTERRES
   111   54  179 1    
   112   55   56 2    
   113   55   57 1    
   114   57   58 1    
   115   57   59 1    
   116   57  180 1    
   117   58  181 1    
   118   58  182 1    
   119   58  183 1    
   120   59   60 am   BACKBONE|DICT|INTERRES
   121   59  184 1    
   122   60   61 2    
   123   60   62 1    
   124   62   63 1    
   125   62   64 1    
   126   62  185 1    
   127   63  186 1    
   128   63  187 1    
   129   63  188 1    
   130   64   65 am   BACKBONE|DICT|INTERRES
   131   64  189 1    
   132   65   66 2    
   133   67   68 2    
   134   67   69 am   BACKBONE|DICT|INTERRES
   135   69   70 1    
   136   69  190 1    
   137   70   71 1    
   138   70   72 1    
   139   70  191 1    
   140   71  192 1    
   141   71  193 1    
   142   71  194 1    
   143   72   73 2    
   144   72   74 am   BACKBONE|DICT|INTERRES
   145   74   75 1    
   146   74  195 1    
   147   75   76 1    
   148   75   77 1    
   149   75  196 1    
   150   76  197 1    
   151   76  198 1    
   152   76  199 1    
   153   77   78 2    
   154   77   79 am   BACKBONE|DICT|INTERRES
   155   79   80 1    
   156   79  200 1    
   157   80   81 1    
   158   80   82 1    
   159   80  201 1    
   160   81  202 1    
   161   81  203 1    
   162   81  204 1    
   163   82   83 2    
   164   82   84 am   BACKBONE|DICT|INTERRES
   165   84   85 1    
   166   84  205 1    
   167   85   86 1    
   168   85   87 1    
   169   85  206 1    
   170   86  207 1    
   171   86  208 1    
   172   86  209 1    
   173   87   88 2    
   174   87   89 am   BACKBONE|DICT|INTERRES
   175   89   90 1    
   176   89  210 1    
   177   90   91 1    
   178   90   92 1    
   179   90  211 1    
   180   91  212 1    
   181   91  213 1    
   182   91  214 1    
   183   92   93 2    
   184   92   94 am   BACKBONE|DICT|INTERRES
   185   94   95 1    
   186   94  215 1    
   187   95   96 1    
   188   95   97 1    
   189   95  216 1    
   190   96  217 1    
   191   96  218 1    
   192   96  219 1    
   193   97   98 2    
   194   97   99 am   BACKBONE|DICT|INTERRES
   195   99  100 1    
   196   99  220 1    
   197  100  101 1    
   198  100  102 1    
   199  100  221 1    
   200  101  222 1    
   201  101  223 1    
   202  101  224 1    
   203  102  103 2    
   204  102  104 am   BACKBONE|DICT|INTERRES
   205  104  105 1    
   206  104  225 1    
   207  105  106 1    
   208  105  107 1    
   209  105  226 1    
   210  106  227 1    
   211  106  228 1    
   212  106  229 1    
   213  107  108 2    
   214  107  109 am   BACKBONE|DICT|INTERRES
   215  109  110 1    
   216  109  230 1    
   217  110  111 1    
   218  110  112 1    
   219  110  231 1    
   220  111  232 1    
   221  111  233 1    
   222  111  234 1    
   223  112  113 2    
   224  112  114 am   BACKBONE|DICT|INTERRES
   225  114  115 1    
   226  114  235 1    
   227  115  116 1    
   228  115  117 1    
   229  115  236 1    
   230  116  237 1    
   231  116  238 1    
   232  116  239 1    
   233  117  118 2    
   234  117  119 am   BACKBONE|DICT|INTERRES
   235  119  120 1    
   236  119  240 1    
   237  120  121 1    
   238  120  124 1    
   239  120  241 1    
   240  121  122 am   BACKBONE|DICT|INTERRES
   241  121  123 2    
   242  122  242 1    
   243  122  243 1    
   244  124  125 1    
   245  124  244 1    
   246  124  245 1    
   247  125  126 1    
   248  126  246 1    
   249  126  247 1    
@<TRIPOS>SUBSTRUCTURE
     1 UNK         1 GROUP             0       ****    0 ROOT    
