@<TRIPOS>MOLECULE
3R540
247   249    1
SMALL
USER_CHARGES


@<TRIPOS>ATOM
      1 CA          0.8145  -12.6021  -48.9411 C.3       0 UNK        -0.1800 
      2 C           2.0681  -12.2921  -48.1364 C.2       0 UNK         0.5000 
      3 O           1.9811  -12.0925  -46.9255 O.2       0 UNK        -0.5000 
      4 N           3.2326  -12.2611  -48.7988 N.am      1 UNK        -0.5000 
      5 CA          4.5573  -11.9982  -48.2145 C.3       1 UNK         0.1400 
      6 C6          5.0487  -13.1390  -47.2752 C.3       23 UNK        -0.0398 
      7 S7          5.1127  -14.7601  -48.1076 S.3       23 UNK        -0.2404 
      8 C8          3.6845  -15.6075  -47.3631 C.3       23 UNK        -0.0205 
      9 C9          3.3816  -16.8940  -48.1115 C.ar      23 UNK        -0.0193 
     10 C10         2.6252  -16.8580  -49.2870 C.ar      23 UNK        -0.1150 
     11 C11         2.3608  -18.0317  -49.9986 C.ar      23 UNK        -0.0193 
     12 C12         2.8673  -19.2468  -49.5277 C.ar      23 UNK        -0.1150 
     13 C13         3.6167  -19.2975  -48.3463 C.ar      23 UNK        -0.0193 
     14 C14         3.8680  -18.1169  -47.6416 C.ar      23 UNK        -0.1150 
     15 C15         4.1770  -20.6215  -47.8415 C.3       23 UNK        -0.0205 
     16 S16         3.0595  -21.4428  -46.6592 S.3       23 UNK        -0.2404 
     17 C17         1.6471  -21.8007  -47.7485 C.3       23 UNK        -0.0398 
     18 CA          0.6425  -22.8219  -47.1664 C.3       11 UNK         0.1400 
     19 N          -0.1085  -22.2962  -46.0202 N.am      11 UNK        -0.5000 
     20 C          -1.0282  -22.9803  -45.3220 C.2       10 UNK         0.5000 
     21 O          -1.3069  -24.1620  -45.5258 O.2       10 UNK        -0.5000 
     22 CA         -1.8138  -22.2038  -44.2505 C.3       10 UNK         0.1400 
     23 CB         -0.9802  -22.0232  -42.9732 C.3       10 UNK        -0.1800 
     24 N          -2.2897  -20.9050  -44.7280 N.am      10 UNK        -0.5000 
     25 C          -3.1630  -20.7421  -45.7329 C.2       9 UNK         0.5000 
     26 O          -3.6833  -21.6715  -46.3489 O.2       9 UNK        -0.5000 
     27 CA         -3.4853  -19.2987  -46.1513 C.3       9 UNK         0.1400 
     28 CB         -4.5005  -18.6661  -45.1888 C.3       9 UNK        -0.1800 
     29 N          -2.2986  -18.4532  -46.2490 N.am      9 UNK        -0.5000 
     30 C          -1.2752  -18.6724  -47.0868 C.2       8 UNK         0.5000 
     31 O          -1.2372  -19.6015  -47.8933 O.2       8 UNK        -0.5000 
     32 CA         -0.0640  -17.7331  -46.9468 C.3       8 UNK         0.1400 
     33 CB         -0.3547  -16.3593  -47.5709 C.3       8 UNK        -0.1800 
     34 N           0.3471  -17.5533  -45.5539 N.am      8 UNK        -0.5000 
     35 C           0.7059  -18.5464  -44.7273 C.2       7 UNK         0.5000 
     36 O           0.7582  -19.7304  -45.0523 O.2       7 UNK        -0.5000 
     37 CA          0.9821  -18.1568  -43.2681 C.3       7 UNK         0.1400 
     38 CB          2.3763  -17.5283  -43.1196 C.3       7 UNK        -0.1800 
     39 N          -0.0432  -17.2449  -42.7608 N.am      7 UNK        -0.5000 
     40 C          -1.3138  -17.6030  -42.5215 C.2       6 UNK         0.5000 
     41 O          -1.7379  -18.7509  -42.6557 O.2       6 UNK        -0.5000 
     42 CA         -2.2820  -16.4829  -42.0982 C.3       6 UNK         0.1400 
     43 CB         -2.1822  -16.2211  -40.5881 C.3       6 UNK        -0.1800 
     44 N          -2.0498  -15.2337  -42.8246 N.am      6 UNK        -0.5000 
     45 C          -2.2591  -15.0742  -44.1391 C.2       5 UNK         0.5000 
     46 O          -2.7133  -15.9532  -44.8690 O.2       5 UNK        -0.5000 
     47 CA         -1.8499  -13.7216  -44.7508 C.3       5 UNK         0.1400 
     48 CB         -3.0128  -12.7214  -44.6816 C.3       5 UNK        -0.1800 
     49 N          -0.6644  -13.1287  -44.1280 N.am      5 UNK        -0.5000 
     50 C           0.5512  -13.6916  -44.0955 C.2       4 UNK         0.5000 
     51 O           0.7954  -14.8093  -44.5547 O.2       4 UNK        -0.5000 
     52 CA          1.6637  -12.8447  -43.4554 C.3       4 UNK         0.1400 
     53 CB          3.0337  -13.5450  -43.4798 C.3       4 UNK        -0.1800 
     54 N           1.7650  -11.5813  -44.1786 N.am      4 UNK        -0.5000 
     55 C           1.3187  -10.3941  -43.7541 C.2       3 UNK         0.5000 
     56 O           0.7690  -10.2237  -42.6642 O.2       3 UNK        -0.5000 
     57 CA          1.5181   -9.2117  -44.7278 C.3       3 UNK         0.1400 
     58 CB          1.1864   -7.8425  -44.0981 C.3       3 UNK        -0.1800 
     59 N           2.8553   -9.1969  -45.3332 N.am      3 UNK        -0.5000 
     60 C           4.0374   -9.1129  -44.7040 C.2       2 UNK         0.5000 
     61 O           4.1588   -8.9843  -43.4845 O.2       2 UNK        -0.5000 
     62 CA          5.2913   -9.2268  -45.5991 C.3       2 UNK         0.1400 
     63 CB          6.6034   -9.2109  -44.7932 C.3       2 UNK        -0.1800 
     64 N           5.2527  -10.4496  -46.4043 N.am      2 UNK        -0.5000 
     65 C           4.6047  -10.5895  -47.5688 C.2       1 UNK         0.5000 
     66 O           4.0276   -9.6504  -48.1238 O.2       1 UNK        -0.5000 
     67 C          -0.3007  -23.2889  -48.2896 C.2       11 UNK         0.5000 
     68 O          -0.1791  -24.4228  -48.7545 O.2       11 UNK        -0.5000 
     69 N          -1.2301  -22.4092  -48.6866 N.am      12 UNK        -0.5000 
     70 CA         -2.2122  -22.6606  -49.7351 C.3       12 UNK         0.1400 
     71 CB         -3.0238  -21.3890  -49.9884 C.3       12 UNK        -0.1800 
     72 C          -3.1400  -23.8406  -49.4177 C.2       12 UNK         0.5000 
     73 O          -3.3221  -24.7024  -50.2752 O.2       12 UNK        -0.5000 
     74 N          -3.6696  -23.8819  -48.1871 N.am      13 UNK        -0.5000 
     75 CA         -4.5297  -24.9561  -47.6932 C.3       13 UNK         0.1400 
     76 CB         -5.1047  -24.5670  -46.3233 C.3       13 UNK        -0.1800 
     77 C          -3.8130  -26.3164  -47.6161 C.2       13 UNK         0.5000 
     78 O          -4.4133  -27.3309  -47.9712 O.2       13 UNK        -0.5000 
     79 N          -2.5438  -26.3157  -47.1819 N.am      14 UNK        -0.5000 
     80 CA         -1.6950  -27.5072  -47.1176 C.3       14 UNK         0.1400 
     81 CB         -0.4259  -27.1969  -46.3096 C.3       14 UNK        -0.1800 
     82 C          -1.3330  -28.0536  -48.5106 C.2       14 UNK         0.5000 
     83 O          -1.3596  -29.2683  -48.7131 O.2       14 UNK        -0.5000 
     84 N          -1.0162  -27.1492  -49.4465 N.am      15 UNK        -0.5000 
     85 CA         -0.6962  -27.4739  -50.8373 C.3       15 UNK         0.1400 
     86 CB          0.0361  -26.2775  -51.4648 C.3       15 UNK        -0.1800 
     87 C          -1.9316  -27.8377  -51.6843 C.2       15 UNK         0.5000 
     88 O          -1.7763  -28.4907  -52.7168 O.2       15 UNK        -0.5000 
     89 N          -3.1160  -27.3775  -51.2531 N.am      16 UNK        -0.5000 
     90 CA         -4.3865  -27.3457  -51.9862 C.3       16 UNK         0.1400 
     91 CB         -4.9181  -28.7683  -52.2564 C.3       16 UNK        -0.1800 
     92 C          -4.2695  -26.4744  -53.2554 C.2       16 UNK         0.5000 
     93 O          -4.7021  -26.8747  -54.3378 O.2       16 UNK        -0.5000 
     94 N          -3.6426  -25.3051  -53.0911 N.am      17 UNK        -0.5000 
     95 CA         -3.2612  -24.3831  -54.1527 C.3       17 UNK         0.1400 
     96 CB         -1.8505  -24.7524  -54.6522 C.3       17 UNK        -0.1800 
     97 C          -3.3437  -22.9456  -53.6062 C.2       17 UNK         0.5000 
     98 O          -2.3072  -22.3696  -53.2789 O.2       17 UNK        -0.5000 
     99 N          -4.5344  -22.3501  -53.4658 N.am      18 UNK        -0.5000 
    100 CA        -5.8699  -22.8849  -53.7241 C.3       18 UNK         0.1400 
    101 CB        -6.5797  -21.9493  -54.7230 C.3       18 UNK        -0.1800 
    102 C         -6.6145  -23.0476  -52.3848 C.2       18 UNK         0.5000 
    103 O         -6.0312  -23.5509  -51.4230 O.2       18 UNK        -0.5000 
    104 N         -7.8898  -22.6429  -52.3337 N.am      19 UNK        -0.5000 
    105 CA        -8.7795  -22.7452  -51.1758 C.3       19 UNK         0.1400 
    106 CB       -10.2339  -22.6154  -51.6633 C.3       19 UNK        -0.1800 
    107 C         -8.4290  -21.7186  -50.0780 C.2       19 UNK         0.5000 
    108 O         -9.1719  -20.7587  -49.8662 O.2       19 UNK        -0.5000 
    109 N         -7.2850  -21.9421  -49.4176 N.am      20 UNK        -0.5000 
    110 CA        -6.7099  -21.1420  -48.3303 C.3       20 UNK         0.1400 
    111 CB        -7.6011  -21.1939  -47.0725 C.3       20 UNK        -0.1800 
    112 C         -6.3395  -19.7040  -48.7550 C.2       20 UNK         0.5000 
    113 O         -6.4239  -18.7753  -47.9509 O.2       20 UNK        -0.5000 
    114 N         -5.9015  -19.5559  -50.0081 N.am      21 UNK        -0.5000 
    115 CA        -5.3284  -18.3473  -50.5856 C.3       21 UNK         0.1400 
    116 CB        -6.4442  -17.4079  -51.0720 C.3       21 UNK        -0.1800 
    117 C         -4.4288  -18.7901  -51.7449 C.2       21 UNK         0.5000 
    118 O         -4.7778  -19.7501  -52.4360 O.2       21 UNK        -0.5000 
    119 N         -3.2914  -18.1114  -51.9303 N.am      22 UNK        -0.5000 
    120 CA        -2.2673  -18.4619  -52.9344 C.3       22 UNK         0.1400 
    121 C         -2.6771  -18.2040  -54.4172 C.2       22 UNK         0.5000 
    122 N         -3.7808  -17.5226  -54.6993 N.am      22 UNK        -0.7600 
    123 O         -1.9775  -18.6306  -55.3316 O.2       22 UNK        -0.5000 
    124 C124       -0.9024  -17.7887  -52.6278 C.3       23 UNK        -0.0398 
    125 S125       -0.2273  -18.2109  -50.9846 S.3       23 UNK        -0.2404 
    126 C126        1.5529  -17.9787  -51.2875 C.3       23 UNK        -0.0205 
    127 H127        0.2662  -13.4226  -48.4788 H         1 UNK         0.0600 
    128 H128        1.0510  -12.8868  -49.9666 H         1 UNK         0.0600 
    129 H129        0.1627  -11.7291  -48.9684 H         1 UNK         0.0600 
    130 H130        3.2303  -12.4069  -49.7981 H         1 UNK         0.3000 
    131 H131        5.2494  -11.9498  -49.0565 H         1 UNK         0.0600 
    132 H132        6.0620  -12.9378  -46.9248 H         1 UNK         0.0800 
    133 H133        4.4225  -13.2081  -46.3861 H         1 UNK         0.0800 
    134 H134        2.8096  -14.9585  -47.3835 H         1 UNK         0.0800 
    135 H135        3.8879  -15.8137  -46.3111 H         1 UNK         0.0800 
    136 H136        2.2475  -15.9127  -49.6508 H         1 UNK         0.1150 
    137 H137        2.6739  -20.1543  -50.0818 H         1 UNK         0.1150 
    138 H138        4.4523  -18.1493  -46.7328 H         1 UNK         0.1150 
    139 H139        4.3804  -21.2908  -48.6789 H         1 UNK         0.0800 
    140 H140        5.1377  -20.4509  -47.3536 H         1 UNK         0.0800 
    141 H141        2.0543  -22.1675  -48.6930 H         1 UNK         0.0800 
    142 H142        1.1421  -20.8603  -47.9745 H         1 UNK         0.0800 
    143 H143        1.1972  -23.6971  -46.8220 H         1 UNK         0.0600 
    144 H144        0.0902  -21.3328  -45.7570 H         1 UNK         0.3000 
    145 H145       -2.6928  -22.7989  -43.9939 H         1 UNK         0.0600 
    146 H146       -0.6389  -22.9862  -42.5915 H         1 UNK         0.0600 
    147 H147       -0.0975  -21.4086  -43.1482 H         1 UNK         0.0600 
    148 H148       -1.5657  -21.5499  -42.1850 H         1 UNK         0.0600 
    149 H149       -1.9224  -20.0856  -44.2566 H         1 UNK         0.3000 
    150 H150       -3.9310  -19.3385  -47.1451 H         1 UNK         0.0600 
    151 H151       -5.3933  -19.2857  -45.0992 H         1 UNK         0.0600 
    152 H152       -4.8219  -17.6877  -45.5465 H         1 UNK         0.0600 
    153 H153       -4.0850  -18.5385  -44.1890 H         1 UNK         0.0600 
    154 H154       -2.2727  -17.6383  -45.6419 H         1 UNK         0.3000 
    155 H155        0.7715  -18.1900  -47.4787 H         1 UNK         0.0600 
    156 H156       -1.2208  -15.8820  -47.1149 H         1 UNK         0.0600 
    157 H157        0.4942  -15.6865  -47.4563 H         1 UNK         0.0600 
    158 H158       -0.5579  -16.4496  -48.6374 H         1 UNK         0.0600 
    159 H159        0.3589  -16.6016  -45.1986 H         1 UNK         0.3000 
    160 H160        0.9568  -19.0663  -42.6641 H         1 UNK         0.0600 
    161 H161        2.4962  -16.6477  -43.7500 H         1 UNK         0.0600 
    162 H162        3.1510  -18.2393  -43.4093 H         1 UNK         0.0600 
    163 H163        2.5721  -17.2352  -42.0882 H         1 UNK         0.0600 
    164 H164        0.2092  -16.2699  -42.6961 H         1 UNK         0.3000 
    165 H165       -3.2970  -16.8200  -42.3193 H         1 UNK         0.0600 
    166 H166       -2.9186  -15.4845  -40.2663 H         1 UNK         0.0600 
    167 H167       -2.3686  -17.1343  -40.0213 H         1 UNK         0.0600 
    168 H168       -1.1945  -15.8550  -40.3054 H         1 UNK         0.0600 
    169 H169       -1.6755  -14.4582  -42.2984 H         1 UNK         0.3000 
    170 H170       -1.6137  -13.8945  -45.8024 H         1 UNK         0.0600 
    171 H171       -3.9057  -13.1274  -45.1591 H         1 UNK         0.0600 
    172 H172       -3.2735  -12.4768  -43.6512 H         1 UNK         0.0600 
    173 H173       -2.7652  -11.7924  -45.1957 H         1 UNK         0.0600 
    174 H174       -0.7742  -12.2063  -43.7314 H         1 UNK         0.3000 
    175 H175        1.3926  -12.6720  -42.4121 H         1 UNK         0.0600 
    176 H176        3.3113  -13.8543  -44.4869 H         1 UNK         0.0600 
    177 H177        3.8187  -12.8909  -43.1001 H         1 UNK         0.0600 
    178 H178        3.0236  -14.4372  -42.8534 H         1 UNK         0.0600 
    179 H179        2.0743  -11.6600  -45.1463 H         1 UNK         0.3000 
    180 H180        0.8158   -9.3748  -45.5467 H         1 UNK         0.0600 
    181 H181        1.8186   -7.6273  -43.2362 H         1 UNK         0.0600 
    182 H182        0.1503   -7.8096  -43.7591 H         1 UNK         0.0600 
    183 H183        1.3162   -7.0355  -44.8191 H         1 UNK         0.0600 
    184 H184        2.8823   -9.3287  -46.3381 H         1 UNK         0.3000 
    185 H185        5.2989   -8.3559  -46.2580 H         1 UNK         0.0600 
    186 H186        6.6928   -8.2944  -44.2086 H         1 UNK         0.0600 
    187 H187        6.6621  -10.0512  -44.1003 H         1 UNK         0.0600 
    188 H188        7.4706   -9.2584  -45.4521 H         1 UNK         0.0600 
    189 H189        5.6850  -11.2592  -45.9849 H         1 UNK         0.3000 
    190 H190       -1.2518  -21.4844  -48.2626 H         1 UNK         0.3000 
    191 H191       -1.6671  -22.9055  -50.6487 H         1 UNK         0.0600 
    192 H192       -3.4915  -21.0194  -49.0765 H         1 UNK         0.0600 
    193 H193       -3.8123  -21.5774  -50.7164 H         1 UNK         0.0600 
    194 H194       -2.3894  -20.5960  -50.3846 H         1 UNK         0.0600 
    195 H195       -3.4777  -23.1217  -47.5386 H         1 UNK         0.3000 
    196 H196       -5.3616  -25.0599  -48.3933 H         1 UNK         0.0600 
    197 H197       -5.7581  -25.3494  -45.9355 H         1 UNK         0.0600 
    198 H198       -5.6953  -23.6535  -46.3886 H         1 UNK         0.0600 
    199 H199       -4.3148  -24.4021  -45.5893 H         1 UNK         0.0600 
    200 H200       -2.1279  -25.4444  -46.8670 H         1 UNK         0.3000 
    201 H201       -2.2480  -28.2867  -46.5892 H         1 UNK         0.0600 
    202 H202       -0.6720  -26.9007  -45.2898 H         1 UNK         0.0600 
    203 H203        0.1523  -26.3898  -46.7612 H         1 UNK         0.0600 
    204 H204        0.2224  -28.0717  -46.2466 H         1 UNK         0.0600 
    205 H205       -0.9591  -26.1687  -49.1839 H         1 UNK         0.3000 
    206 H206       -0.0213  -28.3323  -50.8491 H         1 UNK         0.0600 
    207 H207        0.9532  -26.0477  -50.9222 H         1 UNK         0.0600 
    208 H208        0.3127  -26.4840  -52.4995 H         1 UNK         0.0600 
    209 H209       -0.5867  -25.3817  -51.4621 H         1 UNK         0.0600 
    210 H210       -3.0986  -26.7922  -50.4263 H         1 UNK         0.3000 
    211 H211       -5.1023  -26.8429  -51.3338 H         1 UNK         0.0600 
    212 H212       -4.2866  -29.3155  -52.9566 H         1 UNK         0.0600 
    213 H213       -5.9210  -28.7325  -52.6829 H         1 UNK         0.0600 
    214 H214       -4.9773  -29.3468  -51.3345 H         1 UNK         0.0600 
    215 H215       -3.4011  -25.0211  -52.1432 H         1 UNK         0.3000 
    216 H216       -3.9337  -24.4697  -55.0071 H         1 UNK         0.0600 
    217 H217       -1.5235  -24.0687  -55.4363 H         1 UNK         0.0600 
    218 H218       -1.8308  -25.7596  -55.0690 H         1 UNK         0.0600 
    219 H219       -1.1134  -24.7109  -53.8499 H         1 UNK         0.0600 
    220 H220       -4.5425  -21.4090  -53.0772 H         1 UNK         0.3000 
    221 H221       -5.8374  -23.8780  -54.1684 H         1 UNK         0.0600 
    222 H222       -6.7219  -20.9491  -54.3105 H         1 UNK         0.0600 
    223 H223       -5.9956  -21.8450  -55.6376 H         1 UNK         0.0600 
    224 H224       -7.5555  -22.3389  -55.0155 H         1 UNK         0.0600 
    225 H225       -8.2855  -22.2116  -53.1563 H         1 UNK         0.3000 
    226 H226       -8.6673  -23.7400  -50.7389 H         1 UNK         0.0600 
    227 H227      -10.4820  -23.4017  -52.3765 H         1 UNK         0.0600 
    228 H228      -10.9341  -22.7014  -50.8314 H         1 UNK         0.0600 
    229 H229      -10.4142  -21.6547  -52.1474 H         1 UNK         0.0600 
    230 H230       -6.7159  -22.7156  -49.7498 H         1 UNK         0.3000 
    231 H231       -5.7672  -21.6271  -48.0764 H         1 UNK         0.0600 
    232 H232       -7.0959  -20.7421  -46.2185 H         1 UNK         0.0600 
    233 H233       -7.8385  -22.2219  -46.7992 H         1 UNK         0.0600 
    234 H234       -8.5398  -20.6588  -47.2182 H         1 UNK         0.0600 
    235 H235       -5.8636  -20.3606  -50.6200 H         1 UNK         0.3000 
    236 H236       -4.7184  -17.8413  -49.8340 H         1 UNK         0.0600 
    237 H237       -7.0843  -17.0944  -50.2472 H         1 UNK         0.0600 
    238 H238       -6.0277  -16.5057  -51.5213 H         1 UNK         0.0600 
    239 H239       -7.0754  -17.8896  -51.8199 H         1 UNK         0.0600 
    240 H240       -3.0660  -17.3373  -51.3233 H         1 UNK         0.3000 
    241 H241       -2.1140  -19.5409  -52.8632 H         1 UNK         0.0600 
    242 H242       -4.3704  -17.1737  -53.9617 H         1 UNK         0.3800 
    243 H243       -4.0349  -17.3662  -55.6620 H         1 UNK         0.3800 
    244 H244       -0.1654  -18.0816  -53.3780 H         1 UNK         0.0800 
    245 H245       -0.9899  -16.7031  -52.6948 H         1 UNK         0.0800 
    246 H246        1.9040  -18.7448  -51.9806 H         1 UNK         0.0800 
    247 H247        1.7132  -17.0194  -51.7822 H         1 UNK         0.0800 
@<TRIPOS>BOND
     1    1    2 1    
     2    1  127 1    
     3    1  128 1    
     4    1  129 1    
     5    2    3 2    
     6    2    4 am   BACKBONE|DICT|INTERRES
     7    4    5 1    
     8    4  130 1    
     9    5    6 1    
    10    5   65 1    
    11    5  131 1    
    12    6    7 1    
    13    6  132 1    
    14    6  133 1    
    15    7    8 1    
    16    8    9 1    
    17    8  134 1    
    18    8  135 1    
    19    9   10 ar   
    20    9   14 ar   
    21   10   11 ar   
    22   10  136 1    
    23   11   12 ar   
    24   11  126 1    
    25   12   13 ar   
    26   12  137 1    
    27   13   14 ar   
    28   13   15 1    
    29   14  138 1    
    30   15   16 1    
    31   15  139 1    
    32   15  140 1    
    33   16   17 1    
    34   17   18 1    
    35   17  141 1    
    36   17  142 1    
    37   18   19 1    
    38   18   67 1    
    39   18  143 1    
    40   19   20 am   BACKBONE|DICT|INTERRES
    41   19  144 1    
    42   20   21 2    
    43   20   22 1    
    44   22   23 1    
    45   22   24 1    
    46   22  145 1    
    47   23  146 1    
    48   23  147 1    
    49   23  148 1    
    50   24   25 am   BACKBONE|DICT|INTERRES
    51   24  149 1    
    52   25   26 2    
    53   25   27 1    
    54   27   28 1    
    55   27   29 1    
    56   27  150 1    
    57   28  151 1    
    58   28  152 1    
    59   28  153 1    
    60   29   30 am   BACKBONE|DICT|INTERRES
    61   29  154 1    
    62   30   31 2    
    63   30   32 1    
    64   32   33 1    
    65   32   34 1    
    66   32  155 1    
    67   33  156 1    
    68   33  157 1    
    69   33  158 1    
    70   34   35 am   BACKBONE|DICT|INTERRES
    71   34  159 1    
    72   35   36 2    
    73   35   37 1    
    74   37   38 1    
    75   37   39 1    
    76   37  160 1    
    77   38  161 1    
    78   38  162 1    
    79   38  163 1    
    80   39   40 am   BACKBONE|DICT|INTERRES
    81   39  164 1    
    82   40   41 2    
    83   40   42 1    
    84   42   43 1    
    85   42   44 1    
    86   42  165 1    
    87   43  166 1    
    88   43  167 1    
    89   43  168 1    
    90   44   45 am   BACKBONE|DICT|INTERRES
    91   44  169 1    
    92   45   46 2    
    93   45   47 1    
    94   47   48 1    
    95   47   49 1    
    96   47  170 1    
    97   48  171 1    
    98   48  172 1    
    99   48  173 1    
   100   49   50 am   BACKBONE|DICT|INTERRES
   101   49  174 1    
   102   50   51 2    
   103   50   52 1    
   104   52   53 1    
   105   52   54 1    
   106   52  175 1    
   107   53  176 1    
   108   53  177 1    
   109   53  178 1    
   110   54   55 am   BACKBONE|DICT|INTERRES
   111   54  179 1    
   112   55   56 2    
   113   55   57 1    
   114   57   58 1    
   115   57   59 1    
   116   57  180 1    
   117   58  181 1    
   118   58  182 1    
   119   58  183 1    
   120   59   60 am   BACKBONE|DICT|INTERRES
   121   59  184 1    
   122   60   61 2    
   123   60   62 1    
   124   62   63 1    
   125   62   64 1    
   126   62  185 1    
   127   63  186 1    
   128   63  187 1    
   129   63  188 1    
   130   64   65 am   BACKBONE|DICT|INTERRES
   131   64  189 1    
   132   65   66 2    
   133   67   68 2    
   134   67   69 am   BACKBONE|DICT|INTERRES
   135   69   70 1    
   136   69  190 1    
   137   70   71 1    
   138   70   72 1    
   139   70  191 1    
   140   71  192 1    
   141   71  193 1    
   142   71  194 1    
   143   72   73 2    
   144   72   74 am   BACKBONE|DICT|INTERRES
   145   74   75 1    
   146   74  195 1    
   147   75   76 1    
   148   75   77 1    
   149   75  196 1    
   150   76  197 1    
   151   76  198 1    
   152   76  199 1    
   153   77   78 2    
   154   77   79 am   BACKBONE|DICT|INTERRES
   155   79   80 1    
   156   79  200 1    
   157   80   81 1    
   158   80   82 1    
   159   80  201 1    
   160   81  202 1    
   161   81  203 1    
   162   81  204 1    
   163   82   83 2    
   164   82   84 am   BACKBONE|DICT|INTERRES
   165   84   85 1    
   166   84  205 1    
   167   85   86 1    
   168   85   87 1    
   169   85  206 1    
   170   86  207 1    
   171   86  208 1    
   172   86  209 1    
   173   87   88 2    
   174   87   89 am   BACKBONE|DICT|INTERRES
   175   89   90 1    
   176   89  210 1    
   177   90   91 1    
   178   90   92 1    
   179   90  211 1    
   180   91  212 1    
   181   91  213 1    
   182   91  214 1    
   183   92   93 2    
   184   92   94 am   BACKBONE|DICT|INTERRES
   185   94   95 1    
   186   94  215 1    
   187   95   96 1    
   188   95   97 1    
   189   95  216 1    
   190   96  217 1    
   191   96  218 1    
   192   96  219 1    
   193   97   98 2    
   194   97   99 am   BACKBONE|DICT|INTERRES
   195   99  100 1    
   196   99  220 1    
   197  100  101 1    
   198  100  102 1    
   199  100  221 1    
   200  101  222 1    
   201  101  223 1    
   202  101  224 1    
   203  102  103 2    
   204  102  104 am   BACKBONE|DICT|INTERRES
   205  104  105 1    
   206  104  225 1    
   207  105  106 1    
   208  105  107 1    
   209  105  226 1    
   210  106  227 1    
   211  106  228 1    
   212  106  229 1    
   213  107  108 2    
   214  107  109 am   BACKBONE|DICT|INTERRES
   215  109  110 1    
   216  109  230 1    
   217  110  111 1    
   218  110  112 1    
   219  110  231 1    
   220  111  232 1    
   221  111  233 1    
   222  111  234 1    
   223  112  113 2    
   224  112  114 am   BACKBONE|DICT|INTERRES
   225  114  115 1    
   226  114  235 1    
   227  115  116 1    
   228  115  117 1    
   229  115  236 1    
   230  116  237 1    
   231  116  238 1    
   232  116  239 1    
   233  117  118 2    
   234  117  119 am   BACKBONE|DICT|INTERRES
   235  119  120 1    
   236  119  240 1    
   237  120  121 1    
   238  120  124 1    
   239  120  241 1    
   240  121  122 am   BACKBONE|DICT|INTERRES
   241  121  123 2    
   242  122  242 1    
   243  122  243 1    
   244  124  125 1    
   245  124  244 1    
   246  124  245 1    
   247  125  126 1    
   248  126  246 1    
   249  126  247 1    
@<TRIPOS>SUBSTRUCTURE
     1 UNK         1 GROUP             0       ****    0 ROOT    
