@<TRIPOS>MOLECULE
3R540
247   249    1
SMALL
USER_CHARGES


@<TRIPOS>ATOM
      1 CA         -2.1778  -15.9294  -49.5733 C.3       0 UNK        -0.1800 
      2 C          -1.4087  -15.3432  -48.4022 C.2       0 UNK         0.5000 
      3 O          -2.0126  -14.8967  -47.4276 O.2       0 UNK        -0.5000 
      4 N          -0.0720  -15.3617  -48.4823 N.am      1 UNK        -0.5000 
      5 CA          0.8346  -14.8118  -47.4662 C.3       1 UNK         0.1400 
      6 C6          2.2940  -14.7175  -47.9747 C.3       23 UNK        -0.0398 
      7 S7          3.0502  -16.3168  -48.4396 S.3       23 UNK        -0.2404 
      8 C8          2.9583  -16.3264  -50.2594 C.3       23 UNK        -0.0205 
      9 C9          2.0006  -17.3958  -50.7640 C.ar      23 UNK        -0.0193 
     10 C10         0.8481  -17.0475  -51.4737 C.ar      23 UNK        -0.1150 
     11 C11        -0.0096  -18.0377  -51.9627 C.ar      23 UNK        -0.0193 
     12 C12         0.2766  -19.3845  -51.7106 C.ar      23 UNK        -0.1150 
     13 C13         1.4343  -19.7473  -51.0146 C.ar      23 UNK        -0.0193 
     14 C14         2.2929  -18.7463  -50.5518 C.ar      23 UNK        -0.1150 
     15 C15         1.7873  -21.2175  -50.8110 C.3       23 UNK        -0.0205 
     16 S16         2.0768  -21.6506  -49.0620 S.3       23 UNK        -0.2404 
     17 C17         0.4162  -21.4190  -48.3546 C.3       23 UNK        -0.0398 
     18 CA         -0.0072  -22.5856  -47.4299 C.3       11 UNK         0.1400 
     19 N           0.8656  -22.7529  -46.2594 N.am      11 UNK        -0.5000 
     20 C           0.9006  -23.8733  -45.5232 C.2       10 UNK         0.5000 
     21 O           0.1827  -24.8495  -45.7407 O.2       10 UNK        -0.5000 
     22 CA          1.8511  -23.8924  -44.3106 C.3       10 UNK         0.1400 
     23 CB          3.3096  -24.0504  -44.7662 C.3       10 UNK        -0.1800 
     24 N           1.7437  -22.7253  -43.4297 N.am      10 UNK        -0.5000 
     25 C           0.6174  -22.2401  -42.8896 C.2       9 UNK         0.5000 
     26 O          -0.4981  -22.6913  -43.1467 O.2       9 UNK        -0.5000 
     27 CA          0.7247  -21.0640  -41.8927 C.3       9 UNK         0.1400 
     28 CB          0.0808  -21.4413  -40.5484 C.3       9 UNK        -0.1800 
     29 N           2.0757  -20.5550  -41.6301 N.am      9 UNK        -0.5000 
     30 C           2.8585  -19.9111  -42.5035 C.2       8 UNK         0.5000 
     31 O           2.6083  -19.8138  -43.7052 O.2       8 UNK        -0.5000 
     32 CA          4.1576  -19.3065  -41.9361 C.3       8 UNK         0.1400 
     33 CB          5.2787  -20.3574  -41.9358 C.3       8 UNK        -0.1800 
     34 N           4.6046  -18.1389  -42.6981 N.am      8 UNK        -0.5000 
     35 C           3.9168  -16.9971  -42.8303 C.2       7 UNK         0.5000 
     36 O           2.8618  -16.7576  -42.2343 O.2       7 UNK        -0.5000 
     37 CA          4.5113  -15.9620  -43.8008 C.3       7 UNK         0.1400 
     38 CB          4.5708  -16.5214  -45.2311 C.3       7 UNK        -0.1800 
     39 N           3.6696  -14.7720  -43.8047 N.am      7 UNK        -0.5000 
     40 C           4.0678  -13.5133  -43.5927 C.2       6 UNK         0.5000 
     41 O           5.2451  -13.1733  -43.4704 O.2       6 UNK        -0.5000 
     42 CA          2.9527  -12.4558  -43.4810 C.3       6 UNK         0.1400 
     43 CB          2.7223  -11.7630  -44.8330 C.3       6 UNK        -0.1800 
     44 N           1.6941  -13.0545  -43.0394 N.am      6 UNK        -0.5000 
     45 C           1.3718  -13.3246  -41.7681 C.2       5 UNK         0.5000 
     46 O           2.0579  -12.9783  -40.8047 O.2       5 UNK        -0.5000 
     47 CA          0.0780  -14.1389  -41.5491 C.3       5 UNK         0.1400 
     48 CB         -0.5631  -13.8999  -40.1664 C.3       5 UNK        -0.1800 
     49 N          -0.9027  -13.9668  -42.6269 N.am      5 UNK        -0.5000 
     50 C          -1.5590  -12.8486  -42.9747 C.2       4 UNK         0.5000 
     51 O          -1.4605  -11.7785  -42.3735 O.2       4 UNK        -0.5000 
     52 CA         -2.4610  -12.9240  -44.2255 C.3       4 UNK         0.1400 
     53 CB         -1.8178  -12.1508  -45.3877 C.3       4 UNK        -0.1800 
     54 N          -2.7296  -14.2927  -44.6707 N.am      4 UNK        -0.5000 
     55 C          -3.5322  -15.1658  -44.0470 C.2       3 UNK         0.5000 
     56 O          -4.2147  -14.8870  -43.0610 O.2       3 UNK        -0.5000 
     57 CA         -3.5276  -16.6060  -44.5902 C.3       3 UNK         0.1400 
     58 CB         -4.5463  -16.7753  -45.7279 C.3       3 UNK        -0.1800 
     59 N          -2.2027  -17.0107  -45.0632 N.am      3 UNK        -0.5000 
     60 C          -1.1592  -17.2849  -44.2671 C.2       2 UNK         0.5000 
     61 O          -1.1990  -17.2305  -43.0390 O.2       2 UNK        -0.5000 
     62 CA          0.1512  -17.6714  -44.9720 C.3       2 UNK         0.1400 
     63 CB          0.0841  -19.1356  -45.4194 C.3       2 UNK        -0.1800 
     64 N           0.4218  -16.8387  -46.1416 N.am      2 UNK        -0.5000 
     65 C           0.7279  -15.5353  -46.1048 C.2       1 UNK         0.5000 
     66 O           0.8786  -14.8979  -45.0619 O.2       1 UNK        -0.5000 
     67 C          -1.4926  -22.4454  -47.0411 C.2       11 UNK         0.5000 
     68 O          -2.3506  -22.7762  -47.8577 O.2       11 UNK        -0.5000 
     69 N          -1.7867  -21.9687  -45.8239 N.am      12 UNK        -0.5000 
     70 CA         -3.1501  -21.8713  -45.3010 C.3       12 UNK         0.1400 
     71 CB         -3.2098  -20.8346  -44.1686 C.3       12 UNK        -0.1800 
     72 C          -3.6658  -23.2457  -44.8457 C.2       12 UNK         0.5000 
     73 O          -4.8040  -23.5972  -45.1536 O.2       12 UNK        -0.5000 
     74 N          -2.7984  -24.0198  -44.1788 N.am      13 UNK        -0.5000 
     75 CA         -3.0478  -25.3994  -43.7585 C.3       13 UNK         0.1400 
     76 CB         -1.8980  -25.8673  -42.8533 C.3       13 UNK        -0.1800 
     77 C          -3.2353  -26.3590  -44.9493 C.2       13 UNK         0.5000 
     78 O          -4.1202  -27.2142  -44.9087 O.2       13 UNK        -0.5000 
     79 N          -2.4245  -26.1758  -46.0008 N.am      14 UNK        -0.5000 
     80 CA         -2.5127  -26.9148  -47.2632 C.3       14 UNK         0.1400 
     81 CB         -1.1796  -26.7661  -48.0138 C.3       14 UNK        -0.1800 
     82 C          -3.6784  -26.4612  -48.1670 C.2       14 UNK         0.5000 
     83 O          -3.9905  -27.1584  -49.1325 O.2       14 UNK        -0.5000 
     84 N          -4.2677  -25.2934  -47.8657 N.am      15 UNK        -0.5000 
     85 CA         -5.3034  -24.5803  -48.6256 C.3       15 UNK         0.1400 
     86 CB         -6.6038  -25.4038  -48.7186 C.3       15 UNK        -0.1800 
     87 C          -4.8220  -24.0658  -50.0011 C.2       15 UNK         0.5000 
     88 O          -5.6410  -23.7229  -50.8537 O.2       15 UNK        -0.5000 
     89 N          -3.4988  -23.9690  -50.1779 N.am      16 UNK        -0.5000 
     90 CA         -2.8356  -23.3899  -51.3433 C.3       16 UNK         0.1400 
     91 CB         -1.3584  -23.8100  -51.3360 C.3       16 UNK        -0.1800 
     92 C          -2.9598  -21.8568  -51.3782 C.2       16 UNK         0.5000 
     93 O          -2.9949  -21.2808  -52.4654 O.2       16 UNK        -0.5000 
     94 N          -3.0456  -21.2310  -50.1951 N.am      17 UNK        -0.5000 
     95 CA         -3.2523  -19.7925  -50.0122 C.3       17 UNK         0.1400 
     96 CB         -2.9724  -19.4255  -48.5458 C.3       17 UNK        -0.1800 
     97 C          -4.6605  -19.3186  -50.4199 C.2       17 UNK         0.5000 
     98 O          -4.8370  -18.1364  -50.7117 O.2       17 UNK        -0.5000 
     99 N          -5.6358  -20.2385  -50.4197 N.am      18 UNK        -0.5000 
    100 CA        -7.0270  -19.9707  -50.7849 C.3       18 UNK         0.1400 
    101 CB        -7.9224  -21.0643  -50.1816 C.3       18 UNK        -0.1800 
    102 C         -7.2427  -19.8712  -52.3073 C.2       18 UNK         0.5000 
    103 O         -8.2317  -19.2739  -52.7349 O.2       18 UNK        -0.5000 
    104 N         -6.3321  -20.4540  -53.0992 N.am      19 UNK        -0.5000 
    105 CA        -6.3437  -20.3787  -54.5569 C.3       19 UNK         0.1400 
    106 CB        -5.4840  -21.5171  -55.1280 C.3       19 UNK        -0.1800 
    107 C         -5.8092  -19.0154  -55.0223 C.2       19 UNK         0.5000 
    108 O         -4.7469  -18.5936  -54.5624 O.2       19 UNK        -0.5000 
    109 N         -6.5195  -18.3726  -55.9583 N.am      20 UNK        -0.5000 
    110 CA        -6.1479  -17.0743  -56.5345 C.3       20 UNK         0.1400 
    111 CB        -7.3172  -16.5441  -57.3781 C.3       20 UNK        -0.1800 
    112 C         -4.8546  -17.1240  -57.3728 C.2       20 UNK         0.5000 
    113 O         -4.1318  -16.1296  -57.4402 O.2       20 UNK        -0.5000 
    114 N         -4.5802  -18.2889  -57.9747 N.am      21 UNK        -0.5000 
    115 CA        -3.3501  -18.5857  -58.7112 C.3       21 UNK         0.1400 
    116 CB        -3.6568  -19.6840  -59.7426 C.3       21 UNK        -0.1800 
    117 C         -2.1842  -19.0167  -57.7950 C.2       21 UNK         0.5000 
    118 O         -1.0574  -19.1165  -58.2809 O.2       21 UNK        -0.5000 
    119 N         -2.4786  -19.2653  -56.5104 N.am      22 UNK        -0.5000 
    120 CA        -1.6040  -19.8017  -55.4573 C.3       22 UNK         0.1400 
    121 C         -1.2122  -21.2850  -55.6954 C.2       22 UNK         0.5000 
    122 N         -1.6345  -22.1812  -54.8151 N.am      22 UNK        -0.7600 
    123 O         -0.5030  -21.6298  -56.6365 O.2       22 UNK        -0.5000 
    124 C124       -0.3633  -18.9219  -55.1529 C.3       23 UNK        -0.0398 
    125 S125       -0.8201  -17.2739  -54.5144 S.3       23 UNK        -0.2404 
    126 C126       -1.2348  -17.6472  -52.7786 C.3       23 UNK        -0.0205 
    127 H127       -1.7643  -16.8956  -49.8592 H         1 UNK         0.0600 
    128 H128       -2.1291  -15.2578  -50.4300 H         1 UNK         0.0600 
    129 H129       -3.2269  -16.0729  -49.3135 H         1 UNK         0.0600 
    130 H130        0.3748  -15.7722  -49.2896 H         1 UNK         0.3000 
    131 H131        0.5039  -13.7875  -47.2834 H         1 UNK         0.0600 
    132 H132        2.9260  -14.2666  -47.2077 H         1 UNK         0.0800 
    133 H133        2.3428  -14.0299  -48.8193 H         1 UNK         0.0800 
    134 H134        2.6831  -15.3433  -50.6426 H         1 UNK         0.0800 
    135 H135        3.9535  -16.5344  -50.6550 H         1 UNK         0.0800 
    136 H136        0.6284  -16.0078  -51.6726 H         1 UNK         0.1150 
    137 H137       -0.3859  -20.1508  -52.0882 H         1 UNK         0.1150 
    138 H138        3.1948  -19.0191  -50.0217 H         1 UNK         0.1150 
    139 H139        1.0111  -21.8662  -51.2182 H         1 UNK         0.0800 
    140 H140        2.6935  -21.4361  -51.3771 H         1 UNK         0.0800 
    141 H141       -0.2943  -21.3134  -49.1761 H         1 UNK         0.0800 
    142 H142        0.4064  -20.4667  -47.8301 H         1 UNK         0.0800 
    143 H143        0.0642  -23.5011  -48.0209 H         1 UNK         0.0600 
    144 H144        1.4855  -21.9897  -46.0283 H         1 UNK         0.3000 
    145 H145        1.5889  -24.7669  -43.7120 H         1 UNK         0.0600 
    146 H146        3.9750  -24.1963  -43.9151 H         1 UNK         0.0600 
    147 H147        3.4244  -24.9171  -45.4187 H         1 UNK         0.0600 
    148 H148        3.6573  -23.1756  -45.3172 H         1 UNK         0.0600 
    149 H149        2.6072  -22.2600  -43.1933 H         1 UNK         0.3000 
    150 H150        0.1440  -20.2420  -42.3144 H         1 UNK         0.0600 
    151 H151        0.6177  -22.2562  -40.0614 H         1 UNK         0.0600 
    152 H152       -0.9533  -21.7629  -40.6807 H         1 UNK         0.0600 
    153 H153        0.0652  -20.5919  -39.8651 H         1 UNK         0.0600 
    154 H154        2.3865  -20.6252  -40.6718 H         1 UNK         0.3000 
    155 H155        3.9731  -18.9859  -40.9087 H         1 UNK         0.0600 
    156 H156        5.5080  -20.7011  -42.9455 H         1 UNK         0.0600 
    157 H157        4.9980  -21.2321  -41.3476 H         1 UNK         0.0600 
    158 H158        6.1950  -19.9574  -41.5010 H         1 UNK         0.0600 
    159 H159        5.4455  -18.2625  -43.2420 H         1 UNK         0.3000 
    160 H160        5.5201  -15.7192  -43.4612 H         1 UNK         0.0600 
    161 H161        3.5947  -16.8847  -45.5553 H         1 UNK         0.0600 
    162 H162        5.2706  -17.3539  -45.3062 H         1 UNK         0.0600 
    163 H163        4.8995  -15.7606  -45.9392 H         1 UNK         0.0600 
    164 H164        2.6740  -14.9542  -43.8522 H         1 UNK         0.3000 
    165 H165        3.2705  -11.7028  -42.7569 H         1 UNK         0.0600 
    166 H166        1.9714  -10.9772  -44.7484 H         1 UNK         0.0600 
    167 H167        3.6402  -11.2990  -45.1962 H         1 UNK         0.0600 
    168 H168        2.3845  -12.4664  -45.5943 H         1 UNK         0.0600 
    169 H169        1.1068  -13.4483  -43.7676 H         1 UNK         0.3000 
    170 H170        0.3799  -15.1867  -41.5907 H         1 UNK         0.0600 
    171 H171        0.1176  -14.1906  -39.3655 H         1 UNK         0.0600 
    172 H172       -0.8183  -12.8513  -40.0117 H         1 UNK         0.0600 
    173 H173       -1.4724  -14.4890  -40.0472 H         1 UNK         0.0600 
    174 H174       -1.0507  -14.7851  -43.2016 H         1 UNK         0.3000 
    175 H175       -3.4119  -12.4481  -43.9777 H         1 UNK         0.0600 
    176 H176       -1.6592  -11.1047  -45.1231 H         1 UNK         0.0600 
    177 H177       -0.8490  -12.5705  -45.6593 H         1 UNK         0.0600 
    178 H178       -2.4518  -12.1694  -46.2745 H         1 UNK         0.0600 
    179 H179       -2.2742  -14.5867  -45.5305 H         1 UNK         0.3000 
    180 H180       -3.8180  -17.2709  -43.7738 H         1 UNK         0.0600 
    181 H181       -4.3053  -16.1463  -46.5854 H         1 UNK         0.0600 
    182 H182       -5.5493  -16.5054  -45.3952 H         1 UNK         0.0600 
    183 H183       -4.5854  -17.8095  -46.0706 H         1 UNK         0.0600 
    184 H184       -2.0652  -17.0161  -46.0627 H         1 UNK         0.3000 
    185 H185        0.9726  -17.5557  -44.2616 H         1 UNK         0.0600 
    186 H186       -0.1191  -19.7926  -44.5758 H         1 UNK         0.0600 
    187 H187       -0.7063  -19.2934  -46.1528 H         1 UNK         0.0600 
    188 H188        1.0316  -19.4508  -45.8557 H         1 UNK         0.0600 
    189 H189        0.3445  -17.2786  -47.0462 H         1 UNK         0.3000 
    190 H190       -1.0359  -21.8051  -45.1682 H         1 UNK         0.3000 
    191 H191       -3.8104  -21.5237  -46.0977 H         1 UNK         0.0600 
    192 H192       -2.9018  -19.8514  -44.5225 H         1 UNK         0.0600 
    193 H193       -4.2265  -20.7360  -43.7867 H         1 UNK         0.0600 
    194 H194       -2.5710  -21.1044  -43.3281 H         1 UNK         0.0600 
    195 H195       -1.8940  -23.6270  -43.9277 H         1 UNK         0.3000 
    196 H196       -3.9696  -25.4096  -43.1734 H         1 UNK         0.0600 
    197 H197       -2.0664  -26.8858  -42.5015 H         1 UNK         0.0600 
    198 H198       -1.8049  -25.2293  -41.9742 H         1 UNK         0.0600 
    199 H199       -0.9415  -25.8531  -43.3770 H         1 UNK         0.0600 
    200 H200       -1.6633  -25.5077  -45.9187 H         1 UNK         0.3000 
    201 H201       -2.6628  -27.9727  -47.0382 H         1 UNK         0.0600 
    202 H202       -1.1833  -27.3411  -48.9407 H         1 UNK         0.0600 
    203 H203       -0.3454  -27.1273  -47.4121 H         1 UNK         0.0600 
    204 H204       -0.9795  -25.7263  -48.2739 H         1 UNK         0.0600 
    205 H205       -3.9341  -24.8071  -47.0446 H         1 UNK         0.3000 
    206 H206       -5.5279  -23.6863  -48.0420 H         1 UNK         0.0600 
    207 H207       -6.9219  -25.7494  -47.7350 H         1 UNK         0.0600 
    208 H208       -7.4170  -24.8039  -49.1290 H         1 UNK         0.0600 
    209 H209       -6.4883  -26.2765  -49.3616 H         1 UNK         0.0600 
    210 H210       -2.9118  -24.1775  -49.3811 H         1 UNK         0.3000 
    211 H211       -3.3059  -23.7862  -52.2457 H         1 UNK         0.0600 
    212 H212       -0.8452  -23.4661  -50.4379 H         1 UNK         0.0600 
    213 H213       -0.8282  -23.3998  -52.1963 H         1 UNK         0.0600 
    214 H214       -1.2590  -24.8947  -51.3812 H         1 UNK         0.0600 
    215 H215       -2.9791  -21.7942  -49.3518 H         1 UNK         0.3000 
    216 H216       -2.5345  -19.2613  -50.6370 H         1 UNK         0.0600 
    217 H217       -3.1730  -18.3715  -48.3539 H         1 UNK         0.0600 
    218 H218       -1.9312  -19.6066  -48.2859 H         1 UNK         0.0600 
    219 H219       -3.5989  -19.9997  -47.8641 H         1 UNK         0.0600 
    220 H220       -5.4037  -21.1931  -50.1881 H         1 UNK         0.3000 
    221 H221       -7.3228  -19.0144  -50.3478 H         1 UNK         0.0600 
    222 H222       -7.7053  -22.0444  -50.6067 H         1 UNK         0.0600 
    223 H223       -7.7951  -21.1299  -49.1008 H         1 UNK         0.0600 
    224 H224       -8.9754  -20.8533  -50.3718 H         1 UNK         0.0600 
    225 H225       -5.5134  -20.8668  -52.6755 H         1 UNK         0.3000 
    226 H226       -7.3680  -20.5097  -54.9127 H         1 UNK         0.0600 
    227 H227       -5.4931  -21.5062  -56.2186 H         1 UNK         0.0600 
    228 H228       -4.4450  -21.4363  -54.8088 H         1 UNK         0.0600 
    229 H229       -5.8560  -22.4908  -54.8087 H         1 UNK         0.0600 
    230 H230       -7.3829  -18.7801  -56.2884 H         1 UNK         0.3000 
    231 H231       -5.9775  -16.3774  -55.7109 H         1 UNK         0.0600 
    232 H232       -7.5517  -17.2126  -58.2075 H         1 UNK         0.0600 
    233 H233       -7.0818  -15.5665  -57.8011 H         1 UNK         0.0600 
    234 H234       -8.2178  -16.4268  -56.7751 H         1 UNK         0.0600 
    235 H235       -5.2423  -19.0445  -57.8774 H         1 UNK         0.3000 
    236 H236       -3.0307  -17.6915  -59.2507 H         1 UNK         0.0600 
    237 H237       -4.4467  -19.3737  -60.4269 H         1 UNK         0.0600 
    238 H238       -2.7773  -19.9109  -60.3467 H         1 UNK         0.0600 
    239 H239       -3.9721  -20.6109  -59.2618 H         1 UNK         0.0600 
    240 H240       -3.4246  -19.0837  -56.2026 H         1 UNK         0.3000 
    241 H241       -2.2291  -19.7869  -54.5651 H         1 UNK         0.0600 
    242 H242       -1.3879  -23.1495  -54.9425 H         1 UNK         0.3800 
    243 H243       -2.1928  -21.8963  -54.0144 H         1 UNK         0.3800 
    244 H244        0.2911  -19.4100  -54.4312 H         1 UNK         0.0800 
    245 H245        0.2462  -18.7885  -56.0469 H         1 UNK         0.0800 
    246 H246       -1.6985  -16.7627  -52.3423 H         1 UNK         0.0800 
    247 H247       -1.9940  -18.4287  -52.7426 H         1 UNK         0.0800 
@<TRIPOS>BOND
     1    1    2 1    
     2    1  127 1    
     3    1  128 1    
     4    1  129 1    
     5    2    3 2    
     6    2    4 am   BACKBONE|DICT|INTERRES
     7    4    5 1    
     8    4  130 1    
     9    5    6 1    
    10    5   65 1    
    11    5  131 1    
    12    6    7 1    
    13    6  132 1    
    14    6  133 1    
    15    7    8 1    
    16    8    9 1    
    17    8  134 1    
    18    8  135 1    
    19    9   10 ar   
    20    9   14 ar   
    21   10   11 ar   
    22   10  136 1    
    23   11   12 ar   
    24   11  126 1    
    25   12   13 ar   
    26   12  137 1    
    27   13   14 ar   
    28   13   15 1    
    29   14  138 1    
    30   15   16 1    
    31   15  139 1    
    32   15  140 1    
    33   16   17 1    
    34   17   18 1    
    35   17  141 1    
    36   17  142 1    
    37   18   19 1    
    38   18   67 1    
    39   18  143 1    
    40   19   20 am   BACKBONE|DICT|INTERRES
    41   19  144 1    
    42   20   21 2    
    43   20   22 1    
    44   22   23 1    
    45   22   24 1    
    46   22  145 1    
    47   23  146 1    
    48   23  147 1    
    49   23  148 1    
    50   24   25 am   BACKBONE|DICT|INTERRES
    51   24  149 1    
    52   25   26 2    
    53   25   27 1    
    54   27   28 1    
    55   27   29 1    
    56   27  150 1    
    57   28  151 1    
    58   28  152 1    
    59   28  153 1    
    60   29   30 am   BACKBONE|DICT|INTERRES
    61   29  154 1    
    62   30   31 2    
    63   30   32 1    
    64   32   33 1    
    65   32   34 1    
    66   32  155 1    
    67   33  156 1    
    68   33  157 1    
    69   33  158 1    
    70   34   35 am   BACKBONE|DICT|INTERRES
    71   34  159 1    
    72   35   36 2    
    73   35   37 1    
    74   37   38 1    
    75   37   39 1    
    76   37  160 1    
    77   38  161 1    
    78   38  162 1    
    79   38  163 1    
    80   39   40 am   BACKBONE|DICT|INTERRES
    81   39  164 1    
    82   40   41 2    
    83   40   42 1    
    84   42   43 1    
    85   42   44 1    
    86   42  165 1    
    87   43  166 1    
    88   43  167 1    
    89   43  168 1    
    90   44   45 am   BACKBONE|DICT|INTERRES
    91   44  169 1    
    92   45   46 2    
    93   45   47 1    
    94   47   48 1    
    95   47   49 1    
    96   47  170 1    
    97   48  171 1    
    98   48  172 1    
    99   48  173 1    
   100   49   50 am   BACKBONE|DICT|INTERRES
   101   49  174 1    
   102   50   51 2    
   103   50   52 1    
   104   52   53 1    
   105   52   54 1    
   106   52  175 1    
   107   53  176 1    
   108   53  177 1    
   109   53  178 1    
   110   54   55 am   BACKBONE|DICT|INTERRES
   111   54  179 1    
   112   55   56 2    
   113   55   57 1    
   114   57   58 1    
   115   57   59 1    
   116   57  180 1    
   117   58  181 1    
   118   58  182 1    
   119   58  183 1    
   120   59   60 am   BACKBONE|DICT|INTERRES
   121   59  184 1    
   122   60   61 2    
   123   60   62 1    
   124   62   63 1    
   125   62   64 1    
   126   62  185 1    
   127   63  186 1    
   128   63  187 1    
   129   63  188 1    
   130   64   65 am   BACKBONE|DICT|INTERRES
   131   64  189 1    
   132   65   66 2    
   133   67   68 2    
   134   67   69 am   BACKBONE|DICT|INTERRES
   135   69   70 1    
   136   69  190 1    
   137   70   71 1    
   138   70   72 1    
   139   70  191 1    
   140   71  192 1    
   141   71  193 1    
   142   71  194 1    
   143   72   73 2    
   144   72   74 am   BACKBONE|DICT|INTERRES
   145   74   75 1    
   146   74  195 1    
   147   75   76 1    
   148   75   77 1    
   149   75  196 1    
   150   76  197 1    
   151   76  198 1    
   152   76  199 1    
   153   77   78 2    
   154   77   79 am   BACKBONE|DICT|INTERRES
   155   79   80 1    
   156   79  200 1    
   157   80   81 1    
   158   80   82 1    
   159   80  201 1    
   160   81  202 1    
   161   81  203 1    
   162   81  204 1    
   163   82   83 2    
   164   82   84 am   BACKBONE|DICT|INTERRES
   165   84   85 1    
   166   84  205 1    
   167   85   86 1    
   168   85   87 1    
   169   85  206 1    
   170   86  207 1    
   171   86  208 1    
   172   86  209 1    
   173   87   88 2    
   174   87   89 am   BACKBONE|DICT|INTERRES
   175   89   90 1    
   176   89  210 1    
   177   90   91 1    
   178   90   92 1    
   179   90  211 1    
   180   91  212 1    
   181   91  213 1    
   182   91  214 1    
   183   92   93 2    
   184   92   94 am   BACKBONE|DICT|INTERRES
   185   94   95 1    
   186   94  215 1    
   187   95   96 1    
   188   95   97 1    
   189   95  216 1    
   190   96  217 1    
   191   96  218 1    
   192   96  219 1    
   193   97   98 2    
   194   97   99 am   BACKBONE|DICT|INTERRES
   195   99  100 1    
   196   99  220 1    
   197  100  101 1    
   198  100  102 1    
   199  100  221 1    
   200  101  222 1    
   201  101  223 1    
   202  101  224 1    
   203  102  103 2    
   204  102  104 am   BACKBONE|DICT|INTERRES
   205  104  105 1    
   206  104  225 1    
   207  105  106 1    
   208  105  107 1    
   209  105  226 1    
   210  106  227 1    
   211  106  228 1    
   212  106  229 1    
   213  107  108 2    
   214  107  109 am   BACKBONE|DICT|INTERRES
   215  109  110 1    
   216  109  230 1    
   217  110  111 1    
   218  110  112 1    
   219  110  231 1    
   220  111  232 1    
   221  111  233 1    
   222  111  234 1    
   223  112  113 2    
   224  112  114 am   BACKBONE|DICT|INTERRES
   225  114  115 1    
   226  114  235 1    
   227  115  116 1    
   228  115  117 1    
   229  115  236 1    
   230  116  237 1    
   231  116  238 1    
   232  116  239 1    
   233  117  118 2    
   234  117  119 am   BACKBONE|DICT|INTERRES
   235  119  120 1    
   236  119  240 1    
   237  120  121 1    
   238  120  124 1    
   239  120  241 1    
   240  121  122 am   BACKBONE|DICT|INTERRES
   241  121  123 2    
   242  122  242 1    
   243  122  243 1    
   244  124  125 1    
   245  124  244 1    
   246  124  245 1    
   247  125  126 1    
   248  126  246 1    
   249  126  247 1    
@<TRIPOS>SUBSTRUCTURE
     1 UNK         1 GROUP             0       ****    0 ROOT    
