@<TRIPOS>MOLECULE
3R540
247   249    1
SMALL
USER_CHARGES


@<TRIPOS>ATOM
      1 CA         -6.9253  -11.7516  -48.5486 C.3       0 UNK        -0.1800 
      2 C          -5.8074  -12.7825  -48.6211 C.2       0 UNK         0.5000 
      3 O          -5.7714  -13.5793  -49.5582 O.2       0 UNK        -0.5000 
      4 N          -4.9053  -12.7722  -47.6321 N.am      1 UNK        -0.5000 
      5 CA         -3.7365  -13.6523  -47.5408 C.3       1 UNK         0.1400 
      6 C6         -3.0403  -13.5259  -46.1615 C.3       23 UNK        -0.0398 
      7 S7         -3.9943  -14.3416  -44.8379 S.3       23 UNK        -0.2404 
      8 C8         -2.9962  -15.8373  -44.5147 C.3       23 UNK        -0.0205 
      9 C9         -2.6525  -16.6010  -45.7872 C.ar      23 UNK        -0.0193 
     10 C10        -3.6682  -17.0911  -46.6128 C.ar      23 UNK        -0.1150 
     11 C11        -3.3556  -17.7373  -47.8105 C.ar      23 UNK        -0.0193 
     12 C12        -2.0184  -17.9051  -48.1696 C.ar      23 UNK        -0.1150 
     13 C13        -0.9895  -17.4617  -47.3360 C.ar      23 UNK        -0.0193 
     14 C14        -1.3165  -16.7976  -46.1509 C.ar      23 UNK        -0.1150 
     15 C15         0.4722  -17.6590  -47.7229 C.3       23 UNK        -0.0205 
     16 S16         0.8486  -19.3017  -48.4147 S.3       23 UNK        -0.2404 
     17 C17         0.6089  -20.3879  -46.9758 C.3       23 UNK        -0.0398 
     18 CA         -0.3612  -21.5660  -47.2696 C.3       11 UNK         0.1400 
     19 N           0.0371  -22.7519  -46.5238 N.am      11 UNK        -0.5000 
     20 C           0.0767  -24.0038  -46.9904 C.2       10 UNK         0.5000 
     21 O          -0.1929  -24.3128  -48.1517 O.2       10 UNK        -0.5000 
     22 CA          0.5016  -25.0971  -45.9882 C.3       10 UNK         0.1400 
     23 CB          1.9890  -25.4282  -46.1768 C.3       10 UNK        -0.1800 
     24 N           0.2655  -24.7337  -44.5872 N.am      10 UNK        -0.5000 
     25 C          -0.9383  -24.4822  -44.0535 C.2       9 UNK         0.5000 
     26 O          -1.9943  -24.5765  -44.6811 O.2       9 UNK        -0.5000 
     27 CA         -0.9588  -23.9565  -42.6041 C.3       9 UNK         0.1400 
     28 CB         -1.0504  -25.1245  -41.6122 C.3       9 UNK        -0.1800 
     29 N           0.1844  -23.1007  -42.2509 N.am      9 UNK        -0.5000 
     30 C           0.5157  -21.9668  -42.8840 C.2       8 UNK         0.5000 
     31 O          -0.0542  -21.5680  -43.9000 O.2       8 UNK        -0.5000 
     32 CA          1.7081  -21.1649  -42.3376 C.3       8 UNK         0.1400 
     33 CB          3.0194  -21.6936  -42.9384 C.3       8 UNK        -0.1800 
     34 N           1.5785  -19.7459  -42.6751 N.am      8 UNK        -0.5000 
     35 C           0.6861  -18.9068  -42.1307 C.2       7 UNK         0.5000 
     36 O          -0.0730  -19.2318  -41.2156 O.2       7 UNK        -0.5000 
     37 CA          0.6221  -17.4746  -42.7155 C.3       7 UNK         0.1400 
     38 CB          0.0570  -16.4468  -41.7157 C.3       7 UNK        -0.1800 
     39 N           1.8784  -16.9749  -43.2946 N.am      7 UNK        -0.5000 
     40 C           3.0807  -16.9101  -42.6993 C.2       6 UNK         0.5000 
     41 O           3.3128  -17.2946  -41.5529 O.2       6 UNK        -0.5000 
     42 CA          4.2132  -16.2903  -43.5309 C.3       6 UNK         0.1400 
     43 CB          4.3434  -16.9412  -44.9211 C.3       6 UNK        -0.1800 
     44 N           3.9767  -14.8576  -43.6736 N.am      6 UNK        -0.5000 
     45 C           4.4152  -13.9280  -42.8122 C.2       5 UNK         0.5000 
     46 O           5.1500  -14.1745  -41.8549 O.2       5 UNK        -0.5000 
     47 CA          3.9663  -12.4724  -43.0536 C.3       5 UNK         0.1400 
     48 CB          5.0568  -11.6921  -43.8037 C.3       5 UNK        -0.1800 
     49 N           2.7140  -12.3719  -43.8027 N.am      5 UNK        -0.5000 
     50 C           1.5056  -12.7060  -43.3282 C.2       4 UNK         0.5000 
     51 O           1.3006  -13.0562  -42.1665 O.2       4 UNK        -0.5000 
     52 CA          0.3308  -12.6539  -44.3268 C.3       4 UNK         0.1400 
     53 CB         -0.4202  -11.3216  -44.1788 C.3       4 UNK        -0.1800 
     54 N           0.7322  -12.8224  -45.7299 N.am      4 UNK        -0.5000 
     55 C           1.3329  -13.9078  -46.2354 C.2       3 UNK         0.5000 
     56 O           1.5862  -14.9189  -45.5760 O.2       3 UNK        -0.5000 
     57 CA          1.6752  -13.8530  -47.7285 C.3       3 UNK         0.1400 
     58 CB          2.8725  -14.7532  -48.0949 C.3       3 UNK        -0.1800 
     59 N           0.4789  -14.2331  -48.4705 N.am      3 UNK        -0.5000 
     60 C           0.2247  -13.9374  -49.7517 C.2       2 UNK         0.5000 
     61 O           1.0102  -13.3354  -50.4842 O.2       2 UNK        -0.5000 
     62 CA         -1.1503  -14.3664  -50.3050 C.3       2 UNK         0.1400 
     63 CB         -1.0532  -15.7204  -51.0272 C.3       2 UNK        -0.1800 
     64 N          -2.1852  -14.4399  -49.2691 N.am      2 UNK        -0.5000 
     65 C          -2.7260  -13.3698  -48.6692 C.2       1 UNK         0.5000 
     66 O          -2.4255  -12.2046  -48.9398 O.2       1 UNK        -0.5000 
     67 C          -1.8212  -21.2193  -46.9263 C.2       11 UNK         0.5000 
     68 O          -2.6579  -21.1351  -47.8215 O.2       11 UNK        -0.5000 
     69 N          -2.1000  -21.0392  -45.6305 N.am      12 UNK        -0.5000 
     70 CA         -3.3459  -20.4817  -45.1161 C.3       12 UNK         0.1400 
     71 CB         -3.1045  -19.9640  -43.6898 C.3       12 UNK        -0.1800 
     72 C          -4.5453  -21.4411  -45.1555 C.2       12 UNK         0.5000 
     73 O          -5.6680  -20.9726  -45.3493 O.2       12 UNK        -0.5000 
     74 N          -4.3074  -22.7436  -44.9523 N.am      13 UNK        -0.5000 
     75 CA         -5.3606  -23.7577  -44.8882 C.3       13 UNK         0.1400 
     76 CB         -5.1978  -24.6015  -43.6120 C.3       13 UNK        -0.1800 
     77 C          -5.3556  -24.6401  -46.1428 C.2       13 UNK         0.5000 
     78 O          -6.4044  -24.8078  -46.7663 O.2       13 UNK        -0.5000 
     79 N          -4.1866  -25.1953  -46.4909 N.am      14 UNK        -0.5000 
     80 CA         -4.0441  -26.1371  -47.6042 C.3       14 UNK         0.1400 
     81 CB         -2.7690  -26.9685  -47.4053 C.3       14 UNK        -0.1800 
     82 C          -4.0196  -25.4557  -48.9841 C.2       14 UNK         0.5000 
     83 O          -4.4146  -26.0824  -49.9674 O.2       14 UNK        -0.5000 
     84 N          -3.5250  -24.2086  -49.0352 N.am      15 UNK        -0.5000 
     85 CA         -3.3030  -23.3869  -50.2348 C.3       15 UNK         0.1400 
     86 CB         -4.6373  -23.0226  -50.9151 C.3       15 UNK        -0.1800 
     87 C          -2.2694  -23.9678  -51.2253 C.2       15 UNK         0.5000 
     88 O          -2.2001  -23.5160  -52.3700 O.2       15 UNK        -0.5000 
     89 N          -1.4561  -24.9250  -50.7612 N.am      16 UNK        -0.5000 
     90 CA         -0.4086  -25.5942  -51.5261 C.3       16 UNK         0.1400 
     91 CB         -0.0018  -26.8877  -50.8032 C.3       16 UNK        -0.1800 
     92 C           0.8005  -24.6720  -51.7327 C.2       16 UNK         0.5000 
     93 O           1.2501  -24.4977  -52.8653 O.2       16 UNK        -0.5000 
     94 N           1.2595  -24.0414  -50.6420 N.am      17 UNK        -0.5000 
     95 CA          2.3272  -23.0366  -50.6608 C.3       17 UNK         0.1400 
     96 CB          2.8587  -22.8281  -49.2353 C.3       17 UNK        -0.1800 
     97 C           1.8641  -21.7014  -51.2762 C.2       17 UNK         0.5000 
     98 O           2.6948  -20.9318  -51.7584 O.2       17 UNK        -0.5000 
     99 N           0.5431  -21.4731  -51.2776 N.am      18 UNK        -0.5000 
    100 CA        -0.1136  -20.3367  -51.9220 C.3       18 UNK         0.1400 
    101 CB        -1.5085  -20.1520  -51.3003 C.3       18 UNK        -0.1800 
    102 C         -0.2510  -20.5188  -53.4451 C.2       18 UNK         0.5000 
    103 O         -0.6110  -19.5593  -54.1241 O.2       18 UNK        -0.5000 
    104 N         -0.0328  -21.7460  -53.9471 N.am      19 UNK        -0.5000 
    105 CA        -0.2346  -22.1857  -55.3328 C.3       19 UNK         0.1400 
    106 CB         0.8192  -21.5471  -56.2608 C.3       19 UNK        -0.1800 
    107 C         -1.6840  -21.9675  -55.8232 C.2       19 UNK         0.5000 
    108 O         -1.8997  -21.6370  -56.9906 O.2       19 UNK        -0.5000 
    109 N         -2.6461  -22.1333  -54.9015 N.am      20 UNK        -0.5000 
    110 CA        -4.0859  -21.9073  -55.0616 C.3       20 UNK         0.1400 
    111 CB        -4.6944  -22.9526  -56.0195 C.3       20 UNK        -0.1800 
    112 C         -4.4673  -20.4546  -55.4354 C.2       20 UNK         0.5000 
    113 O         -5.5138  -20.2439  -56.0509 O.2       20 UNK        -0.5000 
    114 N         -3.6309  -19.4724  -55.0596 N.am      21 UNK        -0.5000 
    115 CA        -3.8679  -18.0473  -55.3183 C.3       21 UNK         0.1400 
    116 CB        -2.5830  -17.2506  -55.0468 C.3       21 UNK        -0.1800 
    117 C         -5.0372  -17.4619  -54.5036 C.2       21 UNK         0.5000 
    118 O         -5.7287  -16.5686  -54.9950 O.2       21 UNK        -0.5000 
    119 N         -5.2336  -17.9694  -53.2805 N.am      22 UNK        -0.5000 
    120 CA        -6.3515  -17.6097  -52.3971 C.3       22 UNK         0.1400 
    121 C         -7.6987  -18.1844  -52.9142 C.2       22 UNK         0.5000 
    122 N         -8.7556  -17.3840  -52.9437 N.am      22 UNK        -0.7600 
    123 O         -7.8033  -19.3634  -53.2444 O.2       22 UNK        -0.5000 
    124 C124       -6.0980  -18.0672  -50.9404 C.3       23 UNK        -0.0398 
    125 S125       -4.6690  -17.2294  -50.1810 S.3       23 UNK        -0.2404 
    126 C126       -4.4533  -18.2737  -48.7112 C.3       23 UNK        -0.0205 
    127 H127       -7.8941  -12.2504  -48.5176 H         1 UNK         0.0600 
    128 H128       -6.8997  -11.1085  -49.4283 H         1 UNK         0.0600 
    129 H129       -6.8394  -11.1207  -47.6635 H         1 UNK         0.0600 
    130 H130       -4.9914  -12.0865  -46.8963 H         1 UNK         0.3000 
    131 H131       -4.0967  -14.6733  -47.6703 H         1 UNK         0.0600 
    132 H132       -2.0334  -13.9453  -46.1765 H         1 UNK         0.0800 
    133 H133       -2.9157  -12.4753  -45.8991 H         1 UNK         0.0800 
    134 H134       -3.5479  -16.4956  -43.8424 H         1 UNK         0.0800 
    135 H135       -2.0900  -15.5440  -43.9826 H         1 UNK         0.0800 
    136 H136       -4.7021  -16.9497  -46.3303 H         1 UNK         0.1150 
    137 H137       -1.7820  -18.3958  -49.0996 H         1 UNK         0.1150 
    138 H138       -0.5290  -16.4208  -45.5159 H         1 UNK         0.1150 
    139 H139        1.1284  -17.4758  -46.8706 H         1 UNK         0.0800 
    140 H140        0.7297  -16.9220  -48.4806 H         1 UNK         0.0800 
    141 H141        0.3050  -19.8072  -46.1029 H         1 UNK         0.0800 
    142 H142        1.5996  -20.7716  -46.7275 H         1 UNK         0.0800 
    143 H143       -0.3221  -21.7934  -48.3370 H         1 UNK         0.0600 
    144 H144        0.2225  -22.5992  -45.5388 H         1 UNK         0.3000 
    145 H145       -0.0767  -25.9961  -46.2023 H         1 UNK         0.0600 
    146 H146        2.1937  -25.7357  -47.2035 H         1 UNK         0.0600 
    147 H147        2.2969  -26.2476  -45.5270 H         1 UNK         0.0600 
    148 H148        2.6240  -24.5684  -45.9590 H         1 UNK         0.0600 
    149 H149        1.0807  -24.6222  -44.0026 H         1 UNK         0.3000 
    150 H150       -1.8616  -23.3513  -42.4976 H         1 UNK         0.0600 
    151 H151       -0.1565  -25.7489  -41.6413 H         1 UNK         0.0600 
    152 H152       -1.9054  -25.7633  -41.8386 H         1 UNK         0.0600 
    153 H153       -1.1774  -24.7658  -40.5907 H         1 UNK         0.0600 
    154 H154        0.7129  -23.3762  -41.4354 H         1 UNK         0.3000 
    155 H155        1.7415  -21.2688  -41.2512 H         1 UNK         0.0600 
    156 H156        3.8780  -21.1386  -42.5596 H         1 UNK         0.0600 
    157 H157        3.0246  -21.6173  -44.0268 H         1 UNK         0.0600 
    158 H158        3.1744  -22.7425  -42.6823 H         1 UNK         0.0600 
    159 H159        2.1491  -19.4077  -43.4342 H         1 UNK         0.3000 
    160 H160       -0.0850  -17.5419  -43.5417 H         1 UNK         0.0600 
    161 H161        0.7039  -16.3356  -40.8450 H         1 UNK         0.0600 
    162 H162       -0.9308  -16.7408  -41.3589 H         1 UNK         0.0600 
    163 H163       -0.0499  -15.4672  -42.1805 H         1 UNK         0.0600 
    164 H164        1.7981  -16.5668  -44.2193 H         1 UNK         0.3000 
    165 H165        5.1527  -16.4621  -43.0009 H         1 UNK         0.0600 
    166 H166        5.2017  -16.5385  -45.4589 H         1 UNK         0.0600 
    167 H167        4.4929  -18.0180  -44.8337 H         1 UNK         0.0600 
    168 H168        3.4636  -16.7821  -45.5439 H         1 UNK         0.0600 
    169 H169        3.3197  -14.5844  -44.3935 H         1 UNK         0.3000 
    170 H170        3.8204  -12.0053  -42.0773 H         1 UNK         0.0600 
    171 H171        4.7823  -10.6437  -43.9214 H         1 UNK         0.0600 
    172 H172        5.2383  -12.1067  -44.7962 H         1 UNK         0.0600 
    173 H173        6.0015  -11.7198  -43.2589 H         1 UNK         0.0600 
    174 H174        2.7838  -12.0704  -44.7630 H         1 UNK         0.3000 
    175 H175       -0.3521  -13.4680  -44.0750 H         1 UNK         0.0600 
    176 H176       -0.7947  -11.1964  -43.1619 H         1 UNK         0.0600 
    177 H177        0.2262  -10.4705  -44.3968 H         1 UNK         0.0600 
    178 H178       -1.2775  -11.2660  -44.8471 H         1 UNK         0.0600 
    179 H179        0.5469  -12.0409  -46.3427 H         1 UNK         0.3000 
    180 H180        1.9354  -12.8218  -47.9768 H         1 UNK         0.0600 
    181 H181        2.6851  -15.8025  -47.8723 H         1 UNK         0.0600 
    182 H182        3.7612  -14.4593  -47.5353 H         1 UNK         0.0600 
    183 H183        3.1186  -14.6768  -49.1538 H         1 UNK         0.0600 
    184 H184       -0.2302  -14.7163  -47.9386 H         1 UNK         0.3000 
    185 H185       -1.4571  -13.6172  -51.0381 H         1 UNK         0.0600 
    186 H186       -2.0112  -16.0069  -51.4618 H         1 UNK         0.0600 
    187 H187       -0.3297  -15.6759  -51.8421 H         1 UNK         0.0600 
    188 H188       -0.7379  -16.5189  -50.3569 H         1 UNK         0.0600 
    189 H189       -2.5039  -15.3653  -49.0150 H         1 UNK         0.3000 
    190 H190       -1.3556  -21.1772  -44.9479 H         1 UNK         0.3000 
    191 H191       -3.6088  -19.6283  -45.7389 H         1 UNK         0.0600 
    192 H192       -2.3273  -19.1995  -43.6764 H         1 UNK         0.0600 
    193 H193       -4.0084  -19.5145  -43.2771 H         1 UNK         0.0600 
    194 H194       -2.7961  -20.7657  -43.0176 H         1 UNK         0.0600 
    195 H195       -3.3545  -23.0703  -44.8433 H         1 UNK         0.3000 
    196 H196       -6.3440  -23.2864  -44.8303 H         1 UNK         0.0600 
    197 H197       -6.0061  -25.3285  -43.5240 H         1 UNK         0.0600 
    198 H198       -5.2280  -23.9742  -42.7211 H         1 UNK         0.0600 
    199 H199       -4.2608  -25.1569  -43.5962 H         1 UNK         0.0600 
    200 H200       -3.3689  -25.0292  -45.9099 H         1 UNK         0.3000 
    201 H201       -4.8939  -26.8232  -47.5874 H         1 UNK         0.0600 
    202 H202       -2.7075  -27.7680  -48.1447 H         1 UNK         0.0600 
    203 H203       -2.7432  -27.4325  -46.4191 H         1 UNK         0.0600 
    204 H204       -1.8759  -26.3574  -47.5165 H         1 UNK         0.0600 
    205 H205       -3.2394  -23.7839  -48.1641 H         1 UNK         0.3000 
    206 H206       -2.8600  -22.4576  -49.8872 H         1 UNK         0.0600 
    207 H207       -5.3481  -22.6182  -50.1943 H         1 UNK         0.0600 
    208 H208       -4.4897  -22.2609  -51.6805 H         1 UNK         0.0600 
    209 H209       -5.0979  -23.8862  -51.3954 H         1 UNK         0.0600 
    210 H210       -1.5162  -25.1600  -49.7798 H         1 UNK         0.3000 
    211 H211       -0.8081  -25.8587  -52.5076 H         1 UNK         0.0600 
    212 H212        0.3779  -26.6906  -49.7997 H         1 UNK         0.0600 
    213 H213        0.7791  -27.4136  -51.3538 H         1 UNK         0.0600 
    214 H214       -0.8489  -27.5678  -50.7108 H         1 UNK         0.0600 
    215 H215        0.8041  -24.2158  -49.7493 H         1 UNK         0.3000 
    216 H216        3.1460  -23.4168  -51.2752 H         1 UNK         0.0600 
    217 H217        3.7024  -22.1369  -49.2318 H         1 UNK         0.0600 
    218 H218        3.2033  -23.7658  -48.7992 H         1 UNK         0.0600 
    219 H219        2.0967  -22.4119  -48.5797 H         1 UNK         0.0600 
    220 H220       -0.0561  -22.1725  -50.8685 H         1 UNK         0.3000 
    221 H221        0.4753  -19.4369  -51.7316 H         1 UNK         0.0600 
    222 H222       -2.2275  -20.8723  -51.6895 H         1 UNK         0.0600 
    223 H223       -1.4826  -20.2678  -50.2182 H         1 UNK         0.0600 
    224 H224       -1.9001  -19.1574  -51.5179 H         1 UNK         0.0600 
    225 H225        0.2452  -22.4765  -53.3053 H         1 UNK         0.3000 
    226 H226       -0.0711  -23.2643  -55.3372 H         1 UNK         0.0600 
    227 H227        0.7639  -21.9691  -57.2649 H         1 UNK         0.0600 
    228 H228        0.6796  -20.4693  -56.3506 H         1 UNK         0.0600 
    229 H229        1.8287  -21.7249  -55.8904 H         1 UNK         0.0600 
    230 H230       -2.3633  -22.4640  -53.9819 H         1 UNK         0.3000 
    231 H231       -4.5231  -22.0802  -54.0781 H         1 UNK         0.0600 
    232 H232       -4.3571  -22.8062  -57.0459 H         1 UNK         0.0600 
    233 H233       -5.7835  -22.8962  -56.0221 H         1 UNK         0.0600 
    234 H234       -4.4259  -23.9653  -55.7186 H         1 UNK         0.0600 
    235 H235       -2.7518  -19.7112  -54.6170 H         1 UNK         0.3000 
    236 H236       -4.1152  -17.9345  -56.3760 H         1 UNK         0.0600 
    237 H237       -2.2660  -17.3394  -54.0068 H         1 UNK         0.0600 
    238 H238       -1.7646  -17.5952  -55.6793 H         1 UNK         0.0600 
    239 H239       -2.7284  -16.1900  -55.2554 H         1 UNK         0.0600 
    240 H240       -4.6274  -18.7082  -52.9606 H         1 UNK         0.3000 
    241 H241       -6.4285  -16.5202  -52.3924 H         1 UNK         0.0600 
    242 H242       -8.6932  -16.4146  -52.6722 H         1 UNK         0.3800 
    243 H243       -9.6390  -17.7512  -53.2624 H         1 UNK         0.3800 
    244 H244       -5.9454  -19.1475  -50.9014 H         1 UNK         0.0800 
    245 H245       -6.9688  -17.8558  -50.3169 H         1 UNK         0.0800 
    246 H246       -5.3963  -18.3371  -48.1662 H         1 UNK         0.0800 
    247 H247       -4.2051  -19.2898  -49.0216 H         1 UNK         0.0800 
@<TRIPOS>BOND
     1    1    2 1    
     2    1  127 1    
     3    1  128 1    
     4    1  129 1    
     5    2    3 2    
     6    2    4 am   BACKBONE|DICT|INTERRES
     7    4    5 1    
     8    4  130 1    
     9    5    6 1    
    10    5   65 1    
    11    5  131 1    
    12    6    7 1    
    13    6  132 1    
    14    6  133 1    
    15    7    8 1    
    16    8    9 1    
    17    8  134 1    
    18    8  135 1    
    19    9   10 ar   
    20    9   14 ar   
    21   10   11 ar   
    22   10  136 1    
    23   11   12 ar   
    24   11  126 1    
    25   12   13 ar   
    26   12  137 1    
    27   13   14 ar   
    28   13   15 1    
    29   14  138 1    
    30   15   16 1    
    31   15  139 1    
    32   15  140 1    
    33   16   17 1    
    34   17   18 1    
    35   17  141 1    
    36   17  142 1    
    37   18   19 1    
    38   18   67 1    
    39   18  143 1    
    40   19   20 am   BACKBONE|DICT|INTERRES
    41   19  144 1    
    42   20   21 2    
    43   20   22 1    
    44   22   23 1    
    45   22   24 1    
    46   22  145 1    
    47   23  146 1    
    48   23  147 1    
    49   23  148 1    
    50   24   25 am   BACKBONE|DICT|INTERRES
    51   24  149 1    
    52   25   26 2    
    53   25   27 1    
    54   27   28 1    
    55   27   29 1    
    56   27  150 1    
    57   28  151 1    
    58   28  152 1    
    59   28  153 1    
    60   29   30 am   BACKBONE|DICT|INTERRES
    61   29  154 1    
    62   30   31 2    
    63   30   32 1    
    64   32   33 1    
    65   32   34 1    
    66   32  155 1    
    67   33  156 1    
    68   33  157 1    
    69   33  158 1    
    70   34   35 am   BACKBONE|DICT|INTERRES
    71   34  159 1    
    72   35   36 2    
    73   35   37 1    
    74   37   38 1    
    75   37   39 1    
    76   37  160 1    
    77   38  161 1    
    78   38  162 1    
    79   38  163 1    
    80   39   40 am   BACKBONE|DICT|INTERRES
    81   39  164 1    
    82   40   41 2    
    83   40   42 1    
    84   42   43 1    
    85   42   44 1    
    86   42  165 1    
    87   43  166 1    
    88   43  167 1    
    89   43  168 1    
    90   44   45 am   BACKBONE|DICT|INTERRES
    91   44  169 1    
    92   45   46 2    
    93   45   47 1    
    94   47   48 1    
    95   47   49 1    
    96   47  170 1    
    97   48  171 1    
    98   48  172 1    
    99   48  173 1    
   100   49   50 am   BACKBONE|DICT|INTERRES
   101   49  174 1    
   102   50   51 2    
   103   50   52 1    
   104   52   53 1    
   105   52   54 1    
   106   52  175 1    
   107   53  176 1    
   108   53  177 1    
   109   53  178 1    
   110   54   55 am   BACKBONE|DICT|INTERRES
   111   54  179 1    
   112   55   56 2    
   113   55   57 1    
   114   57   58 1    
   115   57   59 1    
   116   57  180 1    
   117   58  181 1    
   118   58  182 1    
   119   58  183 1    
   120   59   60 am   BACKBONE|DICT|INTERRES
   121   59  184 1    
   122   60   61 2    
   123   60   62 1    
   124   62   63 1    
   125   62   64 1    
   126   62  185 1    
   127   63  186 1    
   128   63  187 1    
   129   63  188 1    
   130   64   65 am   BACKBONE|DICT|INTERRES
   131   64  189 1    
   132   65   66 2    
   133   67   68 2    
   134   67   69 am   BACKBONE|DICT|INTERRES
   135   69   70 1    
   136   69  190 1    
   137   70   71 1    
   138   70   72 1    
   139   70  191 1    
   140   71  192 1    
   141   71  193 1    
   142   71  194 1    
   143   72   73 2    
   144   72   74 am   BACKBONE|DICT|INTERRES
   145   74   75 1    
   146   74  195 1    
   147   75   76 1    
   148   75   77 1    
   149   75  196 1    
   150   76  197 1    
   151   76  198 1    
   152   76  199 1    
   153   77   78 2    
   154   77   79 am   BACKBONE|DICT|INTERRES
   155   79   80 1    
   156   79  200 1    
   157   80   81 1    
   158   80   82 1    
   159   80  201 1    
   160   81  202 1    
   161   81  203 1    
   162   81  204 1    
   163   82   83 2    
   164   82   84 am   BACKBONE|DICT|INTERRES
   165   84   85 1    
   166   84  205 1    
   167   85   86 1    
   168   85   87 1    
   169   85  206 1    
   170   86  207 1    
   171   86  208 1    
   172   86  209 1    
   173   87   88 2    
   174   87   89 am   BACKBONE|DICT|INTERRES
   175   89   90 1    
   176   89  210 1    
   177   90   91 1    
   178   90   92 1    
   179   90  211 1    
   180   91  212 1    
   181   91  213 1    
   182   91  214 1    
   183   92   93 2    
   184   92   94 am   BACKBONE|DICT|INTERRES
   185   94   95 1    
   186   94  215 1    
   187   95   96 1    
   188   95   97 1    
   189   95  216 1    
   190   96  217 1    
   191   96  218 1    
   192   96  219 1    
   193   97   98 2    
   194   97   99 am   BACKBONE|DICT|INTERRES
   195   99  100 1    
   196   99  220 1    
   197  100  101 1    
   198  100  102 1    
   199  100  221 1    
   200  101  222 1    
   201  101  223 1    
   202  101  224 1    
   203  102  103 2    
   204  102  104 am   BACKBONE|DICT|INTERRES
   205  104  105 1    
   206  104  225 1    
   207  105  106 1    
   208  105  107 1    
   209  105  226 1    
   210  106  227 1    
   211  106  228 1    
   212  106  229 1    
   213  107  108 2    
   214  107  109 am   BACKBONE|DICT|INTERRES
   215  109  110 1    
   216  109  230 1    
   217  110  111 1    
   218  110  112 1    
   219  110  231 1    
   220  111  232 1    
   221  111  233 1    
   222  111  234 1    
   223  112  113 2    
   224  112  114 am   BACKBONE|DICT|INTERRES
   225  114  115 1    
   226  114  235 1    
   227  115  116 1    
   228  115  117 1    
   229  115  236 1    
   230  116  237 1    
   231  116  238 1    
   232  116  239 1    
   233  117  118 2    
   234  117  119 am   BACKBONE|DICT|INTERRES
   235  119  120 1    
   236  119  240 1    
   237  120  121 1    
   238  120  124 1    
   239  120  241 1    
   240  121  122 am   BACKBONE|DICT|INTERRES
   241  121  123 2    
   242  122  242 1    
   243  122  243 1    
   244  124  125 1    
   245  124  244 1    
   246  124  245 1    
   247  125  126 1    
   248  126  246 1    
   249  126  247 1    
@<TRIPOS>SUBSTRUCTURE
     1 UNK         1 GROUP             0       ****    0 ROOT    
