@<TRIPOS>MOLECULE
3R540
247   249    1
SMALL
USER_CHARGES


@<TRIPOS>ATOM
      1 CA          1.2160  -11.9830  -43.7436 C.3       0 UNK        -0.1800 
      2 C           2.0047  -12.1539  -45.0311 C.2       0 UNK         0.5000 
      3 O           2.5790  -13.2160  -45.2680 O.2       0 UNK        -0.5000 
      4 N           2.0176  -11.1063  -45.8634 N.am      1 UNK        -0.5000 
      5 CA          2.6100  -11.0265  -47.2058 C.3       1 UNK         0.1400 
      6 C6          1.9759  -11.9974  -48.2400 C.3       23 UNK        -0.0398 
      7 S7          0.1672  -11.7819  -48.3815 S.3       23 UNK        -0.2404 
      8 C8         -0.4422  -13.3449  -47.6739 C.3       23 UNK        -0.0205 
      9 C9         -0.4661  -14.4562  -48.7105 C.ar      23 UNK        -0.0193 
     10 C10        -1.5664  -14.5879  -49.5620 C.ar      23 UNK        -0.1150 
     11 C11        -1.5892  -15.5836  -50.5412 C.ar      23 UNK        -0.0193 
     12 C12        -0.4993  -16.4502  -50.6661 C.ar      23 UNK        -0.1150 
     13 C13         0.6000  -16.3423  -49.8082 C.ar      23 UNK        -0.0193 
     14 C14         0.6066  -15.3460  -48.8271 C.ar      23 UNK        -0.1150 
     15 C15         1.7991  -17.2707  -49.9647 C.3       23 UNK        -0.0205 
     16 S16         1.3613  -19.0362  -49.8586 S.3       23 UNK        -0.2404 
     17 C17         0.8793  -19.1712  -48.1067 C.3       23 UNK        -0.0398 
     18 CA          0.2333  -20.5353  -47.7657 C.3       11 UNK         0.1400 
     19 N           0.1988  -20.7636  -46.3201 N.am      11 UNK        -0.5000 
     20 C          -0.1397  -21.9182  -45.7292 C.2       10 UNK         0.5000 
     21 O          -0.4161  -22.9499  -46.3393 O.2       10 UNK        -0.5000 
     22 CA         -0.2256  -21.9038  -44.1949 C.3       10 UNK         0.1400 
     23 CB          1.1382  -22.2350  -43.5711 C.3       10 UNK        -0.1800 
     24 N          -0.7184  -20.6214  -43.6861 N.am      10 UNK        -0.5000 
     25 C          -1.9947  -20.2276  -43.8058 C.2       9 UNK         0.5000 
     26 O          -2.8623  -20.8983  -44.3646 O.2       9 UNK        -0.5000 
     27 CA         -2.3699  -18.8480  -43.2405 C.3       9 UNK         0.1400 
     28 CB         -2.5414  -18.9051  -41.7157 C.3       9 UNK        -0.1800 
     29 N          -1.4371  -17.7779  -43.5922 N.am      9 UNK        -0.5000 
     30 C          -1.1904  -17.3664  -44.8444 C.2       8 UNK         0.5000 
     31 O          -1.5830  -17.9523  -45.8528 O.2       8 UNK        -0.5000 
     32 CA         -0.3741  -16.0763  -44.9879 C.3       8 UNK         0.1400 
     33 CB         -1.1890  -14.8664  -44.5034 C.3       8 UNK        -0.1800 
     34 N           0.8636  -16.1748  -44.2242 N.am      8 UNK        -0.5000 
     35 C           2.0188  -16.6299  -44.7274 C.2       7 UNK         0.5000 
     36 O           2.1943  -16.8899  -45.9178 O.2       7 UNK        -0.5000 
     37 CA          3.1649  -16.8838  -43.7278 C.3       7 UNK         0.1400 
     38 CB          4.0963  -15.6693  -43.6458 C.3       7 UNK        -0.1800 
     39 N           2.7085  -17.2273  -42.3789 N.am      7 UNK        -0.5000 
     40 C           1.9833  -18.3138  -42.0755 C.2       6 UNK         0.5000 
     41 O           1.6353  -19.1562  -42.9009 O.2       6 UNK        -0.5000 
     42 CA          1.5121  -18.4625  -40.6186 C.3       6 UNK         0.1400 
     43 CB          2.5264  -19.2841  -39.8104 C.3       6 UNK        -0.1800 
     44 N           1.2695  -17.1917  -39.9351 N.am      6 UNK        -0.5000 
     45 C           0.4594  -16.2052  -40.3457 C.2       5 UNK         0.5000 
     46 O          -0.1993  -16.2450  -41.3876 O.2       5 UNK        -0.5000 
     47 CA          0.3980  -14.9486  -39.4538 C.3       5 UNK         0.1400 
     48 CB          0.7543  -15.2276  -37.9768 C.3       5 UNK        -0.1800 
     49 N           1.2138  -13.8358  -39.9542 N.am      5 UNK        -0.5000 
     50 C           2.5075  -13.8516  -40.3087 C.2       4 UNK         0.5000 
     51 O           3.2061  -14.8673  -40.3817 O.2       4 UNK        -0.5000 
     52 CA          3.1340  -12.4791  -40.5930 C.3       4 UNK         0.1400 
     53 CB          3.4896  -11.7574  -39.2815 C.3       4 UNK        -0.1800 
     54 N           4.3428  -12.6474  -41.3925 N.am      4 UNK        -0.5000 
     55 C           4.7997  -11.7795  -42.3013 C.2       3 UNK         0.5000 
     56 O           4.2286  -10.7262  -42.5859 O.2       3 UNK        -0.5000 
     57 CA          6.1047  -12.1328  -43.0300 C.3       3 UNK         0.1400 
     58 CB          6.9130  -13.2809  -42.3860 C.3       3 UNK        -0.1800 
     59 N           5.7853  -12.4329  -44.4218 N.am      3 UNK        -0.5000 
     60 C           6.6440  -12.3487  -45.4455 C.2       2 UNK         0.5000 
     61 O           7.8294  -12.0379  -45.3212 O.2       2 UNK        -0.5000 
     62 CA          6.0903  -12.6533  -46.8497 C.3       2 UNK         0.1400 
     63 CB          6.3206  -14.1280  -47.2143 C.3       2 UNK        -0.1800 
     64 N           4.6638  -12.3534  -46.9623 N.am      2 UNK        -0.5000 
     65 C           4.1493  -11.1360  -47.1746 C.2       1 UNK         0.5000 
     66 O           4.8336  -10.1245  -47.3369 O.2       1 UNK        -0.5000 
     67 C          -1.1731  -20.6893  -48.3797 C.2       11 UNK         0.5000 
     68 O          -1.3464  -21.4588  -49.3268 O.2       11 UNK        -0.5000 
     69 N          -2.1584  -20.0070  -47.7786 N.am      12 UNK        -0.5000 
     70 CA         -3.5688  -20.0922  -48.1440 C.3       12 UNK         0.1400 
     71 CB         -4.3746  -19.0660  -47.3344 C.3       12 UNK        -0.1800 
     72 C          -4.1380  -21.5096  -47.9654 C.2       12 UNK         0.5000 
     73 O          -4.7961  -22.0045  -48.8763 O.2       12 UNK        -0.5000 
     74 N          -3.8443  -22.1568  -46.8272 N.am      13 UNK        -0.5000 
     75 CA         -4.2734  -23.5245  -46.5236 C.3       13 UNK         0.1400 
     76 CB         -3.8888  -23.8878  -45.0821 C.3       13 UNK        -0.1800 
     77 C          -3.7230  -24.5692  -47.5110 C.2       13 UNK         0.5000 
     78 O          -4.4824  -25.4223  -47.9706 O.2       13 UNK        -0.5000 
     79 N          -2.4282  -24.4688  -47.8447 N.am      14 UNK        -0.5000 
     80 CA         -1.7611  -25.3349  -48.8179 C.3       14 UNK         0.1400 
     81 CB         -0.2476  -25.0750  -48.7906 C.3       14 UNK        -0.1800 
     82 C          -2.3151  -25.1628  -50.2427 C.2       14 UNK         0.5000 
     83 O          -2.5066  -26.1557  -50.9447 O.2       14 UNK        -0.5000 
     84 N          -2.5865  -23.9121  -50.6356 N.am      15 UNK        -0.5000 
     85 CA         -3.1713  -23.5748  -51.9300 C.3       15 UNK         0.1400 
     86 CB         -2.9876  -22.0780  -52.1897 C.3       15 UNK        -0.1800 
     87 C          -4.6527  -23.9793  -52.0416 C.2       15 UNK         0.5000 
     88 O          -5.0645  -24.4471  -53.1020 O.2       15 UNK        -0.5000 
     89 N          -5.4211  -23.8199  -50.9551 N.am      16 UNK        -0.5000 
     90 CA         -6.8343  -24.1986  -50.8598 C.3       16 UNK         0.1400 
     91 CB         -7.4598  -23.5411  -49.6210 C.3       16 UNK        -0.1800 
     92 C          -7.0648  -25.7203  -50.8352 C.2       16 UNK         0.5000 
     93 O          -8.1467  -26.1721  -51.2113 O.2       16 UNK        -0.5000 
     94 N          -6.0490  -26.4869  -50.4153 N.am      17 UNK        -0.5000 
     95 CA         -6.0200  -27.9487  -50.5037 C.3       17 UNK         0.1400 
     96 CB         -4.9277  -28.4862  -49.5662 C.3       17 UNK        -0.1800 
     97 C          -5.8042  -28.4577  -51.9458 C.2       17 UNK         0.5000 
     98 O          -6.0541  -29.6338  -52.2143 O.2       17 UNK        -0.5000 
     99 N          -5.3528  -27.5707  -52.8399 N.am      18 UNK        -0.5000 
    100 CA        -5.1893  -27.7899  -54.2716 C.3       18 UNK         0.1400 
    101 CB        -3.7455  -27.4026  -54.6463 C.3       18 UNK        -0.1800 
    102 C         -6.2250  -26.9473  -55.0436 C.2       18 UNK         0.5000 
    103 O         -7.1250  -26.3527  -54.4460 O.2       18 UNK        -0.5000 
    104 N         -6.0753  -26.8935  -56.3722 N.am      19 UNK        -0.5000 
    105 CA        -6.8802  -26.0504  -57.2624 C.3       19 UNK         0.1400 
    106 CB        -6.8325  -26.6522  -58.6764 C.3       19 UNK        -0.1800 
    107 C         -6.4211  -24.5747  -57.2851 C.2       19 UNK         0.5000 
    108 O         -7.0898  -23.7463  -57.9043 O.2       19 UNK        -0.5000 
    109 N         -5.2793  -24.2750  -56.6484 N.am      20 UNK        -0.5000 
    110 CA        -4.6192  -22.9692  -56.6558 C.3       20 UNK         0.1400 
    111 CB        -3.2060  -23.1237  -56.0731 C.3       20 UNK        -0.1800 
    112 C         -5.3861  -21.8606  -55.9120 C.2       20 UNK         0.5000 
    113 O         -5.2448  -20.6930  -56.2829 O.2       20 UNK        -0.5000 
    114 N         -6.1468  -22.2304  -54.8698 N.am      21 UNK        -0.5000 
    115 CA        -6.9547  -21.3899  -53.9697 C.3       21 UNK         0.1400 
    116 CB        -8.0570  -20.6341  -54.7360 C.3       21 UNK        -0.1800 
    117 C         -6.1219  -20.4380  -53.0858 C.2       21 UNK         0.5000 
    118 O         -6.2382  -20.4837  -51.8625 O.2       21 UNK        -0.5000 
    119 N         -5.2724  -19.6299  -53.7221 N.am      22 UNK        -0.5000 
    120 CA        -4.2013  -18.8302  -53.1158 C.3       22 UNK         0.1400 
    121 C         -2.9644  -18.6733  -54.0529 C.2       22 UNK         0.5000 
    122 N         -2.9823  -19.1528  -55.2934 N.am      22 UNK        -0.7600 
    123 O         -1.9423  -18.1338  -53.6446 O.2       22 UNK        -0.5000 
    124 C124       -4.7122  -17.4854  -52.5253 C.3       23 UNK        -0.0398 
    125 S125       -3.8837  -17.0606  -50.9532 S.3       23 UNK        -0.2404 
    126 C126       -2.7774  -15.7150  -51.4797 C.3       23 UNK        -0.0205 
    127 H127        0.1617  -11.8171  -43.9631 H         1 UNK         0.0600 
    128 H128        1.5843  -11.1249  -43.1829 H         1 UNK         0.0600 
    129 H129        1.2995  -12.8734  -43.1203 H         1 UNK         0.0600 
    130 H130        1.5434  -10.2634  -45.5713 H         1 UNK         0.3000 
    131 H131        2.3900  -10.0149  -47.5517 H         1 UNK         0.0600 
    132 H132        2.4045  -11.8252  -49.2287 H         1 UNK         0.0800 
    133 H133        2.2032  -13.0341  -47.9934 H         1 UNK         0.0800 
    134 H134        0.1783  -13.6304  -46.8252 H         1 UNK         0.0800 
    135 H135       -1.4473  -13.1879  -47.2799 H         1 UNK         0.0800 
    136 H136       -2.3997  -13.9054  -49.4698 H         1 UNK         0.1150 
    137 H137       -0.5109  -17.2152  -51.4305 H         1 UNK         0.1150 
    138 H138        1.4535  -15.2558  -48.1612 H         1 UNK         0.1150 
    139 H139        2.2594  -17.0824  -50.9353 H         1 UNK         0.0800 
    140 H140        2.5615  -17.0515  -49.2151 H         1 UNK         0.0800 
    141 H141        0.2188  -18.3442  -47.8409 H         1 UNK         0.0800 
    142 H142        1.7858  -19.0353  -47.5156 H         1 UNK         0.0800 
    143 H143        0.8622  -21.3213  -48.1899 H         1 UNK         0.0600 
    144 H144        0.3703  -19.9624  -45.7303 H         1 UNK         0.3000 
    145 H145       -0.9272  -22.6826  -43.8897 H         1 UNK         0.0600 
    146 H146        1.9170  -21.5522  -43.9119 H         1 UNK         0.0600 
    147 H147        1.4515  -23.2439  -43.8422 H         1 UNK         0.0600 
    148 H148        1.0997  -22.1864  -42.4828 H         1 UNK         0.0600 
    149 H149       -0.0272  -19.9987  -43.2764 H         1 UNK         0.3000 
    150 H150       -3.3371  -18.5787  -43.6701 H         1 UNK         0.0600 
    151 H151       -3.2882  -19.6491  -41.4358 H         1 UNK         0.0600 
    152 H152       -2.8736  -17.9455  -41.3189 H         1 UNK         0.0600 
    153 H153       -1.6125  -19.1709  -41.2142 H         1 UNK         0.0600 
    154 H154       -1.0540  -17.2405  -42.8201 H         1 UNK         0.3000 
    155 H155       -0.1531  -15.9342  -46.0470 H         1 UNK         0.0600 
    156 H156       -2.1200  -14.7750  -45.0642 H         1 UNK         0.0600 
    157 H157       -0.6358  -13.9408  -44.6428 H         1 UNK         0.0600 
    158 H158       -1.4474  -14.9396  -43.4466 H         1 UNK         0.0600 
    159 H159        0.7893  -16.0370  -43.2236 H         1 UNK         0.3000 
    160 H160        3.7422  -17.7296  -44.1065 H         1 UNK         0.0600 
    161 H161        3.5863  -14.8009  -43.2288 H         1 UNK         0.0600 
    162 H162        4.4660  -15.3903  -44.6324 H         1 UNK         0.0600 
    163 H163        4.9604  -15.8915  -43.0216 H         1 UNK         0.0600 
    164 H164        2.9246  -16.5664  -41.6402 H         1 UNK         0.3000 
    165 H165        0.5710  -19.0118  -40.6337 H         1 UNK         0.0600 
    166 H166        2.1607  -19.4830  -38.8028 H         1 UNK         0.0600 
    167 H167        2.7129  -20.2495  -40.2832 H         1 UNK         0.0600 
    168 H168        3.4841  -18.7689  -39.7256 H         1 UNK         0.0600 
    169 H169        1.7992  -17.0362  -39.0899 H         1 UNK         0.3000 
    170 H170       -0.6394  -14.6119  -39.4820 H         1 UNK         0.0600 
    171 H171        1.8086  -15.4734  -37.8445 H         1 UNK         0.0600 
    172 H172        0.5435  -14.3558  -37.3573 H         1 UNK         0.0600 
    173 H173        0.1643  -16.0534  -37.5766 H         1 UNK         0.0600 
    174 H174        0.7378  -12.9447  -39.9670 H         1 UNK         0.3000 
    175 H175        2.4050  -11.8798  -41.1385 H         1 UNK         0.0600 
    176 H176        4.2181  -12.3223  -38.6984 H         1 UNK         0.0600 
    177 H177        3.9100  -10.7706  -39.4760 H         1 UNK         0.0600 
    178 H178        2.6071  -11.6151  -38.6567 H         1 UNK         0.0600 
    179 H179        4.8214  -13.5270  -41.2467 H         1 UNK         0.3000 
    180 H180        6.7202  -11.2311  -43.0008 H         1 UNK         0.0600 
    181 H181        7.8774  -13.4062  -42.8781 H         1 UNK         0.0600 
    182 H182        6.3918  -14.2343  -42.4437 H         1 UNK         0.0600 
    183 H183        7.1195  -13.0748  -41.3350 H         1 UNK         0.0600 
    184 H184        4.8163  -12.6515  -44.6163 H         1 UNK         0.3000 
    185 H185        6.6404  -12.0381  -47.5651 H         1 UNK         0.0600 
    186 H186        5.9924  -14.3372  -48.2326 H         1 UNK         0.0600 
    187 H187        7.3792  -14.3842  -47.1553 H         1 UNK         0.0600 
    188 H188        5.7825  -14.7994  -46.5450 H         1 UNK         0.0600 
    189 H189        4.0184  -13.0988  -46.7255 H         1 UNK         0.3000 
    190 H190       -1.9295  -19.3782  -47.0119 H         1 UNK         0.3000 
    191 H191       -3.6529  -19.8314  -49.2014 H         1 UNK         0.0600 
    192 H192       -4.0267  -18.0517  -47.5319 H         1 UNK         0.0600 
    193 H193       -4.2931  -19.2446  -46.2615 H         1 UNK         0.0600 
    194 H194       -5.4322  -19.1046  -47.5980 H         1 UNK         0.0600 
    195 H195       -3.3259  -21.6718  -46.1005 H         1 UNK         0.3000 
    196 H196       -5.3626  -23.5483  -46.5961 H         1 UNK         0.0600 
    197 H197       -4.3607  -23.2146  -44.3664 H         1 UNK         0.0600 
    198 H198       -2.8106  -23.8387  -44.9298 H         1 UNK         0.0600 
    199 H199       -4.2100  -24.9004  -44.8350 H         1 UNK         0.0600 
    200 H200       -1.8530  -23.7588  -47.4001 H         1 UNK         0.3000 
    201 H201       -1.9336  -26.3709  -48.5186 H         1 UNK         0.0600 
    202 H202        0.1705  -25.2900  -47.8072 H         1 UNK         0.0600 
    203 H203       -0.0136  -24.0375  -49.0336 H         1 UNK         0.0600 
    204 H204        0.2722  -25.7082  -49.5106 H         1 UNK         0.0600 
    205 H205       -2.3699  -23.1393  -50.0139 H         1 UNK         0.3000 
    206 H206       -2.6223  -24.1183  -52.7018 H         1 UNK         0.0600 
    207 H207       -3.4922  -21.4870  -51.4249 H         1 UNK         0.0600 
    208 H208       -1.9335  -21.8001  -52.1854 H         1 UNK         0.0600 
    209 H209       -3.3943  -21.7978  -53.1612 H         1 UNK         0.0600 
    210 H210       -5.0329  -23.3412  -50.1449 H         1 UNK         0.3000 
    211 H211       -7.3472  -23.8133  -51.7419 H         1 UNK         0.0600 
    212 H212       -6.9616  -23.8599  -48.7046 H         1 UNK         0.0600 
    213 H213       -8.5158  -23.7981  -49.5297 H         1 UNK         0.0600 
    214 H214       -7.3945  -22.4544  -49.6795 H         1 UNK         0.0600 
    215 H215       -5.2207  -26.0352  -50.0479 H         1 UNK         0.3000 
    216 H216       -6.9815  -28.3354  -50.1600 H         1 UNK         0.0600 
    217 H217       -4.9104  -29.5767  -49.5706 H         1 UNK         0.0600 
    218 H218       -5.0992  -28.1684  -48.5376 H         1 UNK         0.0600 
    219 H219       -3.9369  -28.1417  -49.8621 H         1 UNK         0.0600 
    220 H220       -5.2552  -26.6067  -52.5469 H         1 UNK         0.3000 
    221 H221       -5.3539  -28.8388  -54.5250 H         1 UNK         0.0600 
    222 H222       -3.5597  -26.3387  -54.4937 H         1 UNK         0.0600 
    223 H223       -3.0250  -27.9514  -54.0393 H         1 UNK         0.0600 
    224 H224       -3.5229  -27.6336  -55.6882 H         1 UNK         0.0600 
    225 H225       -5.3288  -27.4177  -56.8060 H         1 UNK         0.3000 
    226 H226       -7.9186  -26.0628  -56.9245 H         1 UNK         0.0600 
    227 H227       -7.2020  -27.6779  -58.6813 H         1 UNK         0.0600 
    228 H228       -7.4554  -26.0823  -59.3671 H         1 UNK         0.0600 
    229 H229       -5.8183  -26.6578  -59.0777 H         1 UNK         0.0600 
    230 H230       -4.8105  -25.0137  -56.1470 H         1 UNK         0.3000 
    231 H231       -4.5231  -22.6508  -57.6959 H         1 UNK         0.0600 
    232 H232       -2.6808  -22.1678  -56.0515 H         1 UNK         0.0600 
    233 H233       -2.6058  -23.8086  -56.6724 H         1 UNK         0.0600 
    234 H234       -3.2318  -23.5075  -55.0535 H         1 UNK         0.0600 
    235 H235       -6.1088  -23.2097  -54.6093 H         1 UNK         0.3000 
    236 H236       -7.4553  -22.0836  -53.2943 H         1 UNK         0.0600 
    237 H237       -7.6485  -19.9036  -55.4345 H         1 UNK         0.0600 
    238 H238       -8.6835  -21.3233  -55.3022 H         1 UNK         0.0600 
    239 H239       -8.7073  -20.0947  -54.0464 H         1 UNK         0.0600 
    240 H240       -5.2597  -19.6959  -54.7348 H         1 UNK         0.3000 
    241 H241       -3.8237  -19.4253  -52.2854 H         1 UNK         0.0600 
    242 H242       -2.1562  -19.0347  -55.8582 H         1 UNK         0.3800 
    243 H243       -3.7847  -19.6247  -55.6933 H         1 UNK         0.3800 
    244 H244       -5.7764  -17.5553  -52.2965 H         1 UNK         0.0800 
    245 H245       -4.6242  -16.6705  -53.2456 H         1 UNK         0.0800 
    246 H246       -2.4123  -15.8920  -52.4910 H         1 UNK         0.0800 
    247 H247       -3.3430  -14.7830  -51.5207 H         1 UNK         0.0800 
@<TRIPOS>BOND
     1    1    2 1    
     2    1  127 1    
     3    1  128 1    
     4    1  129 1    
     5    2    3 2    
     6    2    4 am   BACKBONE|DICT|INTERRES
     7    4    5 1    
     8    4  130 1    
     9    5    6 1    
    10    5   65 1    
    11    5  131 1    
    12    6    7 1    
    13    6  132 1    
    14    6  133 1    
    15    7    8 1    
    16    8    9 1    
    17    8  134 1    
    18    8  135 1    
    19    9   10 ar   
    20    9   14 ar   
    21   10   11 ar   
    22   10  136 1    
    23   11   12 ar   
    24   11  126 1    
    25   12   13 ar   
    26   12  137 1    
    27   13   14 ar   
    28   13   15 1    
    29   14  138 1    
    30   15   16 1    
    31   15  139 1    
    32   15  140 1    
    33   16   17 1    
    34   17   18 1    
    35   17  141 1    
    36   17  142 1    
    37   18   19 1    
    38   18   67 1    
    39   18  143 1    
    40   19   20 am   BACKBONE|DICT|INTERRES
    41   19  144 1    
    42   20   21 2    
    43   20   22 1    
    44   22   23 1    
    45   22   24 1    
    46   22  145 1    
    47   23  146 1    
    48   23  147 1    
    49   23  148 1    
    50   24   25 am   BACKBONE|DICT|INTERRES
    51   24  149 1    
    52   25   26 2    
    53   25   27 1    
    54   27   28 1    
    55   27   29 1    
    56   27  150 1    
    57   28  151 1    
    58   28  152 1    
    59   28  153 1    
    60   29   30 am   BACKBONE|DICT|INTERRES
    61   29  154 1    
    62   30   31 2    
    63   30   32 1    
    64   32   33 1    
    65   32   34 1    
    66   32  155 1    
    67   33  156 1    
    68   33  157 1    
    69   33  158 1    
    70   34   35 am   BACKBONE|DICT|INTERRES
    71   34  159 1    
    72   35   36 2    
    73   35   37 1    
    74   37   38 1    
    75   37   39 1    
    76   37  160 1    
    77   38  161 1    
    78   38  162 1    
    79   38  163 1    
    80   39   40 am   BACKBONE|DICT|INTERRES
    81   39  164 1    
    82   40   41 2    
    83   40   42 1    
    84   42   43 1    
    85   42   44 1    
    86   42  165 1    
    87   43  166 1    
    88   43  167 1    
    89   43  168 1    
    90   44   45 am   BACKBONE|DICT|INTERRES
    91   44  169 1    
    92   45   46 2    
    93   45   47 1    
    94   47   48 1    
    95   47   49 1    
    96   47  170 1    
    97   48  171 1    
    98   48  172 1    
    99   48  173 1    
   100   49   50 am   BACKBONE|DICT|INTERRES
   101   49  174 1    
   102   50   51 2    
   103   50   52 1    
   104   52   53 1    
   105   52   54 1    
   106   52  175 1    
   107   53  176 1    
   108   53  177 1    
   109   53  178 1    
   110   54   55 am   BACKBONE|DICT|INTERRES
   111   54  179 1    
   112   55   56 2    
   113   55   57 1    
   114   57   58 1    
   115   57   59 1    
   116   57  180 1    
   117   58  181 1    
   118   58  182 1    
   119   58  183 1    
   120   59   60 am   BACKBONE|DICT|INTERRES
   121   59  184 1    
   122   60   61 2    
   123   60   62 1    
   124   62   63 1    
   125   62   64 1    
   126   62  185 1    
   127   63  186 1    
   128   63  187 1    
   129   63  188 1    
   130   64   65 am   BACKBONE|DICT|INTERRES
   131   64  189 1    
   132   65   66 2    
   133   67   68 2    
   134   67   69 am   BACKBONE|DICT|INTERRES
   135   69   70 1    
   136   69  190 1    
   137   70   71 1    
   138   70   72 1    
   139   70  191 1    
   140   71  192 1    
   141   71  193 1    
   142   71  194 1    
   143   72   73 2    
   144   72   74 am   BACKBONE|DICT|INTERRES
   145   74   75 1    
   146   74  195 1    
   147   75   76 1    
   148   75   77 1    
   149   75  196 1    
   150   76  197 1    
   151   76  198 1    
   152   76  199 1    
   153   77   78 2    
   154   77   79 am   BACKBONE|DICT|INTERRES
   155   79   80 1    
   156   79  200 1    
   157   80   81 1    
   158   80   82 1    
   159   80  201 1    
   160   81  202 1    
   161   81  203 1    
   162   81  204 1    
   163   82   83 2    
   164   82   84 am   BACKBONE|DICT|INTERRES
   165   84   85 1    
   166   84  205 1    
   167   85   86 1    
   168   85   87 1    
   169   85  206 1    
   170   86  207 1    
   171   86  208 1    
   172   86  209 1    
   173   87   88 2    
   174   87   89 am   BACKBONE|DICT|INTERRES
   175   89   90 1    
   176   89  210 1    
   177   90   91 1    
   178   90   92 1    
   179   90  211 1    
   180   91  212 1    
   181   91  213 1    
   182   91  214 1    
   183   92   93 2    
   184   92   94 am   BACKBONE|DICT|INTERRES
   185   94   95 1    
   186   94  215 1    
   187   95   96 1    
   188   95   97 1    
   189   95  216 1    
   190   96  217 1    
   191   96  218 1    
   192   96  219 1    
   193   97   98 2    
   194   97   99 am   BACKBONE|DICT|INTERRES
   195   99  100 1    
   196   99  220 1    
   197  100  101 1    
   198  100  102 1    
   199  100  221 1    
   200  101  222 1    
   201  101  223 1    
   202  101  224 1    
   203  102  103 2    
   204  102  104 am   BACKBONE|DICT|INTERRES
   205  104  105 1    
   206  104  225 1    
   207  105  106 1    
   208  105  107 1    
   209  105  226 1    
   210  106  227 1    
   211  106  228 1    
   212  106  229 1    
   213  107  108 2    
   214  107  109 am   BACKBONE|DICT|INTERRES
   215  109  110 1    
   216  109  230 1    
   217  110  111 1    
   218  110  112 1    
   219  110  231 1    
   220  111  232 1    
   221  111  233 1    
   222  111  234 1    
   223  112  113 2    
   224  112  114 am   BACKBONE|DICT|INTERRES
   225  114  115 1    
   226  114  235 1    
   227  115  116 1    
   228  115  117 1    
   229  115  236 1    
   230  116  237 1    
   231  116  238 1    
   232  116  239 1    
   233  117  118 2    
   234  117  119 am   BACKBONE|DICT|INTERRES
   235  119  120 1    
   236  119  240 1    
   237  120  121 1    
   238  120  124 1    
   239  120  241 1    
   240  121  122 am   BACKBONE|DICT|INTERRES
   241  121  123 2    
   242  122  242 1    
   243  122  243 1    
   244  124  125 1    
   245  124  244 1    
   246  124  245 1    
   247  125  126 1    
   248  126  246 1    
   249  126  247 1    
@<TRIPOS>SUBSTRUCTURE
     1 UNK         1 GROUP             0       ****    0 ROOT    
