@<TRIPOS>MOLECULE
3R540
247   249    1
SMALL
USER_CHARGES


@<TRIPOS>ATOM
      1 CA          1.5934  -20.1762  -52.1020 C.3       0 UNK        -0.1800 
      2 C           1.9005  -18.7308  -51.7318 C.2       0 UNK         0.5000 
      3 O           2.4212  -17.9807  -52.5575 O.2       0 UNK        -0.5000 
      4 N           1.5979  -18.3477  -50.4874 N.am      1 UNK        -0.5000 
      5 CA          1.7710  -16.9981  -49.9472 C.3       1 UNK         0.1400 
      6 C6          1.7683  -17.0174  -48.3990 C.3       23 UNK        -0.0398 
      7 S7          0.2496  -17.7182  -47.6602 S.3       23 UNK        -0.2404 
      8 C8         -0.5237  -16.2291  -46.9714 C.3       23 UNK        -0.0205 
      9 C9         -2.0354  -16.3347  -47.0140 C.ar      23 UNK        -0.0193 
     10 C10        -2.7442  -15.7454  -48.0616 C.ar      23 UNK        -0.1150 
     11 C11        -4.1378  -15.8047  -48.0965 C.ar      23 UNK        -0.0193 
     12 C12        -4.8231  -16.4984  -47.0954 C.ar      23 UNK        -0.1150 
     13 C13        -4.1223  -17.1079  -46.0492 C.ar      23 UNK        -0.0193 
     14 C14        -2.7279  -17.0079  -46.0055 C.ar      23 UNK        -0.1150 
     15 C15        -4.8782  -17.8522  -44.9596 C.3       23 UNK        -0.0205 
     16 S16        -4.9826  -19.6379  -45.3025 S.3       23 UNK        -0.2404 
     17 C17        -3.3869  -20.2454  -44.6552 C.3       23 UNK        -0.0398 
     18 CA         -2.5696  -21.0451  -45.7027 C.3       11 UNK         0.1400 
     19 N          -1.1457  -21.0626  -45.3709 N.am      11 UNK        -0.5000 
     20 C          -0.1659  -21.3954  -46.2207 C.2       10 UNK         0.5000 
     21 O          -0.3592  -21.6800  -47.4025 O.2       10 UNK        -0.5000 
     22 CA          1.2591  -21.4672  -45.6298 C.3       10 UNK         0.1400 
     23 CB          1.9371  -20.0935  -45.6458 C.3       10 UNK        -0.1800 
     24 N           1.2662  -21.9856  -44.2621 N.am      10 UNK        -0.5000 
     25 C           0.9758  -23.2572  -43.9537 C.2       9 UNK         0.5000 
     26 O           0.7579  -24.1220  -44.8003 O.2       9 UNK        -0.5000 
     27 CA          0.8558  -23.6229  -42.4609 C.3       9 UNK         0.1400 
     28 CB          2.1771  -24.2109  -41.9462 C.3       9 UNK        -0.1800 
     29 N           0.4677  -22.4965  -41.6103 N.am      9 UNK        -0.5000 
     30 C          -0.6563  -21.7761  -41.7347 C.2       8 UNK         0.5000 
     31 O          -1.5435  -22.0433  -42.5456 O.2       8 UNK        -0.5000 
     32 CA         -0.7951  -20.5213  -40.8491 C.3       8 UNK         0.1400 
     33 CB         -1.8360  -20.7603  -39.7455 C.3       8 UNK        -0.1800 
     34 N           0.4612  -20.0752  -40.2346 N.am      8 UNK        -0.5000 
     35 C           1.5326  -19.6123  -40.8934 C.2       7 UNK         0.5000 
     36 O           1.5985  -19.5117  -42.1224 O.2       7 UNK        -0.5000 
     37 CA          2.7521  -19.2737  -40.0266 C.3       7 UNK         0.1400 
     38 CB          3.4927  -20.5601  -39.6122 C.3       7 UNK        -0.1800 
     39 N           3.6536  -18.4000  -40.7693 N.am      7 UNK        -0.5000 
     40 C           4.5873  -17.6101  -40.2244 C.2       6 UNK         0.5000 
     41 O           4.7812  -17.5231  -39.0109 O.2       6 UNK        -0.5000 
     42 CA          5.4640  -16.7819  -41.1843 C.3       6 UNK         0.1400 
     43 CB          6.8089  -17.4873  -41.4206 C.3       6 UNK        -0.1800 
     44 N           4.8307  -16.5250  -42.4794 N.am      6 UNK        -0.5000 
     45 C           3.8513  -15.6355  -42.6789 C.2       5 UNK         0.5000 
     46 O           3.3721  -14.9239  -41.7913 O.2       5 UNK        -0.5000 
     47 CA          3.3125  -15.5380  -44.1114 C.3       5 UNK         0.1400 
     48 CB          2.3798  -16.7198  -44.4252 C.3       5 UNK        -0.1800 
     49 N           2.6026  -14.2730  -44.2677 N.am      5 UNK        -0.5000 
     50 C           2.3592  -13.6564  -45.4266 C.2       4 UNK         0.5000 
     51 O           2.6830  -14.1063  -46.5281 O.2       4 UNK        -0.5000 
     52 CA          1.6726  -12.2834  -45.3416 C.3       4 UNK         0.1400 
     53 CB          2.7205  -11.1605  -45.2992 C.3       4 UNK        -0.1800 
     54 N           0.8037  -12.0764  -46.4987 N.am      4 UNK        -0.5000 
     55 C          -0.4451  -12.5494  -46.5944 C.2       3 UNK         0.5000 
     56 O          -1.0264  -13.1409  -45.6854 O.2       3 UNK        -0.5000 
     57 CA         -1.1440  -12.3513  -47.9441 C.3       3 UNK         0.1400 
     58 CB         -1.4632  -10.8617  -48.1853 C.3       3 UNK        -0.1800 
     59 N          -0.3175  -12.9030  -49.0199 N.am      3 UNK        -0.5000 
     60 C          -0.7385  -13.1218  -50.2726 C.2       2 UNK         0.5000 
     61 O          -1.8843  -12.8915  -50.6581 O.2       2 UNK        -0.5000 
     62 CA          0.2926  -13.6902  -51.2639 C.3       2 UNK         0.1400 
     63 CB          1.1916  -12.5683  -51.8066 C.3       2 UNK        -0.1800 
     64 N           1.1303  -14.7413  -50.6810 N.am      2 UNK        -0.5000 
     65 C           0.7300  -16.0109  -50.5270 C.2       1 UNK         0.5000 
     66 O          -0.4003  -16.4058  -50.8191 O.2       1 UNK        -0.5000 
     67 C          -3.1101  -22.4820  -45.8438 C.2       11 UNK         0.5000 
     68 O          -3.7687  -22.7928  -46.8358 O.2       11 UNK        -0.5000 
     69 N          -2.8295  -23.3143  -44.8313 N.am      12 UNK        -0.5000 
     70 CA         -3.4112  -24.6413  -44.6593 C.3       12 UNK         0.1400 
     71 CB         -3.4717  -24.9662  -43.1563 C.3       12 UNK        -0.1800 
     72 C          -2.6669  -25.7364  -45.4415 C.2       12 UNK         0.5000 
     73 O          -3.2383  -26.3193  -46.3625 O.2       12 UNK        -0.5000 
     74 N          -1.4240  -26.0280  -45.0364 N.am      13 UNK        -0.5000 
     75 CA         -0.6403  -27.1703  -45.5116 C.3       13 UNK         0.1400 
     76 CB          0.4710  -27.4949  -44.5001 C.3       13 UNK        -0.1800 
     77 C          -0.0626  -26.9546  -46.9185 C.2       13 UNK         0.5000 
     78 O          -0.1320  -27.8656  -47.7445 O.2       13 UNK        -0.5000 
     79 N           0.4650  -25.7498  -47.1809 N.am      14 UNK        -0.5000 
     80 CA          0.9202  -25.3388  -48.5154 C.3       14 UNK         0.1400 
     81 CB          1.9430  -24.2009  -48.3982 C.3       14 UNK        -0.1800 
     82 C          -0.2511  -24.9480  -49.4415 C.2       14 UNK         0.5000 
     83 O          -0.0575  -24.8688  -50.6549 O.2       14 UNK        -0.5000 
     84 N          -1.4422  -24.7566  -48.8536 N.am      15 UNK        -0.5000 
     85 CA         -2.7464  -24.6104  -49.5010 C.3       15 UNK         0.1400 
     86 CB         -3.1173  -25.9135  -50.2400 C.3       15 UNK        -0.1800 
     87 C          -2.8705  -23.3572  -50.3905 C.2       15 UNK         0.5000 
     88 O          -3.5377  -23.4152  -51.4240 O.2       15 UNK        -0.5000 
     89 N          -2.2505  -22.2405  -49.9764 N.am      16 UNK        -0.5000 
     90 CA         -2.2047  -20.9727  -50.7178 C.3       16 UNK         0.1400 
     91 CB         -1.4411  -19.9329  -49.8890 C.3       16 UNK        -0.1800 
     92 C          -3.5825  -20.4096  -51.1158 C.2       16 UNK         0.5000 
     93 O          -3.7386  -19.9071  -52.2307 O.2       16 UNK        -0.5000 
     94 N          -4.5598  -20.5373  -50.2087 N.am      17 UNK        -0.5000 
     95 CA         -5.9379  -20.0971  -50.4153 C.3       17 UNK         0.1400 
     96 CB         -6.6703  -20.0818  -49.0655 C.3       17 UNK        -0.1800 
     97 C          -6.6923  -20.9561  -51.4474 C.2       17 UNK         0.5000 
     98 O          -7.4614  -20.4119  -52.2398 O.2       17 UNK        -0.5000 
     99 N          -6.4410  -22.2730  -51.4433 N.am      18 UNK        -0.5000 
    100 CA        -7.0239  -23.2289  -52.3889 C.3       18 UNK         0.1400 
    101 CB        -6.9235  -24.6475  -51.8115 C.3       18 UNK        -0.1800 
    102 C         -6.3521  -23.1550  -53.7717 C.2       18 UNK         0.5000 
    103 O         -7.0307  -23.3014  -54.7886 O.2       18 UNK        -0.5000 
    104 N         -5.0384  -22.8895  -53.7828 N.am      19 UNK        -0.5000 
    105 CA        -4.2279  -22.6411  -54.9771 C.3       19 UNK         0.1400 
    106 CB        -2.7430  -22.7136  -54.5860 C.3       19 UNK        -0.1800 
    107 C         -4.5352  -21.2913  -55.6591 C.2       19 UNK         0.5000 
    108 O         -4.1063  -21.0823  -56.7944 O.2       19 UNK        -0.5000 
    109 N         -5.2583  -20.4079  -54.9544 N.am      20 UNK        -0.5000 
    110 CA        -5.6570  -19.0549  -55.3467 C.3       20 UNK         0.1400 
    111 CB        -6.5811  -19.0777  -56.5821 C.3       20 UNK        -0.1800 
    112 C         -4.4570  -18.0991  -55.4990 C.2       20 UNK         0.5000 
    113 O         -4.4919  -17.1845  -56.3253 O.2       20 UNK        -0.5000 
    114 N         -3.4294  -18.2924  -54.6581 N.am      21 UNK        -0.5000 
    115 CA        -2.2488  -17.4259  -54.5669 C.3       21 UNK         0.1400 
    116 CB        -1.1808  -18.1267  -53.7179 C.3       21 UNK        -0.1800 
    117 C         -2.5735  -16.0274  -54.0009 C.2       21 UNK         0.5000 
    118 O         -1.8053  -15.0881  -54.2096 O.2       21 UNK        -0.5000 
    119 N         -3.7295  -15.9200  -53.3356 N.am      22 UNK        -0.5000 
    120 CA        -4.3493  -14.6889  -52.8300 C.3       22 UNK         0.1400 
    121 C         -4.7677  -13.6671  -53.9300 C.2       22 UNK         0.5000 
    122 N         -4.8545  -14.0474  -55.2005 N.am      22 UNK        -0.7600 
    123 O         -5.0255  -12.5068  -53.6226 O.2       22 UNK        -0.5000 
    124 C124       -5.5654  -15.0114  -51.9214 C.3       23 UNK        -0.0398 
    125 S125       -5.1771  -16.2182  -50.6082 S.3       23 UNK        -0.2404 
    126 C126       -4.8915  -15.1009  -49.2095 C.3       23 UNK        -0.0205 
    127 H127        2.4346  -20.6145  -52.6390 H         1 UNK         0.0600 
    128 H128        0.7159  -20.2248  -52.7451 H         1 UNK         0.0600 
    129 H129        1.4045  -20.7884  -51.2199 H         1 UNK         0.0600 
    130 H130        1.1301  -18.9905  -49.8654 H         1 UNK         0.3000 
    131 H131        2.7574  -16.6508  -50.2625 H         1 UNK         0.0600 
    132 H132        2.6092  -17.6158  -48.0462 H         1 UNK         0.0800 
    133 H133        1.9504  -16.0176  -48.0093 H         1 UNK         0.0800 
    134 H134       -0.1856  -16.0748  -45.9461 H         1 UNK         0.0800 
    135 H135       -0.2057  -15.3531  -47.5351 H         1 UNK         0.0800 
    136 H136       -2.2115  -15.2327  -48.8495 H         1 UNK         0.1150 
    137 H137       -5.9018  -16.5595  -47.1296 H         1 UNK         0.1150 
    138 H138       -2.1734  -17.4548  -45.1941 H         1 UNK         0.1150 
    139 H139       -4.4154  -17.6790  -43.9869 H         1 UNK         0.0800 
    140 H140       -5.8922  -17.4572  -44.8807 H         1 UNK         0.0800 
    141 H141       -3.5847  -20.8360  -43.7591 H         1 UNK         0.0800 
    142 H142       -2.8028  -19.3964  -44.3042 H         1 UNK         0.0800 
    143 H143       -2.6711  -20.5472  -46.6698 H         1 UNK         0.0600 
    144 H144       -0.9110  -20.9242  -44.3986 H         1 UNK         0.3000 
    145 H145        1.8572  -22.1396  -46.2447 H         1 UNK         0.0600 
    146 H146        2.9157  -20.1263  -45.1669 H         1 UNK         0.0600 
    147 H147        2.0914  -19.7541  -46.6696 H         1 UNK         0.0600 
    148 H148        1.3339  -19.3452  -45.1306 H         1 UNK         0.0600 
    149 H149        1.4332  -21.3187  -43.5186 H         1 UNK         0.3000 
    150 H150        0.0816  -24.3874  -42.3723 H         1 UNK         0.0600 
    151 H151        2.9850  -23.4790  -41.9837 H         1 UNK         0.0600 
    152 H152        2.4828  -25.0693  -42.5462 H         1 UNK         0.0600 
    153 H153        2.0818  -24.5544  -40.9159 H         1 UNK         0.0600 
    154 H154        1.1371  -22.2070  -40.9138 H         1 UNK         0.3000 
    155 H155       -1.1566  -19.7160  -41.4918 H         1 UNK         0.0600 
    156 H156       -1.5197  -21.5448  -39.0570 H         1 UNK         0.0600 
    157 H157       -2.7945  -21.0630  -40.1699 H         1 UNK         0.0600 
    158 H158       -2.0122  -19.8540  -39.1658 H         1 UNK         0.0600 
    159 H159        0.5037  -20.1376  -39.2272 H         1 UNK         0.3000 
    160 H160        2.3998  -18.7491  -39.1359 H         1 UNK         0.0600 
    161 H161        3.8654  -21.1048  -40.4808 H         1 UNK         0.0600 
    162 H162        2.8388  -21.2332  -39.0567 H         1 UNK         0.0600 
    163 H163        4.3438  -20.3394  -38.9680 H         1 UNK         0.0600 
    164 H164        3.5073  -18.3961  -41.7703 H         1 UNK         0.3000 
    165 H165        5.6650  -15.8235  -40.7005 H         1 UNK         0.0600 
    166 H166        7.4697  -16.8805  -42.0399 H         1 UNK         0.0600 
    167 H167        7.3262  -17.6686  -40.4775 H         1 UNK         0.0600 
    168 H168        6.6769  -18.4517  -41.9127 H         1 UNK         0.0600 
    169 H169        5.1694  -17.0690  -43.2600 H         1 UNK         0.3000 
    170 H170        4.1652  -15.5557  -44.7938 H         1 UNK         0.0600 
    171 H171        1.4711  -16.6904  -43.8226 H         1 UNK         0.0600 
    172 H172        2.0906  -16.7212  -45.4741 H         1 UNK         0.0600 
    173 H173        2.8723  -17.6722  -44.2289 H         1 UNK         0.0600 
    174 H174        2.3578  -13.8316  -43.3894 H         1 UNK         0.3000 
    175 H175        1.0773  -12.2366  -44.4269 H         1 UNK         0.0600 
    176 H176        3.3516  -11.1633  -46.1889 H         1 UNK         0.0600 
    177 H177        2.2464  -10.1815  -45.2268 H         1 UNK         0.0600 
    178 H178        3.3744  -11.2690  -44.4329 H         1 UNK         0.0600 
    179 H179        1.2181  -11.6073  -47.2902 H         1 UNK         0.3000 
    180 H180       -2.0848  -12.9042  -47.9099 H         1 UNK         0.0600 
    181 H181       -0.5579  -10.2719  -48.3315 H         1 UNK         0.0600 
    182 H182       -2.0009  -10.4355  -47.3373 H         1 UNK         0.0600 
    183 H183       -2.0942  -10.7247  -49.0632 H         1 UNK         0.0600 
    184 H184        0.6257  -13.1641  -48.7688 H         1 UNK         0.3000 
    185 H185       -0.2586  -14.1110  -52.1079 H         1 UNK         0.0600 
    186 H186        0.5944  -11.7769  -52.2616 H         1 UNK         0.0600 
    187 H187        1.7939  -12.1136  -51.0193 H         1 UNK         0.0600 
    188 H188        1.8689  -12.9436  -52.5740 H         1 UNK         0.0600 
    189 H189        2.0737  -14.4823  -50.4306 H         1 UNK         0.3000 
    190 H190       -2.2872  -22.9527  -44.0513 H         1 UNK         0.3000 
    191 H191       -4.4395  -24.6215  -45.0276 H         1 UNK         0.0600 
    192 H192       -4.1194  -24.2635  -42.6317 H         1 UNK         0.0600 
    193 H193       -3.8734  -25.9660  -42.9863 H         1 UNK         0.0600 
    194 H194       -2.4888  -24.9203  -42.6860 H         1 UNK         0.0600 
    195 H195       -0.9762  -25.4342  -44.3538 H         1 UNK         0.3000 
    196 H196       -1.3040  -28.0366  -45.5589 H         1 UNK         0.0600 
    197 H197        1.0234  -28.3848  -44.8045 H         1 UNK         0.0600 
    198 H198        0.0586  -27.6923  -43.5106 H         1 UNK         0.0600 
    199 H199        1.1913  -26.6823  -44.4073 H         1 UNK         0.0600 
    200 H200        0.5223  -25.0668  -46.4286 H         1 UNK         0.3000 
    201 H201        1.4305  -26.1865  -48.9778 H         1 UNK         0.0600 
    202 H202        2.4598  -24.0512  -49.3467 H         1 UNK         0.0600 
    203 H203        2.6996  -24.4147  -47.6430 H         1 UNK         0.0600 
    204 H204        1.4650  -23.2586  -48.1472 H         1 UNK         0.0600 
    205 H205       -1.4698  -24.8311  -47.8472 H         1 UNK         0.3000 
    206 H206       -3.4733  -24.4889  -48.6994 H         1 UNK         0.0600 
    207 H207       -2.9884  -26.7821  -49.5936 H         1 UNK         0.0600 
    208 H208       -4.1595  -25.9033  -50.5548 H         1 UNK         0.0600 
    209 H209       -2.5063  -26.0632  -51.1307 H         1 UNK         0.0600 
    210 H210       -1.7194  -22.2741  -49.1136 H         1 UNK         0.3000 
    211 H211       -1.6459  -21.1542  -51.6376 H         1 UNK         0.0600 
    212 H212       -0.4286  -20.2695  -49.6731 H         1 UNK         0.0600 
    213 H213       -1.9342  -19.7345  -48.9366 H         1 UNK         0.0600 
    214 H214       -1.3649  -18.9820  -50.4169 H         1 UNK         0.0600 
    215 H215       -4.3431  -20.9725  -49.3237 H         1 UNK         0.3000 
    216 H216       -5.9133  -19.0756  -50.7980 H         1 UNK         0.0600 
    217 H217       -7.7021  -19.7488  -49.1845 H         1 UNK         0.0600 
    218 H218       -6.1882  -19.3980  -48.3659 H         1 UNK         0.0600 
    219 H219       -6.6931  -21.0708  -48.6061 H         1 UNK         0.0600 
    220 H220       -5.7450  -22.6324  -50.8060 H         1 UNK         0.3000 
    221 H221       -8.0822  -22.9907  -52.5162 H         1 UNK         0.0600 
    222 H222       -5.8862  -24.9608  -51.7029 H         1 UNK         0.0600 
    223 H223       -7.4016  -24.7137  -50.8341 H         1 UNK         0.0600 
    224 H224       -7.4155  -25.3688  -52.4651 H         1 UNK         0.0600 
    225 H225       -4.5429  -22.8702  -52.8940 H         1 UNK         0.3000 
    226 H226       -4.4340  -23.4315  -55.7015 H         1 UNK         0.0600 
    227 H227       -2.1001  -22.5868  -55.4578 H         1 UNK         0.0600 
    228 H228       -2.4802  -21.9357  -53.8684 H         1 UNK         0.0600 
    229 H229       -2.4983  -23.6773  -54.1387 H         1 UNK         0.0600 
    230 H230       -5.5232  -20.6806  -54.0179 H         1 UNK         0.3000 
    231 H231       -6.2422  -18.6662  -54.5120 H         1 UNK         0.0600 
    232 H232       -6.0483  -19.3795  -57.4841 H         1 UNK         0.0600 
    233 H233       -7.0050  -18.0906  -56.7700 H         1 UNK         0.0600 
    234 H234       -7.4144  -19.7654  -56.4377 H         1 UNK         0.0600 
    235 H235       -3.5036  -19.0283  -53.9603 H         1 UNK         0.3000 
    236 H236       -1.8497  -17.2886  -55.5739 H         1 UNK         0.0600 
    237 H237       -0.9216  -19.0992  -54.1358 H         1 UNK         0.0600 
    238 H238       -0.2672  -17.5327  -53.6740 H         1 UNK         0.0600 
    239 H239       -1.5206  -18.2771  -52.6934 H         1 UNK         0.0600 
    240 H240       -4.2575  -16.7657  -53.1837 H         1 UNK         0.3000 
    241 H241       -3.5970  -14.1893  -52.2188 H         1 UNK         0.0600 
    242 H242       -4.6479  -14.9978  -55.4749 H         1 UNK         0.3800 
    243 H243       -5.1262  -13.3747  -55.9002 H         1 UNK         0.3800 
    244 H244       -5.9598  -14.1002  -51.4678 H         1 UNK         0.0800 
    245 H245       -6.3805  -15.4264  -52.5170 H         1 UNK         0.0800 
    246 H246       -5.8469  -14.7231  -48.8426 H         1 UNK         0.0800 
    247 H247       -4.3212  -14.2324  -49.5451 H         1 UNK         0.0800 
@<TRIPOS>BOND
     1    1    2 1    
     2    1  127 1    
     3    1  128 1    
     4    1  129 1    
     5    2    3 2    
     6    2    4 am   BACKBONE|DICT|INTERRES
     7    4    5 1    
     8    4  130 1    
     9    5    6 1    
    10    5   65 1    
    11    5  131 1    
    12    6    7 1    
    13    6  132 1    
    14    6  133 1    
    15    7    8 1    
    16    8    9 1    
    17    8  134 1    
    18    8  135 1    
    19    9   10 ar   
    20    9   14 ar   
    21   10   11 ar   
    22   10  136 1    
    23   11   12 ar   
    24   11  126 1    
    25   12   13 ar   
    26   12  137 1    
    27   13   14 ar   
    28   13   15 1    
    29   14  138 1    
    30   15   16 1    
    31   15  139 1    
    32   15  140 1    
    33   16   17 1    
    34   17   18 1    
    35   17  141 1    
    36   17  142 1    
    37   18   19 1    
    38   18   67 1    
    39   18  143 1    
    40   19   20 am   BACKBONE|DICT|INTERRES
    41   19  144 1    
    42   20   21 2    
    43   20   22 1    
    44   22   23 1    
    45   22   24 1    
    46   22  145 1    
    47   23  146 1    
    48   23  147 1    
    49   23  148 1    
    50   24   25 am   BACKBONE|DICT|INTERRES
    51   24  149 1    
    52   25   26 2    
    53   25   27 1    
    54   27   28 1    
    55   27   29 1    
    56   27  150 1    
    57   28  151 1    
    58   28  152 1    
    59   28  153 1    
    60   29   30 am   BACKBONE|DICT|INTERRES
    61   29  154 1    
    62   30   31 2    
    63   30   32 1    
    64   32   33 1    
    65   32   34 1    
    66   32  155 1    
    67   33  156 1    
    68   33  157 1    
    69   33  158 1    
    70   34   35 am   BACKBONE|DICT|INTERRES
    71   34  159 1    
    72   35   36 2    
    73   35   37 1    
    74   37   38 1    
    75   37   39 1    
    76   37  160 1    
    77   38  161 1    
    78   38  162 1    
    79   38  163 1    
    80   39   40 am   BACKBONE|DICT|INTERRES
    81   39  164 1    
    82   40   41 2    
    83   40   42 1    
    84   42   43 1    
    85   42   44 1    
    86   42  165 1    
    87   43  166 1    
    88   43  167 1    
    89   43  168 1    
    90   44   45 am   BACKBONE|DICT|INTERRES
    91   44  169 1    
    92   45   46 2    
    93   45   47 1    
    94   47   48 1    
    95   47   49 1    
    96   47  170 1    
    97   48  171 1    
    98   48  172 1    
    99   48  173 1    
   100   49   50 am   BACKBONE|DICT|INTERRES
   101   49  174 1    
   102   50   51 2    
   103   50   52 1    
   104   52   53 1    
   105   52   54 1    
   106   52  175 1    
   107   53  176 1    
   108   53  177 1    
   109   53  178 1    
   110   54   55 am   BACKBONE|DICT|INTERRES
   111   54  179 1    
   112   55   56 2    
   113   55   57 1    
   114   57   58 1    
   115   57   59 1    
   116   57  180 1    
   117   58  181 1    
   118   58  182 1    
   119   58  183 1    
   120   59   60 am   BACKBONE|DICT|INTERRES
   121   59  184 1    
   122   60   61 2    
   123   60   62 1    
   124   62   63 1    
   125   62   64 1    
   126   62  185 1    
   127   63  186 1    
   128   63  187 1    
   129   63  188 1    
   130   64   65 am   BACKBONE|DICT|INTERRES
   131   64  189 1    
   132   65   66 2    
   133   67   68 2    
   134   67   69 am   BACKBONE|DICT|INTERRES
   135   69   70 1    
   136   69  190 1    
   137   70   71 1    
   138   70   72 1    
   139   70  191 1    
   140   71  192 1    
   141   71  193 1    
   142   71  194 1    
   143   72   73 2    
   144   72   74 am   BACKBONE|DICT|INTERRES
   145   74   75 1    
   146   74  195 1    
   147   75   76 1    
   148   75   77 1    
   149   75  196 1    
   150   76  197 1    
   151   76  198 1    
   152   76  199 1    
   153   77   78 2    
   154   77   79 am   BACKBONE|DICT|INTERRES
   155   79   80 1    
   156   79  200 1    
   157   80   81 1    
   158   80   82 1    
   159   80  201 1    
   160   81  202 1    
   161   81  203 1    
   162   81  204 1    
   163   82   83 2    
   164   82   84 am   BACKBONE|DICT|INTERRES
   165   84   85 1    
   166   84  205 1    
   167   85   86 1    
   168   85   87 1    
   169   85  206 1    
   170   86  207 1    
   171   86  208 1    
   172   86  209 1    
   173   87   88 2    
   174   87   89 am   BACKBONE|DICT|INTERRES
   175   89   90 1    
   176   89  210 1    
   177   90   91 1    
   178   90   92 1    
   179   90  211 1    
   180   91  212 1    
   181   91  213 1    
   182   91  214 1    
   183   92   93 2    
   184   92   94 am   BACKBONE|DICT|INTERRES
   185   94   95 1    
   186   94  215 1    
   187   95   96 1    
   188   95   97 1    
   189   95  216 1    
   190   96  217 1    
   191   96  218 1    
   192   96  219 1    
   193   97   98 2    
   194   97   99 am   BACKBONE|DICT|INTERRES
   195   99  100 1    
   196   99  220 1    
   197  100  101 1    
   198  100  102 1    
   199  100  221 1    
   200  101  222 1    
   201  101  223 1    
   202  101  224 1    
   203  102  103 2    
   204  102  104 am   BACKBONE|DICT|INTERRES
   205  104  105 1    
   206  104  225 1    
   207  105  106 1    
   208  105  107 1    
   209  105  226 1    
   210  106  227 1    
   211  106  228 1    
   212  106  229 1    
   213  107  108 2    
   214  107  109 am   BACKBONE|DICT|INTERRES
   215  109  110 1    
   216  109  230 1    
   217  110  111 1    
   218  110  112 1    
   219  110  231 1    
   220  111  232 1    
   221  111  233 1    
   222  111  234 1    
   223  112  113 2    
   224  112  114 am   BACKBONE|DICT|INTERRES
   225  114  115 1    
   226  114  235 1    
   227  115  116 1    
   228  115  117 1    
   229  115  236 1    
   230  116  237 1    
   231  116  238 1    
   232  116  239 1    
   233  117  118 2    
   234  117  119 am   BACKBONE|DICT|INTERRES
   235  119  120 1    
   236  119  240 1    
   237  120  121 1    
   238  120  124 1    
   239  120  241 1    
   240  121  122 am   BACKBONE|DICT|INTERRES
   241  121  123 2    
   242  122  242 1    
   243  122  243 1    
   244  124  125 1    
   245  124  244 1    
   246  124  245 1    
   247  125  126 1    
   248  126  246 1    
   249  126  247 1    
@<TRIPOS>SUBSTRUCTURE
     1 UNK         1 GROUP             0       ****    0 ROOT    
