@<TRIPOS>MOLECULE
3R540
247   249    1
SMALL
USER_CHARGES


@<TRIPOS>ATOM
      1 CA          5.5692   -9.4400  -51.1128 C.3       0 UNK        -0.1800 
      2 C           4.9569  -10.4653  -50.1687 C.2       0 UNK         0.5000 
      3 O           4.4011  -10.0913  -49.1357 O.2       0 UNK        -0.5000 
      4 N           5.0638  -11.7544  -50.5140 N.am      1 UNK        -0.5000 
      5 CA          4.4777  -12.8698  -49.7682 C.3       1 UNK         0.1400 
      6 C6          5.0989  -14.2199  -50.2055 C.3       23 UNK        -0.0398 
      7 S7          4.5766  -15.6272  -49.1645 S.3       23 UNK        -0.2404 
      8 C8          3.5024  -16.5244  -50.3299 C.3       23 UNK        -0.0205 
      9 C9          2.6337  -17.5466  -49.6152 C.ar      23 UNK        -0.0193 
     10 C10         1.2892  -17.2644  -49.3511 C.ar      23 UNK        -0.1150 
     11 C11         0.4887  -18.1950  -48.6826 C.ar      23 UNK        -0.0193 
     12 C12         1.0360  -19.4198  -48.2966 C.ar      23 UNK        -0.1150 
     13 C13         2.3790  -19.7116  -48.5473 C.ar      23 UNK        -0.0193 
     14 C14         3.1733  -18.7729  -49.2129 C.ar      23 UNK        -0.1150 
     15 C15         2.9604  -21.0376  -48.0855 C.3       23 UNK        -0.0205 
     16 S16         2.9137  -21.1823  -46.2693 S.3       23 UNK        -0.2404 
     17 C17         3.3649  -22.9328  -46.0339 C.3       23 UNK        -0.0398 
     18 CA          2.1694  -23.9054  -45.8598 C.3       11 UNK         0.1400 
     19 N           1.2570  -23.5219  -44.7741 N.am      11 UNK        -0.5000 
     20 C           0.6231  -24.4088  -43.9913 C.2       10 UNK         0.5000 
     21 O           0.7855  -25.6266  -44.0694 O.2       10 UNK        -0.5000 
     22 CA         -0.3790  -23.8573  -42.9582 C.3       10 UNK         0.1400 
     23 CB          0.3479  -23.4495  -41.6677 C.3       10 UNK        -0.1800 
     24 N          -1.1692  -22.7239  -43.4391 N.am      10 UNK        -0.5000 
     25 C          -1.9796  -22.7298  -44.5067 C.2       9 UNK         0.5000 
     26 O          -2.1611  -23.7213  -45.2136 O.2       9 UNK        -0.5000 
     27 CA         -2.6907  -21.4056  -44.8656 C.3       9 UNK         0.1400 
     28 CB         -4.1845  -21.4893  -44.5204 C.3       9 UNK        -0.1800 
     29 N          -2.1197  -20.2131  -44.2272 N.am      9 UNK        -0.5000 
     30 C          -0.8804  -19.7548  -44.4423 C.2       8 UNK         0.5000 
     31 O          -0.0791  -20.3046  -45.2002 O.2       8 UNK        -0.5000 
     32 CA         -0.4560  -18.5132  -43.6453 C.3       8 UNK         0.1400 
     33 CB         -0.3597  -18.8236  -42.1391 C.3       8 UNK        -0.1800 
     34 N           0.8395  -18.0650  -44.1416 N.am      8 UNK        -0.5000 
     35 C           1.3556  -16.8420  -43.9962 C.2       7 UNK         0.5000 
     36 O           0.7834  -15.9367  -43.3854 O.2       7 UNK        -0.5000 
     37 CA          2.7312  -16.5978  -44.6399 C.3       7 UNK         0.1400 
     38 CB          2.7815  -17.1004  -46.0887 C.3       7 UNK        -0.1800 
     39 N           3.0622  -15.1746  -44.6573 N.am      7 UNK        -0.5000 
     40 C           4.1130  -14.6255  -44.0375 C.2       6 UNK         0.5000 
     41 O           4.8741  -15.2459  -43.2936 O.2       6 UNK        -0.5000 
     42 CA          4.3808  -13.1380  -44.3062 C.3       6 UNK         0.1400 
     43 CB          5.1592  -12.9618  -45.6219 C.3       6 UNK        -0.1800 
     44 N           3.1455  -12.3581  -44.3519 N.am      6 UNK        -0.5000 
     45 C           3.0528  -11.0680  -44.0051 C.2       5 UNK         0.5000 
     46 O           4.0045  -10.3903  -43.6145 O.2       5 UNK        -0.5000 
     47 CA          1.6595  -10.4216  -44.1070 C.3       5 UNK         0.1400 
     48 CB          1.4308   -9.8817  -45.5257 C.3       5 UNK        -0.1800 
     49 N           0.5806  -11.3489  -43.7701 N.am      5 UNK        -0.5000 
     50 C           0.3307  -11.8377  -42.5490 C.2       4 UNK         0.5000 
     51 O           0.9638  -11.5089  -41.5451 O.2       4 UNK        -0.5000 
     52 CA         -0.7910  -12.8878  -42.4170 C.3       4 UNK         0.1400 
     53 CB         -2.1264  -12.2387  -42.0058 C.3       4 UNK        -0.1800 
     54 N          -0.9431  -13.7583  -43.5907 N.am      4 UNK        -0.5000 
     55 C          -1.4047  -13.4616  -44.8110 C.2       3 UNK         0.5000 
     56 O          -1.8182  -12.3490  -45.1435 O.2       3 UNK        -0.5000 
     57 CA         -1.3554  -14.5935  -45.8526 C.3       3 UNK         0.1400 
     58 CB         -2.7604  -15.1630  -46.0932 C.3       3 UNK        -0.1800 
     59 N          -0.7964  -14.1284  -47.1211 N.am      3 UNK        -0.5000 
     60 C           0.4524  -13.6748  -47.2840 C.2       2 UNK         0.5000 
     61 O           1.3077  -13.6645  -46.3891 O.2       2 UNK        -0.5000 
     62 CA          0.7918  -13.1334  -48.6803 C.3       2 UNK         0.1400 
     63 CB          0.1044  -11.7792  -48.9436 C.3       2 UNK        -0.1800 
     64 N           2.2390  -13.0049  -48.7852 N.am      2 UNK        -0.5000 
     65 C           2.9403  -12.8655  -49.9137 C.2       1 UNK         0.5000 
     66 O           2.4342  -12.7703  -51.0346 O.2       1 UNK        -0.5000 
     67 C           1.4209  -24.1583  -47.1859 C.2       11 UNK         0.5000 
     68 O           1.9565  -24.8601  -48.0447 O.2       11 UNK        -0.5000 
     69 N           0.2067  -23.6040  -47.3375 N.am      12 UNK        -0.5000 
     70 CA         -0.6773  -23.8632  -48.4779 C.3       12 UNK         0.1400 
     71 CB         -1.8091  -22.8227  -48.5173 C.3       12 UNK        -0.1800 
     72 C          -1.2331  -25.2993  -48.4350 C.2       12 UNK         0.5000 
     73 O          -1.2445  -25.9761  -49.4639 O.2       12 UNK        -0.5000 
     74 N          -1.6285  -25.7427  -47.2308 N.am      13 UNK        -0.5000 
     75 CA         -1.9816  -27.1121  -46.8472 C.3       13 UNK         0.1400 
     76 CB         -0.6956  -27.9569  -46.7122 C.3       13 UNK        -0.1800 
     77 C          -3.0411  -27.7425  -47.7745 C.2       13 UNK         0.5000 
     78 O          -4.2124  -27.3703  -47.6927 O.2       13 UNK        -0.5000 
     79 N          -2.6105  -28.6542  -48.6585 N.am      14 UNK        -0.5000 
     80 CA         -3.4286  -29.3647  -49.6457 C.3       14 UNK         0.1400 
     81 CB         -2.5477  -30.3984  -50.3640 C.3       14 UNK        -0.1800 
     82 C          -4.1376  -28.4555  -50.6711 C.2       14 UNK         0.5000 
     83 O          -5.1315  -28.8807  -51.2610 O.2       14 UNK        -0.5000 
     84 N          -3.6478  -27.2190  -50.8470 N.am      15 UNK        -0.5000 
     85 CA         -4.2966  -26.1742  -51.6434 C.3       15 UNK         0.1400 
     86 CB         -3.2807  -25.0539  -51.9095 C.3       15 UNK        -0.1800 
     87 C          -5.5692  -25.5989  -50.9834 C.2       15 UNK         0.5000 
     88 O          -6.3185  -24.8844  -51.6526 O.2       15 UNK        -0.5000 
     89 N          -5.7765  -25.8918  -49.6871 N.am      16 UNK        -0.5000 
     90 CA         -6.9229  -25.5100  -48.8536 C.3       16 UNK         0.1400 
     91 CB         -8.1910  -26.2550  -49.3186 C.3       16 UNK        -0.1800 
     92 C          -7.1258  -23.9840  -48.7682 C.2       16 UNK         0.5000 
     93 O          -8.2632  -23.5132  -48.7121 O.2       16 UNK        -0.5000 
     94 N          -6.0096  -23.2409  -48.8227 N.am      17 UNK        -0.5000 
     95 CA         -5.8685  -21.7844  -48.9449 C.3       17 UNK         0.1400 
     96 CB         -6.5210  -21.0480  -47.7586 C.3       17 UNK        -0.1800 
     97 C          -6.3649  -21.2161  -50.2899 C.2       17 UNK         0.5000 
     98 O          -5.6777  -20.3829  -50.8796 O.2       17 UNK        -0.5000 
     99 N          -7.5326  -21.6755  -50.7526 N.am      18 UNK        -0.5000 
    100 CA        -8.2444  -21.2185  -51.9433 C.3       18 UNK         0.1400 
    101 CB        -9.5743  -21.9792  -52.0566 C.3       18 UNK        -0.1800 
    102 C         -7.4363  -21.3389  -53.2455 C.2       18 UNK         0.5000 
    103 O         -7.3543  -20.3626  -53.9914 O.2       18 UNK        -0.5000 
    104 N         -6.8263  -22.5088  -53.4889 N.am      19 UNK        -0.5000 
    105 CA        -6.0475  -22.7679  -54.7063 C.3       19 UNK         0.1400 
    106 CB        -5.9096  -24.2819  -54.9250 C.3       19 UNK        -0.1800 
    107 C         -4.6698  -22.0760  -54.7034 C.2       19 UNK         0.5000 
    108 O         -4.0882  -21.8818  -55.7711 O.2       19 UNK        -0.5000 
    109 N         -4.1865  -21.6959  -53.5134 N.am      20 UNK        -0.5000 
    110 CA        -2.9666  -20.9122  -53.3145 C.3       20 UNK         0.1400 
    111 CB        -2.3355  -21.3256  -51.9756 C.3       20 UNK        -0.1800 
    112 C         -3.2280  -19.3913  -53.3556 C.2       20 UNK         0.5000 
    113 O         -2.2679  -18.6205  -53.3510 O.2       20 UNK        -0.5000 
    114 N         -4.5097  -18.9906  -53.3909 N.am      21 UNK        -0.5000 
    115 CA        -5.0255  -17.6190  -53.3254 C.3       21 UNK         0.1400 
    116 CB        -4.5821  -16.7949  -54.5523 C.3       21 UNK        -0.1800 
    117 C         -4.7229  -16.9239  -51.9792 C.2       21 UNK         0.5000 
    118 O         -4.5436  -15.7053  -51.9374 O.2       21 UNK        -0.5000 
    119 N         -4.6886  -17.7138  -50.8995 N.am      22 UNK        -0.5000 
    120 CA        -4.4496  -17.2617  -49.5196 C.3       22 UNK         0.1400 
    121 C         -5.7385  -16.7937  -48.7826 C.2       22 UNK         0.5000 
    122 N         -6.9288  -16.9517  -49.3492 N.am      22 UNK        -0.7600 
    123 O         -5.6566  -16.2694  -47.6760 O.2       22 UNK        -0.5000 
    124 C124       -3.7070  -18.3394  -48.6890 C.3       23 UNK        -0.0398 
    125 S125       -2.0985  -18.8077  -49.4046 S.3       23 UNK        -0.2404 
    126 C126       -0.9568  -17.8768  -48.3439 C.3       23 UNK        -0.0205 
    127 H127        4.8010   -8.7548  -51.4712 H         1 UNK         0.0600 
    128 H128        6.3305   -8.8585  -50.5927 H         1 UNK         0.0600 
    129 H129        6.0344   -9.9121  -51.9785 H         1 UNK         0.0600 
    130 H130        5.5050  -11.9942  -51.3903 H         1 UNK         0.3000 
    131 H131        4.7272  -12.7160  -48.7169 H         1 UNK         0.0600 
    132 H132        4.8796  -14.4263  -51.2547 H         1 UNK         0.0800 
    133 H133        6.1859  -14.1585  -50.1369 H         1 UNK         0.0800 
    134 H134        2.8722  -15.8155  -50.8695 H         1 UNK         0.0800 
    135 H135        4.1185  -17.0223  -51.0800 H         1 UNK         0.0800 
    136 H136        0.8705  -16.3155  -49.6534 H         1 UNK         0.1150 
    137 H137        0.4203  -20.1410  -47.7778 H         1 UNK         0.1150 
    138 H138        4.2147  -18.9871  -49.4075 H         1 UNK         0.1150 
    139 H139        2.3872  -21.8432  -48.5438 H         1 UNK         0.0800 
    140 H140        3.9900  -21.1522  -48.4276 H         1 UNK         0.0800 
    141 H141        4.0123  -23.2565  -46.8510 H         1 UNK         0.0800 
    142 H142        3.9879  -22.9823  -45.1401 H         1 UNK         0.0800 
    143 H143        2.6179  -24.8670  -45.6001 H         1 UNK         0.0600 
    144 H144        1.0727  -22.5327  -44.6662 H         1 UNK         0.3000 
    145 H145       -1.0763  -24.6623  -42.7172 H         1 UNK         0.0600 
    146 H146       -0.3591  -23.1520  -40.8931 H         1 UNK         0.0600 
    147 H147        0.9333  -24.2795  -41.2698 H         1 UNK         0.0600 
    148 H148        1.0317  -22.6165  -41.8367 H         1 UNK         0.0600 
    149 H149       -1.0824  -21.8634  -42.9205 H         1 UNK         0.3000 
    150 H150       -2.5992  -21.2739  -45.9453 H         1 UNK         0.0600 
    151 H151       -4.6511  -22.3475  -45.0061 H         1 UNK         0.0600 
    152 H152       -4.7172  -20.5985  -44.8538 H         1 UNK         0.0600 
    153 H153       -4.3433  -21.5945  -43.4465 H         1 UNK         0.0600 
    154 H154       -2.7204  -19.7223  -43.5805 H         1 UNK         0.3000 
    155 H155       -1.1984  -17.7311  -43.8171 H         1 UNK         0.0600 
    156 H156       -0.0633  -17.9420  -41.5707 H         1 UNK         0.0600 
    157 H157        0.3700  -19.6091  -41.9383 H         1 UNK         0.0600 
    158 H158       -1.3184  -19.1529  -41.7372 H         1 UNK         0.0600 
    159 H159        1.3177  -18.7587  -44.7058 H         1 UNK         0.3000 
    160 H160        3.4596  -17.1625  -44.0550 H         1 UNK         0.0600 
    161 H161        3.7576  -16.9132  -46.5352 H         1 UNK         0.0600 
    162 H162        2.0321  -16.6051  -46.7059 H         1 UNK         0.0600 
    163 H163        2.6104  -18.1738  -46.1484 H         1 UNK         0.0600 
    164 H164        2.4611  -14.6013  -45.2416 H         1 UNK         0.3000 
    165 H165        5.0017  -12.7754  -43.4839 H         1 UNK         0.0600 
    166 H166        4.5866  -13.3347  -46.4707 H         1 UNK         0.0600 
    167 H167        5.3976  -11.9147  -45.8091 H         1 UNK         0.0600 
    168 H168        6.1011  -13.5111  -45.5953 H         1 UNK         0.0600 
    169 H169        2.3122  -12.8345  -44.6738 H         1 UNK         0.3000 
    170 H170        1.6208   -9.5841  -43.4074 H         1 UNK         0.0600 
    171 H171        2.1754   -9.1264  -45.7804 H         1 UNK         0.0600 
    172 H172        1.5071  -10.6773  -46.2664 H         1 UNK         0.0600 
    173 H173        0.4485   -9.4194  -45.6238 H         1 UNK         0.0600 
    174 H174       -0.0320  -11.6407  -44.5233 H         1 UNK         0.3000 
    175 H175       -0.4908  -13.5538  -41.6065 H         1 UNK         0.0600 
    176 H176       -2.4720  -11.5103  -42.7396 H         1 UNK         0.0600 
    177 H177       -2.9078  -12.9883  -41.8809 H         1 UNK         0.0600 
    178 H178       -2.0239  -11.7142  -41.0551 H         1 UNK         0.0600 
    179 H179       -0.5063  -14.6718  -43.4707 H         1 UNK         0.3000 
    180 H180       -0.7196  -15.3999  -45.4873 H         1 UNK         0.0600 
    181 H181       -3.4453  -14.4029  -46.4715 H         1 UNK         0.0600 
    182 H182       -3.1859  -15.5566  -45.1693 H         1 UNK         0.0600 
    183 H183       -2.7400  -15.9790  -46.8125 H         1 UNK         0.0600 
    184 H184       -1.4458  -14.0523  -47.8896 H         1 UNK         0.3000 
    185 H185        0.4505  -13.8636  -49.4166 H         1 UNK         0.0600 
    186 H186       -0.9754  -11.8479  -48.8071 H         1 UNK         0.0600 
    187 H187        0.4698  -11.0021  -48.2740 H         1 UNK         0.0600 
    188 H188        0.2744  -11.4398  -49.9653 H         1 UNK         0.0600 
    189 H189        2.7151  -13.1135  -47.8987 H         1 UNK         0.3000 
    190 H190       -0.1705  -23.0546  -46.5798 H         1 UNK         0.3000 
    191 H191       -0.0912  -23.7546  -49.3931 H         1 UNK         0.0600 
    192 H192       -2.3903  -22.9178  -49.4332 H         1 UNK         0.0600 
    193 H193       -1.4151  -21.8065  -48.4909 H         1 UNK         0.0600 
    194 H194       -2.5030  -22.9382  -47.6863 H         1 UNK         0.0600 
    195 H195       -1.6624  -25.0650  -46.4731 H         1 UNK         0.3000 
    196 H196       -2.4396  -27.0480  -45.8591 H         1 UNK         0.0600 
    197 H197       -0.9235  -28.9810  -46.4139 H         1 UNK         0.0600 
    198 H198       -0.0399  -27.5406  -45.9474 H         1 UNK         0.0600 
    199 H199       -0.1259  -27.9951  -47.6415 H         1 UNK         0.0600 
    200 H200       -1.6219  -28.8583  -48.6746 H         1 UNK         0.3000 
    201 H201       -4.2080  -29.8996  -49.0994 H         1 UNK         0.0600 
    202 H202       -2.1159  -31.1085  -49.6586 H         1 UNK         0.0600 
    203 H203       -1.7298  -29.9210  -50.9053 H         1 UNK         0.0600 
    204 H204       -3.1281  -30.9737  -51.0867 H         1 UNK         0.0600 
    205 H205       -2.8126  -26.9470  -50.3368 H         1 UNK         0.3000 
    206 H206       -4.5910  -26.6054  -52.6022 H         1 UNK         0.0600 
    207 H207       -2.3862  -25.4373  -52.4004 H         1 UNK         0.0600 
    208 H208       -3.6997  -24.2844  -52.5555 H         1 UNK         0.0600 
    209 H209       -2.9735  -24.5672  -50.9855 H         1 UNK         0.0600 
    210 H210       -5.0897  -26.4699  -49.2118 H         1 UNK         0.3000 
    211 H211       -6.6928  -25.8443  -47.8411 H         1 UNK         0.0600 
    212 H212       -8.5138  -25.9250  -50.3067 H         1 UNK         0.0600 
    213 H213       -9.0199  -26.0876  -48.6299 H         1 UNK         0.0600 
    214 H214       -8.0205  -27.3307  -49.3638 H         1 UNK         0.0600 
    215 H215       -5.1444  -23.7561  -48.8933 H         1 UNK         0.3000 
    216 H216       -4.7956  -21.5910  -48.9031 H         1 UNK         0.0600 
    217 H217       -7.6019  -21.1860  -47.7336 H         1 UNK         0.0600 
    218 H218       -6.3429  -19.9740  -47.8116 H         1 UNK         0.0600 
    219 H219       -6.1193  -21.3995  -46.8095 H         1 UNK         0.0600 
    220 H220       -8.0075  -22.3659  -50.1775 H         1 UNK         0.3000 
    221 H221       -8.4713  -20.1606  -51.7966 H         1 UNK         0.0600 
    222 H222       -9.4159  -23.0550  -52.1433 H         1 UNK         0.0600 
    223 H223      -10.2032  -21.8040  -51.1836 H         1 UNK         0.0600 
    224 H224      -10.1379  -21.6565  -52.9330 H         1 UNK         0.0600 
    225 H225       -6.8918  -23.2649  -52.8135 H         1 UNK         0.3000 
    226 H226       -6.6039  -22.3666  -55.5563 H         1 UNK         0.0600 
    227 H227       -6.8854  -24.7668  -54.9560 H         1 UNK         0.0600 
    228 H228       -5.4110  -24.4941  -55.8715 H         1 UNK         0.0600 
    229 H229       -5.3262  -24.7557  -54.1386 H         1 UNK         0.0600 
    230 H230       -4.7493  -21.8673  -52.6924 H         1 UNK         0.3000 
    231 H231       -2.2511  -21.1395  -54.1074 H         1 UNK         0.0600 
    232 H232       -3.0192  -21.1628  -51.1423 H         1 UNK         0.0600 
    233 H233       -1.4298  -20.7523  -51.7735 H         1 UNK         0.0600 
    234 H234       -2.0527  -22.3775  -51.9810 H         1 UNK         0.0600 
    235 H235       -5.2212  -19.7096  -53.3900 H         1 UNK         0.3000 
    236 H236       -6.1115  -17.7109  -53.3731 H         1 UNK         0.0600 
    237 H237       -4.8114  -17.3169  -55.4812 H         1 UNK         0.0600 
    238 H238       -5.0990  -15.8352  -54.5847 H         1 UNK         0.0600 
    239 H239       -3.5120  -16.5871  -54.5381 H         1 UNK         0.0600 
    240 H240       -4.8831  -18.7057  -51.0124 H         1 UNK         0.3000 
    241 H241       -3.8006  -16.3848  -49.5570 H         1 UNK         0.0600 
    242 H242       -7.0104  -17.3773  -50.2578 H         1 UNK         0.3800 
    243 H243       -7.7542  -16.6375  -48.8638 H         1 UNK         0.3800 
    244 H244       -3.5594  -18.0136  -47.6587 H         1 UNK         0.0800 
    245 H245       -4.3088  -19.2436  -48.6286 H         1 UNK         0.0800 
    246 H246       -1.1407  -18.1233  -47.2971 H         1 UNK         0.0800 
    247 H247       -1.1503  -16.8097  -48.4572 H         1 UNK         0.0800 
@<TRIPOS>BOND
     1    1    2 1    
     2    1  127 1    
     3    1  128 1    
     4    1  129 1    
     5    2    3 2    
     6    2    4 am   BACKBONE|DICT|INTERRES
     7    4    5 1    
     8    4  130 1    
     9    5    6 1    
    10    5   65 1    
    11    5  131 1    
    12    6    7 1    
    13    6  132 1    
    14    6  133 1    
    15    7    8 1    
    16    8    9 1    
    17    8  134 1    
    18    8  135 1    
    19    9   10 ar   
    20    9   14 ar   
    21   10   11 ar   
    22   10  136 1    
    23   11   12 ar   
    24   11  126 1    
    25   12   13 ar   
    26   12  137 1    
    27   13   14 ar   
    28   13   15 1    
    29   14  138 1    
    30   15   16 1    
    31   15  139 1    
    32   15  140 1    
    33   16   17 1    
    34   17   18 1    
    35   17  141 1    
    36   17  142 1    
    37   18   19 1    
    38   18   67 1    
    39   18  143 1    
    40   19   20 am   BACKBONE|DICT|INTERRES
    41   19  144 1    
    42   20   21 2    
    43   20   22 1    
    44   22   23 1    
    45   22   24 1    
    46   22  145 1    
    47   23  146 1    
    48   23  147 1    
    49   23  148 1    
    50   24   25 am   BACKBONE|DICT|INTERRES
    51   24  149 1    
    52   25   26 2    
    53   25   27 1    
    54   27   28 1    
    55   27   29 1    
    56   27  150 1    
    57   28  151 1    
    58   28  152 1    
    59   28  153 1    
    60   29   30 am   BACKBONE|DICT|INTERRES
    61   29  154 1    
    62   30   31 2    
    63   30   32 1    
    64   32   33 1    
    65   32   34 1    
    66   32  155 1    
    67   33  156 1    
    68   33  157 1    
    69   33  158 1    
    70   34   35 am   BACKBONE|DICT|INTERRES
    71   34  159 1    
    72   35   36 2    
    73   35   37 1    
    74   37   38 1    
    75   37   39 1    
    76   37  160 1    
    77   38  161 1    
    78   38  162 1    
    79   38  163 1    
    80   39   40 am   BACKBONE|DICT|INTERRES
    81   39  164 1    
    82   40   41 2    
    83   40   42 1    
    84   42   43 1    
    85   42   44 1    
    86   42  165 1    
    87   43  166 1    
    88   43  167 1    
    89   43  168 1    
    90   44   45 am   BACKBONE|DICT|INTERRES
    91   44  169 1    
    92   45   46 2    
    93   45   47 1    
    94   47   48 1    
    95   47   49 1    
    96   47  170 1    
    97   48  171 1    
    98   48  172 1    
    99   48  173 1    
   100   49   50 am   BACKBONE|DICT|INTERRES
   101   49  174 1    
   102   50   51 2    
   103   50   52 1    
   104   52   53 1    
   105   52   54 1    
   106   52  175 1    
   107   53  176 1    
   108   53  177 1    
   109   53  178 1    
   110   54   55 am   BACKBONE|DICT|INTERRES
   111   54  179 1    
   112   55   56 2    
   113   55   57 1    
   114   57   58 1    
   115   57   59 1    
   116   57  180 1    
   117   58  181 1    
   118   58  182 1    
   119   58  183 1    
   120   59   60 am   BACKBONE|DICT|INTERRES
   121   59  184 1    
   122   60   61 2    
   123   60   62 1    
   124   62   63 1    
   125   62   64 1    
   126   62  185 1    
   127   63  186 1    
   128   63  187 1    
   129   63  188 1    
   130   64   65 am   BACKBONE|DICT|INTERRES
   131   64  189 1    
   132   65   66 2    
   133   67   68 2    
   134   67   69 am   BACKBONE|DICT|INTERRES
   135   69   70 1    
   136   69  190 1    
   137   70   71 1    
   138   70   72 1    
   139   70  191 1    
   140   71  192 1    
   141   71  193 1    
   142   71  194 1    
   143   72   73 2    
   144   72   74 am   BACKBONE|DICT|INTERRES
   145   74   75 1    
   146   74  195 1    
   147   75   76 1    
   148   75   77 1    
   149   75  196 1    
   150   76  197 1    
   151   76  198 1    
   152   76  199 1    
   153   77   78 2    
   154   77   79 am   BACKBONE|DICT|INTERRES
   155   79   80 1    
   156   79  200 1    
   157   80   81 1    
   158   80   82 1    
   159   80  201 1    
   160   81  202 1    
   161   81  203 1    
   162   81  204 1    
   163   82   83 2    
   164   82   84 am   BACKBONE|DICT|INTERRES
   165   84   85 1    
   166   84  205 1    
   167   85   86 1    
   168   85   87 1    
   169   85  206 1    
   170   86  207 1    
   171   86  208 1    
   172   86  209 1    
   173   87   88 2    
   174   87   89 am   BACKBONE|DICT|INTERRES
   175   89   90 1    
   176   89  210 1    
   177   90   91 1    
   178   90   92 1    
   179   90  211 1    
   180   91  212 1    
   181   91  213 1    
   182   91  214 1    
   183   92   93 2    
   184   92   94 am   BACKBONE|DICT|INTERRES
   185   94   95 1    
   186   94  215 1    
   187   95   96 1    
   188   95   97 1    
   189   95  216 1    
   190   96  217 1    
   191   96  218 1    
   192   96  219 1    
   193   97   98 2    
   194   97   99 am   BACKBONE|DICT|INTERRES
   195   99  100 1    
   196   99  220 1    
   197  100  101 1    
   198  100  102 1    
   199  100  221 1    
   200  101  222 1    
   201  101  223 1    
   202  101  224 1    
   203  102  103 2    
   204  102  104 am   BACKBONE|DICT|INTERRES
   205  104  105 1    
   206  104  225 1    
   207  105  106 1    
   208  105  107 1    
   209  105  226 1    
   210  106  227 1    
   211  106  228 1    
   212  106  229 1    
   213  107  108 2    
   214  107  109 am   BACKBONE|DICT|INTERRES
   215  109  110 1    
   216  109  230 1    
   217  110  111 1    
   218  110  112 1    
   219  110  231 1    
   220  111  232 1    
   221  111  233 1    
   222  111  234 1    
   223  112  113 2    
   224  112  114 am   BACKBONE|DICT|INTERRES
   225  114  115 1    
   226  114  235 1    
   227  115  116 1    
   228  115  117 1    
   229  115  236 1    
   230  116  237 1    
   231  116  238 1    
   232  116  239 1    
   233  117  118 2    
   234  117  119 am   BACKBONE|DICT|INTERRES
   235  119  120 1    
   236  119  240 1    
   237  120  121 1    
   238  120  124 1    
   239  120  241 1    
   240  121  122 am   BACKBONE|DICT|INTERRES
   241  121  123 2    
   242  122  242 1    
   243  122  243 1    
   244  124  125 1    
   245  124  244 1    
   246  124  245 1    
   247  125  126 1    
   248  126  246 1    
   249  126  247 1    
@<TRIPOS>SUBSTRUCTURE
     1 UNK         1 GROUP             0       ****    0 ROOT    
