@<TRIPOS>MOLECULE
3R540
247   249    1
SMALL
USER_CHARGES


@<TRIPOS>ATOM
      1 CA          6.9181  -17.2280  -45.6317 C.3       0 UNK        -0.1800 
      2 C           5.7494  -17.2639  -46.6064 C.2       0 UNK         0.5000 
      3 O           5.8790  -17.8179  -47.6976 O.2       0 UNK        -0.5000 
      4 N           4.6143  -16.6737  -46.2200 N.am      1 UNK        -0.5000 
      5 CA          3.3936  -16.5928  -47.0132 C.3       1 UNK         0.1400 
      6 C6          3.5557  -15.6257  -48.2230 C.3       23 UNK        -0.0398 
      7 S7          2.0304  -14.9736  -48.9917 S.3       23 UNK        -0.2404 
      8 C8          1.7482  -16.1582  -50.3407 C.3       23 UNK        -0.0205 
      9 C9          1.0841  -17.4226  -49.8255 C.ar      23 UNK        -0.0193 
     10 C10        -0.3082  -17.4823  -49.7146 C.ar      23 UNK        -0.1150 
     11 C11        -0.9290  -18.6393  -49.2410 C.ar      23 UNK        -0.0193 
     12 C12        -0.1464  -19.7366  -48.8787 C.ar      23 UNK        -0.1150 
     13 C13         1.2460  -19.6908  -48.9767 C.ar      23 UNK        -0.0193 
     14 C14         1.8553  -18.5316  -49.4638 C.ar      23 UNK        -0.1150 
     15 C15         2.0821  -20.9126  -48.6206 C.3       23 UNK        -0.0205 
     16 S16         2.6634  -20.9337  -46.8894 S.3       23 UNK        -0.2404 
     17 C17         1.1392  -20.9992  -45.8841 C.3       23 UNK        -0.0398 
     18 CA          0.5267  -22.4186  -45.6949 C.3       11 UNK         0.1400 
     19 N           0.0728  -22.6405  -44.3150 N.am      11 UNK        -0.5000 
     20 C          -0.4367  -23.7914  -43.8429 C.2       10 UNK         0.5000 
     21 O          -0.4822  -24.8331  -44.4984 O.2       10 UNK        -0.5000 
     22 CA         -1.0416  -23.7780  -42.4215 C.3       10 UNK         0.1400 
     23 CB         -0.0509  -24.3804  -41.4138 C.3       10 UNK        -0.1800 
     24 N          -1.4475  -22.4530  -41.9454 N.am      10 UNK        -0.5000 
     25 C          -2.3133  -21.6232  -42.5461 C.2       9 UNK         0.5000 
     26 O          -2.9427  -21.9185  -43.5603 O.2       9 UNK        -0.5000 
     27 CA         -2.4559  -20.2033  -41.9590 C.3       9 UNK         0.1400 
     28 CB         -3.7670  -20.0806  -41.1684 C.3       9 UNK        -0.1800 
     29 N          -1.3414  -19.7735  -41.1047 N.am      9 UNK        -0.5000 
     30 C          -0.0546  -19.7013  -41.4721 C.2       8 UNK         0.5000 
     31 O           0.3592  -20.0405  -42.5846 O.2       8 UNK        -0.5000 
     32 CA          0.9313  -19.2459  -40.3795 C.3       8 UNK         0.1400 
     33 CB          1.1742  -20.3833  -39.3735 C.3       8 UNK        -0.1800 
     34 N           2.2188  -18.8424  -40.9400 N.am      8 UNK        -0.5000 
     35 C           2.4215  -17.7365  -41.6630 C.2       7 UNK         0.5000 
     36 O           1.5653  -16.8670  -41.8523 O.2       7 UNK        -0.5000 
     37 CA          3.8163  -17.5982  -42.2887 C.3       7 UNK         0.1400 
     38 CB          3.9842  -18.5871  -43.4554 C.3       7 UNK        -0.1800 
     39 N           3.9762  -16.2328  -42.7760 N.am      7 UNK        -0.5000 
     40 C           4.9985  -15.4144  -42.5026 C.2       6 UNK         0.5000 
     41 O           6.0267  -15.7705  -41.9270 O.2       6 UNK        -0.5000 
     42 CA          4.8458  -13.9454  -42.9406 C.3       6 UNK         0.1400 
     43 CB          5.6434  -13.6685  -44.2251 C.3       6 UNK        -0.1800 
     44 N           3.4470  -13.5903  -43.1744 N.am      6 UNK        -0.5000 
     45 C           2.5963  -13.1286  -42.2487 C.2       5 UNK         0.5000 
     46 O           2.9194  -12.9017  -41.0815 O.2       5 UNK        -0.5000 
     47 CA          1.1401  -12.8963  -42.7124 C.3       5 UNK         0.1400 
     48 CB          0.4072  -11.8185  -41.8874 C.3       5 UNK        -0.1800 
     49 N           1.0309  -12.6282  -44.1518 N.am      5 UNK        -0.5000 
     50 C           1.5440  -11.5940  -44.8379 C.2       4 UNK         0.5000 
     51 O           2.1107  -10.6348  -44.3135 O.2       4 UNK        -0.5000 
     52 CA          1.4540  -11.6589  -46.3762 C.3       4 UNK         0.1400 
     53 CB          2.8499  -11.9026  -46.9724 C.3       4 UNK        -0.1800 
     54 N           0.5605  -12.7174  -46.8481 N.am      4 UNK        -0.5000 
     55 C          -0.7706  -12.6126  -46.9524 C.2       3 UNK         0.5000 
     56 O          -1.3958  -11.5749  -46.7334 O.2       3 UNK        -0.5000 
     57 CA         -1.5329  -13.8989  -47.3285 C.3       3 UNK         0.1400 
     58 CB         -1.7378  -13.9953  -48.8479 C.3       3 UNK        -0.1800 
     59 N          -0.8714  -15.1151  -46.8439 N.am      3 UNK        -0.5000 
     60 C          -0.7804  -15.4546  -45.5498 C.2       2 UNK         0.5000 
     61 O          -1.2420  -14.7765  -44.6329 O.2       2 UNK        -0.5000 
     62 CA         -0.0123  -16.7437  -45.2176 C.3       2 UNK         0.1400 
     63 CB         -0.9517  -17.9576  -45.2706 C.3       2 UNK        -0.1800 
     64 N           1.1479  -16.9608  -46.0871 N.am      2 UNK        -0.5000 
     65 C           2.2629  -16.2182  -46.0422 C.2       1 UNK         0.5000 
     66 O           2.4274  -15.2729  -45.2662 O.2       1 UNK        -0.5000 
     67 C          -0.6046  -22.6561  -46.7230 C.2       11 UNK         0.5000 
     68 O          -0.3313  -23.1342  -47.8231 O.2       11 UNK        -0.5000 
     69 N          -1.8558  -22.3230  -46.3578 N.am      12 UNK        -0.5000 
     70 CA         -3.0290  -22.3191  -47.2409 C.3       12 UNK         0.1400 
     71 CB         -4.2527  -21.8009  -46.4719 C.3       12 UNK        -0.1800 
     72 C          -3.3487  -23.6657  -47.9145 C.2       12 UNK         0.5000 
     73 O          -3.9469  -23.6705  -48.9898 O.2       12 UNK        -0.5000 
     74 N          -2.8938  -24.7730  -47.3122 N.am      13 UNK        -0.5000 
     75 CA         -2.9624  -26.1267  -47.8651 C.3       13 UNK         0.1400 
     76 CB         -2.4267  -27.1138  -46.8170 C.3       13 UNK        -0.1800 
     77 C          -2.2106  -26.2985  -49.2035 C.2       13 UNK         0.5000 
     78 O          -2.5466  -27.2052  -49.9663 O.2       13 UNK        -0.5000 
     79 N          -1.2259  -25.4291  -49.4780 N.am      14 UNK        -0.5000 
     80 CA         -0.4884  -25.3883  -50.7407 C.3       14 UNK         0.1400 
     81 CB          0.8221  -24.6134  -50.5299 C.3       14 UNK        -0.1800 
     82 C          -1.2906  -24.7571  -51.8963 C.2       14 UNK         0.5000 
     83 O          -0.9469  -25.0021  -53.0532 O.2       14 UNK        -0.5000 
     84 N          -2.3145  -23.9462  -51.5729 N.am      15 UNK        -0.5000 
     85 CA         -3.1535  -23.1683  -52.4970 C.3       15 UNK         0.1400 
     86 CB         -4.0806  -24.1019  -53.3023 C.3       15 UNK        -0.1800 
     87 C          -2.3303  -22.2136  -53.3930 C.2       15 UNK         0.5000 
     88 O          -2.6066  -22.0776  -54.5864 O.2       15 UNK        -0.5000 
     89 N          -1.3076  -21.5807  -52.7983 N.am      16 UNK        -0.5000 
     90 CA         -0.3165  -20.7390  -53.4769 C.3       16 UNK         0.1400 
     91 CB          0.7880  -20.3687  -52.4797 C.3       16 UNK        -0.1800 
     92 C          -0.9003  -19.4682  -54.1239 C.2       16 UNK         0.5000 
     93 O          -0.3377  -18.9734  -55.1008 O.2       16 UNK        -0.5000 
     94 N          -2.0351  -18.9881  -53.5987 N.am      17 UNK        -0.5000 
     95 CA         -2.8129  -17.8717  -54.1407 C.3       17 UNK         0.1400 
     96 CB         -3.5751  -17.1978  -52.9883 C.3       17 UNK        -0.1800 
     97 C          -3.7660  -18.2929  -55.2845 C.2       17 UNK         0.5000 
     98 O          -4.6500  -17.5164  -55.6467 O.2       17 UNK        -0.5000 
     99 N          -3.6012  -19.5151  -55.8133 N.am      18 UNK        -0.5000 
    100 CA        -4.3245  -20.1726  -56.9105 C.3       18 UNK         0.1400 
    101 CB        -4.3312  -19.3210  -58.1948 C.3       18 UNK        -0.1800 
    102 C         -5.7390  -20.6539  -56.5402 C.2       18 UNK         0.5000 
    103 O         -6.1689  -21.6935  -57.0426 O.2       18 UNK        -0.5000 
    104 N         -6.4296  -19.9244  -55.6565 N.am      19 UNK        -0.5000 
    105 CA        -7.6763  -20.3452  -55.0225 C.3       19 UNK         0.1400 
    106 CB        -8.2784  -19.1505  -54.2666 C.3       19 UNK        -0.1800 
    107 C         -7.4199  -21.5122  -54.0536 C.2       19 UNK         0.5000 
    108 O         -6.4337  -21.4755  -53.3155 O.2       19 UNK        -0.5000 
    109 N         -8.3264  -22.4979  -54.0311 N.am      20 UNK        -0.5000 
    110 CA        -8.2352  -23.6923  -53.1811 C.3       20 UNK         0.1400 
    111 CB        -9.3456  -24.6780  -53.5751 C.3       20 UNK        -0.1800 
    112 C         -8.2948  -23.3854  -51.6711 C.2       20 UNK         0.5000 
    113 O         -7.6786  -24.0980  -50.8793 O.2       20 UNK        -0.5000 
    114 N         -9.0134  -22.3141  -51.3091 N.am      21 UNK        -0.5000 
    115 CA        -9.0796  -21.7696  -49.9512 C.3       21 UNK         0.1400 
    116 CB       -10.4132  -21.0219  -49.7914 C.3       21 UNK        -0.1800 
    117 C         -7.8957  -20.8355  -49.6211 C.2       21 UNK         0.5000 
    118 O         -7.7329  -20.4613  -48.4596 O.2       21 UNK        -0.5000 
    119 N         -7.1056  -20.4622  -50.6383 N.am      22 UNK        -0.5000 
    120 CA        -5.9567  -19.5465  -50.5680 C.3       22 UNK         0.1400 
    121 C         -6.3206  -18.0601  -50.2583 C.2       22 UNK         0.5000 
    122 N         -7.5638  -17.6350  -50.4496 N.am      22 UNK        -0.7600 
    123 O         -5.4697  -17.2694  -49.8637 O.2       22 UNK        -0.5000 
    124 C124       -4.8136  -20.1130  -49.6821 C.3       23 UNK        -0.0398 
    125 S125       -3.1513  -19.8176  -50.3733 S.3       23 UNK        -0.2404 
    126 C126       -2.4403  -18.7176  -49.1116 C.3       23 UNK        -0.0205 
    127 H127        7.2171  -18.2422  -45.3670 H         1 UNK         0.0600 
    128 H128        6.6669  -16.6978  -44.7134 H         1 UNK         0.0600 
    129 H129        7.7720  -16.7277  -46.0885 H         1 UNK         0.0600 
    130 H130        4.5387  -16.2534  -45.3042 H         1 UNK         0.3000 
    131 H131        3.1875  -17.5968  -47.3819 H         1 UNK         0.0600 
    132 H132        4.1661  -16.1001  -48.9919 H         1 UNK         0.0800 
    133 H133        4.1271  -14.7517  -47.9074 H         1 UNK         0.0800 
    134 H134        1.1086  -15.6895  -51.0901 H         1 UNK         0.0800 
    135 H135        2.6865  -16.3896  -50.8471 H         1 UNK         0.0800 
    136 H136       -0.9071  -16.6314  -50.0055 H         1 UNK         0.1150 
    137 H137       -0.6339  -20.6362  -48.5431 H         1 UNK         0.1150 
    138 H138        2.9311  -18.4950  -49.5655 H         1 UNK         0.1150 
    139 H139        1.5326  -21.8256  -48.8393 H         1 UNK         0.0800 
    140 H140        2.9579  -20.9457  -49.2701 H         1 UNK         0.0800 
    141 H141        0.4152  -20.2853  -46.2724 H         1 UNK         0.0800 
    142 H142        1.4331  -20.5936  -44.9156 H         1 UNK         0.0800 
    143 H143        1.3005  -23.1648  -45.8868 H         1 UNK         0.0600 
    144 H144        0.0897  -21.8340  -43.6998 H         1 UNK         0.3000 
    145 H145       -1.9349  -24.4052  -42.4450 H         1 UNK         0.0600 
    146 H146       -0.4975  -24.4662  -40.4230 H         1 UNK         0.0600 
    147 H147        0.2563  -25.3822  -41.7174 H         1 UNK         0.0600 
    148 H148        0.8508  -23.7729  -41.3255 H         1 UNK         0.0600 
    149 H149       -0.9746  -22.1127  -41.1220 H         1 UNK         0.3000 
    150 H150       -2.5014  -19.5143  -42.8047 H         1 UNK         0.0600 
    151 H151       -3.7673  -20.7250  -40.2885 H         1 UNK         0.0600 
    152 H152       -4.6230  -20.3635  -41.7829 H         1 UNK         0.0600 
    153 H153       -3.9339  -19.0558  -40.8360 H         1 UNK         0.0600 
    154 H154       -1.5898  -19.4987  -40.1651 H         1 UNK         0.3000 
    155 H155        0.4975  -18.3926  -39.8539 H         1 UNK         0.0600 
    156 H156        1.5947  -21.2662  -39.8572 H         1 UNK         0.0600 
    157 H157        0.2470  -20.6868  -38.8860 H         1 UNK         0.0600 
    158 H158        1.8625  -20.0730  -38.5869 H         1 UNK         0.0600 
    159 H159        2.9654  -19.5171  -40.8639 H         1 UNK         0.3000 
    160 H160        4.5559  -17.8195  -41.5164 H         1 UNK         0.0600 
    161 H161        3.8652  -19.6181  -43.1203 H         1 UNK         0.0600 
    162 H162        4.9769  -18.5105  -43.8954 H         1 UNK         0.0600 
    163 H163        3.2474  -18.4179  -44.2408 H         1 UNK         0.0600 
    164 H164        3.1386  -15.8321  -43.1820 H         1 UNK         0.3000 
    165 H165        5.2551  -13.3197  -42.1447 H         1 UNK         0.0600 
    166 H166        5.6278  -12.6065  -44.4709 H         1 UNK         0.0600 
    167 H167        6.6885  -13.9595  -44.1111 H         1 UNK         0.0600 
    168 H168        5.2400  -14.2094  -45.0802 H         1 UNK         0.0600 
    169 H169        3.0711  -13.8193  -44.0888 H         1 UNK         0.3000 
    170 H170        0.6231  -13.8428  -42.5467 H         1 UNK         0.0600 
    171 H171        0.3486  -12.1041  -40.8365 H         1 UNK         0.0600 
    172 H172        0.9144  -10.8547  -41.9347 H         1 UNK         0.0600 
    173 H173       -0.6142  -11.6793  -42.2415 H         1 UNK         0.0600 
    174 H174        0.5698  -13.3544  -44.6831 H         1 UNK         0.3000 
    175 H175        1.0900  -10.6929  -46.7321 H         1 UNK         0.0600 
    176 H176        3.5387  -11.1028  -46.6977 H         1 UNK         0.0600 
    177 H177        3.2795  -12.8396  -46.6166 H         1 UNK         0.0600 
    178 H178        2.8149  -11.9401  -48.0613 H         1 UNK         0.0600 
    179 H179        0.9910  -13.6038  -47.0710 H         1 UNK         0.3000 
    180 H180       -2.5182  -13.8421  -46.8608 H         1 UNK         0.0600 
    181 H181       -0.7915  -14.0798  -49.3819 H         1 UNK         0.0600 
    182 H182       -2.2485  -13.1098  -49.2282 H         1 UNK         0.0600 
    183 H183       -2.3518  -14.8576  -49.1082 H         1 UNK         0.0600 
    184 H184       -0.4443  -15.7127  -47.5364 H         1 UNK         0.3000 
    185 H185        0.3455  -16.6470  -44.1911 H         1 UNK         0.0600 
    186 H186       -1.8796  -17.7611  -44.7317 H         1 UNK         0.0600 
    187 H187       -1.2161  -18.2240  -46.2933 H         1 UNK         0.0600 
    188 H188       -0.4938  -18.8227  -44.7958 H         1 UNK         0.0600 
    189 H189        1.0807  -17.7131  -46.7575 H         1 UNK         0.3000 
    190 H190       -2.0247  -22.0207  -45.4041 H         1 UNK         0.3000 
    191 H191       -2.8125  -21.6150  -48.0437 H         1 UNK         0.0600 
    192 H192       -4.0741  -20.8044  -46.0675 H         1 UNK         0.0600 
    193 H193       -5.1284  -21.7374  -47.1190 H         1 UNK         0.0600 
    194 H194       -4.5120  -22.4605  -45.6433 H         1 UNK         0.0600 
    195 H195       -2.3830  -24.6659  -46.4468 H         1 UNK         0.3000 
    196 H196       -4.0136  -26.3563  -48.0504 H         1 UNK         0.0600 
    197 H197       -2.4824  -28.1407  -47.1805 H         1 UNK         0.0600 
    198 H198       -3.0062  -27.0643  -45.8950 H         1 UNK         0.0600 
    199 H199       -1.3844  -26.9080  -46.5690 H         1 UNK         0.0600 
    200 H200       -0.9974  -24.7068  -48.8006 H         1 UNK         0.3000 
    201 H201       -0.2361  -26.4110  -51.0287 H         1 UNK         0.0600 
    202 H202        1.4457  -24.6514  -51.4240 H         1 UNK         0.0600 
    203 H203        1.4041  -25.0312  -49.7083 H         1 UNK         0.0600 
    204 H204        0.6347  -23.5623  -50.3091 H         1 UNK         0.0600 
    205 H205       -2.5557  -23.8517  -50.5931 H         1 UNK         0.3000 
    206 H206       -3.7893  -22.5326  -51.8788 H         1 UNK         0.0600 
    207 H207       -4.6904  -24.7151  -52.6387 H         1 UNK         0.0600 
    208 H208       -4.7630  -23.5295  -53.9312 H         1 UNK         0.0600 
    209 H209       -3.5178  -24.7685  -53.9561 H         1 UNK         0.0600 
    210 H210       -1.1626  -21.7351  -51.8115 H         1 UNK         0.3000 
    211 H211        0.1292  -21.3376  -54.2739 H         1 UNK         0.0600 
    212 H212        1.2279  -21.2532  -52.0183 H         1 UNK         0.0600 
    213 H213        0.3968  -19.7317  -51.6884 H         1 UNK         0.0600 
    214 H214        1.5930  -19.8207  -52.9706 H         1 UNK         0.0600 
    215 H215       -2.4189  -19.4548  -52.7881 H         1 UNK         0.3000 
    216 H216       -2.1243  -17.1339  -54.5572 H         1 UNK         0.0600 
    217 H217       -4.0623  -16.2805  -53.3206 H         1 UNK         0.0600 
    218 H218       -2.9059  -16.9301  -52.1700 H         1 UNK         0.0600 
    219 H219       -4.3483  -17.8507  -52.5881 H         1 UNK         0.0600 
    220 H220       -2.9130  -20.1139  -55.3717 H         1 UNK         0.3000 
    221 H221       -3.7467  -21.0729  -57.1260 H         1 UNK         0.0600 
    222 H222       -4.9409  -18.4235  -58.0892 H         1 UNK         0.0600 
    223 H223       -3.3224  -19.0136  -58.4703 H         1 UNK         0.0600 
    224 H224       -4.7380  -19.8894  -59.0320 H         1 UNK         0.0600 
    225 H225       -6.0024  -19.0708  -55.3193 H         1 UNK         0.3000 
    226 H226       -8.3749  -20.6636  -55.7990 H         1 UNK         0.0600 
    227 H227       -9.2189  -19.4233  -53.7862 H         1 UNK         0.0600 
    228 H228       -7.6057  -18.7836  -53.4899 H         1 UNK         0.0600 
    229 H229       -8.4886  -18.3223  -54.9436 H         1 UNK         0.0600 
    230 H230       -9.1150  -22.4550  -54.6609 H         1 UNK         0.3000 
    231 H231       -7.2723  -24.1680  -53.3786 H         1 UNK         0.0600 
    232 H232      -10.3372  -24.2482  -53.4273 H         1 UNK         0.0600 
    233 H233       -9.2900  -25.5885  -52.9768 H         1 UNK         0.0600 
    234 H234       -9.2589  -24.9730  -54.6210 H         1 UNK         0.0600 
    235 H235       -9.5028  -21.8017  -52.0279 H         1 UNK         0.3000 
    236 H236       -9.0604  -22.5909  -49.2318 H         1 UNK         0.0600 
    237 H237      -11.2602  -21.6846  -49.9702 H         1 UNK         0.0600 
    238 H238      -10.5218  -20.6252  -48.7810 H         1 UNK         0.0600 
    239 H239      -10.4911  -20.1826  -50.4836 H         1 UNK         0.0600 
    240 H240       -7.2595  -20.8741  -51.5505 H         1 UNK         0.3000 
    241 H241       -5.5942  -19.5260  -51.5951 H         1 UNK         0.0600 
    242 H242       -7.7894  -16.6725  -50.2542 H         1 UNK         0.3800 
    243 H243       -8.2816  -18.2637  -50.7692 H         1 UNK         0.3800 
    244 H244       -4.8885  -19.7399  -48.6598 H         1 UNK         0.0800 
    245 H245       -4.9093  -21.1963  -49.6035 H         1 UNK         0.0800 
    246 H246       -2.8897  -17.7275  -49.2001 H         1 UNK         0.0800 
    247 H247       -2.6895  -19.0849  -48.1154 H         1 UNK         0.0800 
@<TRIPOS>BOND
     1    1    2 1    
     2    1  127 1    
     3    1  128 1    
     4    1  129 1    
     5    2    3 2    
     6    2    4 am   BACKBONE|DICT|INTERRES
     7    4    5 1    
     8    4  130 1    
     9    5    6 1    
    10    5   65 1    
    11    5  131 1    
    12    6    7 1    
    13    6  132 1    
    14    6  133 1    
    15    7    8 1    
    16    8    9 1    
    17    8  134 1    
    18    8  135 1    
    19    9   10 ar   
    20    9   14 ar   
    21   10   11 ar   
    22   10  136 1    
    23   11   12 ar   
    24   11  126 1    
    25   12   13 ar   
    26   12  137 1    
    27   13   14 ar   
    28   13   15 1    
    29   14  138 1    
    30   15   16 1    
    31   15  139 1    
    32   15  140 1    
    33   16   17 1    
    34   17   18 1    
    35   17  141 1    
    36   17  142 1    
    37   18   19 1    
    38   18   67 1    
    39   18  143 1    
    40   19   20 am   BACKBONE|DICT|INTERRES
    41   19  144 1    
    42   20   21 2    
    43   20   22 1    
    44   22   23 1    
    45   22   24 1    
    46   22  145 1    
    47   23  146 1    
    48   23  147 1    
    49   23  148 1    
    50   24   25 am   BACKBONE|DICT|INTERRES
    51   24  149 1    
    52   25   26 2    
    53   25   27 1    
    54   27   28 1    
    55   27   29 1    
    56   27  150 1    
    57   28  151 1    
    58   28  152 1    
    59   28  153 1    
    60   29   30 am   BACKBONE|DICT|INTERRES
    61   29  154 1    
    62   30   31 2    
    63   30   32 1    
    64   32   33 1    
    65   32   34 1    
    66   32  155 1    
    67   33  156 1    
    68   33  157 1    
    69   33  158 1    
    70   34   35 am   BACKBONE|DICT|INTERRES
    71   34  159 1    
    72   35   36 2    
    73   35   37 1    
    74   37   38 1    
    75   37   39 1    
    76   37  160 1    
    77   38  161 1    
    78   38  162 1    
    79   38  163 1    
    80   39   40 am   BACKBONE|DICT|INTERRES
    81   39  164 1    
    82   40   41 2    
    83   40   42 1    
    84   42   43 1    
    85   42   44 1    
    86   42  165 1    
    87   43  166 1    
    88   43  167 1    
    89   43  168 1    
    90   44   45 am   BACKBONE|DICT|INTERRES
    91   44  169 1    
    92   45   46 2    
    93   45   47 1    
    94   47   48 1    
    95   47   49 1    
    96   47  170 1    
    97   48  171 1    
    98   48  172 1    
    99   48  173 1    
   100   49   50 am   BACKBONE|DICT|INTERRES
   101   49  174 1    
   102   50   51 2    
   103   50   52 1    
   104   52   53 1    
   105   52   54 1    
   106   52  175 1    
   107   53  176 1    
   108   53  177 1    
   109   53  178 1    
   110   54   55 am   BACKBONE|DICT|INTERRES
   111   54  179 1    
   112   55   56 2    
   113   55   57 1    
   114   57   58 1    
   115   57   59 1    
   116   57  180 1    
   117   58  181 1    
   118   58  182 1    
   119   58  183 1    
   120   59   60 am   BACKBONE|DICT|INTERRES
   121   59  184 1    
   122   60   61 2    
   123   60   62 1    
   124   62   63 1    
   125   62   64 1    
   126   62  185 1    
   127   63  186 1    
   128   63  187 1    
   129   63  188 1    
   130   64   65 am   BACKBONE|DICT|INTERRES
   131   64  189 1    
   132   65   66 2    
   133   67   68 2    
   134   67   69 am   BACKBONE|DICT|INTERRES
   135   69   70 1    
   136   69  190 1    
   137   70   71 1    
   138   70   72 1    
   139   70  191 1    
   140   71  192 1    
   141   71  193 1    
   142   71  194 1    
   143   72   73 2    
   144   72   74 am   BACKBONE|DICT|INTERRES
   145   74   75 1    
   146   74  195 1    
   147   75   76 1    
   148   75   77 1    
   149   75  196 1    
   150   76  197 1    
   151   76  198 1    
   152   76  199 1    
   153   77   78 2    
   154   77   79 am   BACKBONE|DICT|INTERRES
   155   79   80 1    
   156   79  200 1    
   157   80   81 1    
   158   80   82 1    
   159   80  201 1    
   160   81  202 1    
   161   81  203 1    
   162   81  204 1    
   163   82   83 2    
   164   82   84 am   BACKBONE|DICT|INTERRES
   165   84   85 1    
   166   84  205 1    
   167   85   86 1    
   168   85   87 1    
   169   85  206 1    
   170   86  207 1    
   171   86  208 1    
   172   86  209 1    
   173   87   88 2    
   174   87   89 am   BACKBONE|DICT|INTERRES
   175   89   90 1    
   176   89  210 1    
   177   90   91 1    
   178   90   92 1    
   179   90  211 1    
   180   91  212 1    
   181   91  213 1    
   182   91  214 1    
   183   92   93 2    
   184   92   94 am   BACKBONE|DICT|INTERRES
   185   94   95 1    
   186   94  215 1    
   187   95   96 1    
   188   95   97 1    
   189   95  216 1    
   190   96  217 1    
   191   96  218 1    
   192   96  219 1    
   193   97   98 2    
   194   97   99 am   BACKBONE|DICT|INTERRES
   195   99  100 1    
   196   99  220 1    
   197  100  101 1    
   198  100  102 1    
   199  100  221 1    
   200  101  222 1    
   201  101  223 1    
   202  101  224 1    
   203  102  103 2    
   204  102  104 am   BACKBONE|DICT|INTERRES
   205  104  105 1    
   206  104  225 1    
   207  105  106 1    
   208  105  107 1    
   209  105  226 1    
   210  106  227 1    
   211  106  228 1    
   212  106  229 1    
   213  107  108 2    
   214  107  109 am   BACKBONE|DICT|INTERRES
   215  109  110 1    
   216  109  230 1    
   217  110  111 1    
   218  110  112 1    
   219  110  231 1    
   220  111  232 1    
   221  111  233 1    
   222  111  234 1    
   223  112  113 2    
   224  112  114 am   BACKBONE|DICT|INTERRES
   225  114  115 1    
   226  114  235 1    
   227  115  116 1    
   228  115  117 1    
   229  115  236 1    
   230  116  237 1    
   231  116  238 1    
   232  116  239 1    
   233  117  118 2    
   234  117  119 am   BACKBONE|DICT|INTERRES
   235  119  120 1    
   236  119  240 1    
   237  120  121 1    
   238  120  124 1    
   239  120  241 1    
   240  121  122 am   BACKBONE|DICT|INTERRES
   241  121  123 2    
   242  122  242 1    
   243  122  243 1    
   244  124  125 1    
   245  124  244 1    
   246  124  245 1    
   247  125  126 1    
   248  126  246 1    
   249  126  247 1    
@<TRIPOS>SUBSTRUCTURE
     1 UNK         1 GROUP             0       ****    0 ROOT    
