@<TRIPOS>MOLECULE
3R540
247   249    1
SMALL
USER_CHARGES


@<TRIPOS>ATOM
      1 CA          6.2497  -17.8520  -44.5094 C.3       0 UNK        -0.1800 
      2 C           5.1402  -16.9922  -45.0956 C.2       0 UNK         0.5000 
      3 O           4.2615  -16.5436  -44.3613 O.2       0 UNK        -0.5000 
      4 N           5.1752  -16.7547  -46.4134 N.am      1 UNK        -0.5000 
      5 CA          4.2011  -15.9598  -47.1724 C.3       1 UNK         0.1400 
      6 C6          4.1818  -16.3877  -48.6647 C.3       23 UNK        -0.0398 
      7 S7          2.5381  -16.1899  -49.4339 S.3       23 UNK        -0.2404 
      8 C8          1.9540  -17.9142  -49.4453 C.3       23 UNK        -0.0205 
      9 C9          0.6604  -18.0610  -50.2287 C.ar      23 UNK        -0.0193 
     10 C10         0.6964  -18.3695  -51.5924 C.ar      23 UNK        -0.1150 
     11 C11        -0.4893  -18.5184  -52.3170 C.ar      23 UNK        -0.0193 
     12 C12        -1.7159  -18.3613  -51.6662 C.ar      23 UNK        -0.1150 
     13 C13        -1.7652  -18.0597  -50.3029 C.ar      23 UNK        -0.0193 
     14 C14        -0.5727  -17.9032  -49.5894 C.ar      23 UNK        -0.1150 
     15 C15        -3.1104  -17.8983  -49.6125 C.3       23 UNK        -0.0205 
     16 S16        -3.7338  -19.4837  -48.9692 S.3       23 UNK        -0.2404 
     17 C17        -2.7243  -19.6948  -47.4680 C.3       23 UNK        -0.0398 
     18 CA         -1.6028  -20.7586  -47.6104 C.3       11 UNK         0.1400 
     19 N          -0.4757  -20.4782  -46.7121 N.am      11 UNK        -0.5000 
     20 C           0.6595  -21.1876  -46.6218 C.2       10 UNK         0.5000 
     21 O           0.9274  -22.1465  -47.3424 O.2       10 UNK        -0.5000 
     22 CA          1.6341  -20.8081  -45.4892 C.3       10 UNK         0.1400 
     23 CB          2.5279  -19.6267  -45.8902 C.3       10 UNK        -0.1800 
     24 N           0.9448  -20.5088  -44.2325 N.am      10 UNK        -0.5000 
     25 C           0.2163  -21.3995  -43.5430 C.2       9 UNK         0.5000 
     26 O           0.1030  -22.5824  -43.8611 O.2       9 UNK        -0.5000 
     27 CA         -0.5684  -20.8685  -42.3321 C.3       9 UNK         0.1400 
     28 CB          0.3163  -20.8078  -41.0780 C.3       9 UNK        -0.1800 
     29 N          -1.1466  -19.5527  -42.6019 N.am      9 UNK        -0.5000 
     30 C          -2.1603  -19.3391  -43.4530 C.2       8 UNK         0.5000 
     31 O          -2.7486  -20.2391  -44.0542 O.2       8 UNK        -0.5000 
     32 CA         -2.5419  -17.8699  -43.7140 C.3       8 UNK         0.1400 
     33 CB         -3.4867  -17.3499  -42.6212 C.3       8 UNK        -0.1800 
     34 N          -1.3687  -16.9977  -43.8024 N.am      8 UNK        -0.5000 
     35 C          -0.4647  -17.0602  -44.7922 C.2       7 UNK         0.5000 
     36 O          -0.5590  -17.8235  -45.7489 O.2       7 UNK        -0.5000 
     37 CA          0.7781  -16.1617  -44.6905 C.3       7 UNK         0.1400 
     38 CB          0.5514  -14.8619  -45.4657 C.3       7 UNK        -0.1800 
     39 N           1.1745  -15.8597  -43.3172 N.am      7 UNK        -0.5000 
     40 C           1.5293  -16.7854  -42.4130 C.2       6 UNK         0.5000 
     41 O           1.5733  -17.9922  -42.6586 O.2       6 UNK        -0.5000 
     42 CA          1.8329  -16.2983  -40.9828 C.3       6 UNK         0.1400 
     43 CB          3.3508  -16.1870  -40.7759 C.3       6 UNK        -0.1800 
     44 N           1.2116  -15.0164  -40.6367 N.am      6 UNK        -0.5000 
     45 C          -0.0992  -14.7340  -40.6665 C.2       5 UNK         0.5000 
     46 O          -0.9692  -15.5504  -40.9760 O.2       5 UNK        -0.5000 
     47 CA         -0.5072  -13.2784  -40.3547 C.3       5 UNK         0.1400 
     48 CB          0.5578  -12.4882  -39.5611 C.3       5 UNK        -0.1800 
     49 N          -0.8839  -12.5393  -41.5661 N.am      5 UNK        -0.5000 
     50 C          -0.1455  -12.3641  -42.6731 C.2       4 UNK         0.5000 
     51 O           0.9691  -12.8675  -42.8359 O.2       4 UNK        -0.5000 
     52 CA         -0.7630  -11.5182  -43.8100 C.3       4 UNK         0.1400 
     53 CB         -1.8597  -10.5331  -43.3449 C.3       4 UNK        -0.1800 
     54 N           0.2729  -10.8373  -44.5944 N.am      4 UNK        -0.5000 
     55 C           1.0993   -9.8666  -44.1806 C.2       3 UNK         0.5000 
     56 O           1.0314   -9.3192  -43.0781 O.2       3 UNK        -0.5000 
     57 CA          2.2306   -9.4902  -45.1598 C.3       3 UNK         0.1400 
     58 CB          2.8095   -8.0910  -44.8841 C.3       3 UNK        -0.1800 
     59 N           3.3106  -10.4729  -45.0749 N.am      3 UNK        -0.5000 
     60 C           3.2708  -11.7028  -45.6023 C.2       2 UNK         0.5000 
     61 O           2.3659  -12.0803  -46.3511 O.2       2 UNK        -0.5000 
     62 CA          4.4228  -12.6505  -45.2011 C.3       2 UNK         0.1400 
     63 CB          4.5789  -12.7353  -43.6706 C.3       2 UNK        -0.1800 
     64 N           4.2438  -14.0129  -45.6975 N.am      2 UNK        -0.5000 
     65 C           4.4293  -14.4431  -46.9498 C.2       1 UNK         0.5000 
     66 O           4.8176  -13.7185  -47.8682 O.2       1 UNK        -0.5000 
     67 C          -2.1626  -22.1804  -47.3981 C.2       11 UNK         0.5000 
     68 O          -2.3409  -22.9204  -48.3644 O.2       11 UNK        -0.5000 
     69 N          -2.3891  -22.5468  -46.1279 N.am      12 UNK        -0.5000 
     70 CA         -2.8513  -23.8732  -45.7241 C.3       12 UNK         0.1400 
     71 CB         -3.2417  -23.8505  -44.2386 C.3       12 UNK        -0.1800 
     72 C          -1.8156  -24.9767  -46.0107 C.2       12 UNK         0.5000 
     73 O          -2.1816  -26.0210  -46.5502 O.2       12 UNK        -0.5000 
     74 N          -0.5432  -24.7197  -45.6746 N.am      13 UNK        -0.5000 
     75 CA          0.5802  -25.6381  -45.8812 C.3       13 UNK         0.1400 
     76 CB          1.8295  -25.0861  -45.1785 C.3       13 UNK        -0.1800 
     77 C           0.8747  -25.9199  -47.3664 C.2       13 UNK         0.5000 
     78 O           1.1589  -27.0636  -47.7235 O.2       13 UNK        -0.5000 
     79 N           0.7750  -24.8824  -48.2072 N.am      14 UNK        -0.5000 
     80 CA          0.9355  -24.9626  -49.6605 C.3       14 UNK         0.1400 
     81 CB          1.2590  -23.5582  -50.1978 C.3       14 UNK        -0.1800 
     82 C          -0.3020  -25.5296  -50.3843 C.2       14 UNK         0.5000 
     83 O          -0.2388  -25.7424  -51.5960 O.2       14 UNK        -0.5000 
     84 N          -1.4169  -25.7047  -49.6596 N.am      15 UNK        -0.5000 
     85 CA         -2.7729  -26.0555  -50.1020 C.3       15 UNK         0.1400 
     86 CB         -2.8132  -27.3986  -50.8543 C.3       15 UNK        -0.1800 
     87 C          -3.4626  -24.9354  -50.9036 C.2       15 UNK         0.5000 
     88 O          -4.6383  -24.6650  -50.6617 O.2       15 UNK        -0.5000 
     89 N          -2.7205  -24.2973  -51.8192 N.am      16 UNK        -0.5000 
     90 CA         -3.0231  -23.0467  -52.5202 C.3       16 UNK         0.1400 
     91 CB         -2.8757  -21.8613  -51.5490 C.3       16 UNK        -0.1800 
     92 C          -4.3697  -23.0330  -53.2698 C.2       16 UNK         0.5000 
     93 O          -5.0467  -22.0030  -53.2978 O.2       16 UNK        -0.5000 
     94 N          -4.7231  -24.1775  -53.8725 N.am      17 UNK        -0.5000 
     95 CA         -5.9827  -24.4419  -54.5780 C.3       17 UNK         0.1400 
     96 CB         -6.0949  -23.5767  -55.8522 C.3       17 UNK        -0.1800 
     97 C          -7.2050  -24.3263  -53.6408 C.2       17 UNK         0.5000 
     98 O          -8.1859  -23.6610  -53.9744 O.2       17 UNK        -0.5000 
     99 N          -7.0953  -24.9815  -52.4751 N.am      18 UNK        -0.5000 
    100 CA        -8.0391  -24.9844  -51.3520 C.3       18 UNK         0.1400 
    101 CB        -9.4192  -25.5401  -51.7648 C.3       18 UNK        -0.1800 
    102 C         -8.1048  -23.6104  -50.6560 C.2       18 UNK         0.5000 
    103 O         -9.1915  -23.0713  -50.4378 O.2       18 UNK        -0.5000 
    104 N         -6.9175  -23.0850  -50.3197 N.am      19 UNK        -0.5000 
    105 CA        -6.6546  -21.8106  -49.6452 C.3       19 UNK         0.1400 
    106 CB        -7.0984  -21.8770  -48.1696 C.3       19 UNK        -0.1800 
    107 C         -7.2299  -20.5970  -50.4050 C.2       19 UNK         0.5000 
    108 O         -7.8552  -19.7232  -49.8000 O.2       19 UNK        -0.5000 
    109 N         -7.0268  -20.5877  -51.7271 N.am      20 UNK        -0.5000 
    110 CA        -7.4767  -19.5487  -52.6419 C.3       20 UNK         0.1400 
    111 CB        -8.1395  -20.2178  -53.8625 C.3       20 UNK        -0.1800 
    112 C         -6.2785  -18.6497  -52.9912 C.2       20 UNK         0.5000 
    113 O         -5.8506  -17.8627  -52.1461 O.2       20 UNK        -0.5000 
    114 N         -5.7675  -18.7645  -54.2220 N.am      21 UNK        -0.5000 
    115 CA        -4.6871  -17.9404  -54.7623 C.3       21 UNK         0.1400 
    116 CB        -5.2911  -16.7432  -55.5209 C.3       21 UNK        -0.1800 
    117 C         -3.7189  -18.7677  -55.6273 C.2       21 UNK         0.5000 
    118 O         -3.0911  -18.2134  -56.5302 O.2       21 UNK        -0.5000 
    119 N         -3.6030  -20.0730  -55.3392 N.am      22 UNK        -0.5000 
    120 CA        -2.6953  -21.0245  -56.0150 C.3       22 UNK         0.1400 
    121 C         -3.0602  -21.3468  -57.4981 C.2       22 UNK         0.5000 
    122 N         -4.2536  -21.0170  -57.9763 N.am      22 UNK        -0.7600 
    123 O         -2.2652  -21.9402  -58.2220 O.2       22 UNK        -0.5000 
    124 C124       -1.1861  -20.6748  -55.8351 C.3       23 UNK        -0.0398 
    125 S125       -0.6731  -20.6264  -54.0837 S.3       23 UNK        -0.2404 
    126 C126       -0.4547  -18.8435  -53.8016 C.3       23 UNK        -0.0205 
    127 H127        6.9536  -18.1833  -45.2731 H         1 UNK         0.0600 
    128 H128        5.8242  -18.7347  -44.0320 H         1 UNK         0.0600 
    129 H129        6.8016  -17.2887  -43.7570 H         1 UNK         0.0600 
    130 H130        5.9493  -17.1184  -46.9508 H         1 UNK         0.3000 
    131 H131        3.2176  -16.1894  -46.7590 H         1 UNK         0.0600 
    132 H132        4.9229  -15.8479  -49.2561 H         1 UNK         0.0800 
    133 H133        4.4659  -17.4370  -48.7548 H         1 UNK         0.0800 
    134 H134        2.7181  -18.5617  -49.8782 H         1 UNK         0.0800 
    135 H135        1.8058  -18.2521  -48.4199 H         1 UNK         0.0800 
    136 H136        1.6482  -18.4931  -52.0898 H         1 UNK         0.1150 
    137 H137       -2.6364  -18.4847  -52.2190 H         1 UNK         0.1150 
    138 H138       -0.6010  -17.6645  -48.5354 H         1 UNK         0.1150 
    139 H139       -3.0452  -17.1629  -48.8092 H         1 UNK         0.0800 
    140 H140       -3.8391  -17.5022  -50.3211 H         1 UNK         0.0800 
    141 H141       -3.3900  -19.9203  -46.6335 H         1 UNK         0.0800 
    142 H142       -2.2992  -18.7237  -47.2300 H         1 UNK         0.0800 
    143 H143       -1.2018  -20.7100  -48.6252 H         1 UNK         0.0600 
    144 H144       -0.5704  -19.6529  -46.1264 H         1 UNK         0.3000 
    145 H145        2.2822  -21.6680  -45.3093 H         1 UNK         0.0600 
    146 H146        3.1155  -19.8650  -46.7775 H         1 UNK         0.0600 
    147 H147        1.9424  -18.7377  -46.1144 H         1 UNK         0.0600 
    148 H148        3.2267  -19.3747  -45.0926 H         1 UNK         0.0600 
    149 H149        1.0248  -19.5642  -43.8710 H         1 UNK         0.3000 
    150 H150       -1.3858  -21.5651  -42.1333 H         1 UNK         0.0600 
    151 H151       -0.2483  -20.4580  -40.2136 H         1 UNK         0.0600 
    152 H152        1.1708  -20.1447  -41.2115 H         1 UNK         0.0600 
    153 H153        0.7069  -21.7961  -40.8326 H         1 UNK         0.0600 
    154 H154       -0.6744  -18.7568  -42.1971 H         1 UNK         0.3000 
    155 H155       -3.0700  -17.8274  -44.6689 H         1 UNK         0.0600 
    156 H156       -3.0128  -17.3614  -41.6389 H         1 UNK         0.0600 
    157 H157       -4.3864  -17.9634  -42.5594 H         1 UNK         0.0600 
    158 H158       -3.8033  -16.3274  -42.8276 H         1 UNK         0.0600 
    159 H159       -1.2048  -16.3703  -43.0237 H         1 UNK         0.3000 
    160 H160        1.6103  -16.6923  -45.1514 H         1 UNK         0.0600 
    161 H161        0.4190  -15.0584  -46.5305 H         1 UNK         0.0600 
    162 H162        1.4049  -14.1975  -45.3583 H         1 UNK         0.0600 
    163 H163       -0.3339  -14.3335  -45.1140 H         1 UNK         0.0600 
    164 H164        1.1651  -14.8832  -43.0398 H         1 UNK         0.3000 
    165 H165        1.4433  -17.0506  -40.2944 H         1 UNK         0.0600 
    166 H166        3.5935  -15.9294  -39.7449 H         1 UNK         0.0600 
    167 H167        3.8458  -17.1331  -40.9999 H         1 UNK         0.0600 
    168 H168        3.7888  -15.4288  -41.4269 H         1 UNK         0.0600 
    169 H169        1.8457  -14.2615  -40.4197 H         1 UNK         0.3000 
    170 H170       -1.4018  -13.3401  -39.7333 H         1 UNK         0.0600 
    171 H171        0.1701  -11.5153  -39.2587 H         1 UNK         0.0600 
    172 H172        0.8427  -13.0158  -38.6499 H         1 UNK         0.0600 
    173 H173        1.4633  -12.3104  -40.1424 H         1 UNK         0.0600 
    174 H174       -1.8022  -12.1194  -41.5439 H         1 UNK         0.3000 
    175 H175       -1.2343  -12.2260  -44.4921 H         1 UNK         0.0600 
    176 H176       -1.5091   -9.8732  -42.5507 H         1 UNK         0.0600 
    177 H177       -2.7359  -11.0636  -42.9711 H         1 UNK         0.0600 
    178 H178       -2.1985   -9.9070  -44.1705 H         1 UNK         0.0600 
    179 H179        0.5101  -11.2845  -45.4722 H         1 UNK         0.3000 
    180 H180        1.8207   -9.4874  -46.1722 H         1 UNK         0.0600 
    181 H181        2.0278   -7.3315  -44.9261 H         1 UNK         0.0600 
    182 H182        3.5616   -7.8236  -45.6265 H         1 UNK         0.0600 
    183 H183        3.2751   -8.0298  -43.8996 H         1 UNK         0.0600 
    184 H184        4.0710  -10.2379  -44.4539 H         1 UNK         0.3000 
    185 H185        5.3451  -12.2478  -45.6244 H         1 UNK         0.0600 
    186 H186        3.6630  -13.0880  -43.1945 H         1 UNK         0.0600 
    187 H187        5.3798  -13.4218  -43.3945 H         1 UNK         0.0600 
    188 H188        4.8268  -11.7680  -43.2332 H         1 UNK         0.0600 
    189 H189        3.9801  -14.7102  -45.0082 H         1 UNK         0.3000 
    190 H190       -2.2328  -21.8722  -45.3878 H         1 UNK         0.3000 
    191 H191       -3.7480  -24.1026  -46.3038 H         1 UNK         0.0600 
    192 H192       -2.3924  -23.6087  -43.5994 H         1 UNK         0.0600 
    193 H193       -3.6253  -24.8210  -43.9216 H         1 UNK         0.0600 
    194 H194       -4.0220  -23.1134  -44.0481 H         1 UNK         0.0600 
    195 H195       -0.3317  -23.8490  -45.1932 H         1 UNK         0.3000 
    196 H196        0.3201  -26.5885  -45.4108 H         1 UNK         0.0600 
    197 H197        2.6755  -25.7647  -45.2935 H         1 UNK         0.0600 
    198 H198        1.6572  -24.9590  -44.1096 H         1 UNK         0.0600 
    199 H199        2.1250  -24.1195  -45.5872 H         1 UNK         0.0600 
    200 H200        0.5960  -23.9556  -47.8269 H         1 UNK         0.3000 
    201 H201        1.7784  -25.6187  -49.8866 H         1 UNK         0.0600 
    202 H202        2.1540  -23.1513  -49.7268 H         1 UNK         0.0600 
    203 H203        0.4387  -22.8618  -50.0156 H         1 UNK         0.0600 
    204 H204        1.4394  -23.5776  -51.2733 H         1 UNK         0.0600 
    205 H205       -1.3584  -25.4533  -48.6812 H         1 UNK         0.3000 
    206 H206       -3.3503  -26.1786  -49.1845 H         1 UNK         0.0600 
    207 H207       -3.8429  -27.6984  -51.0524 H         1 UNK         0.0600 
    208 H208       -2.3009  -27.3493  -51.8152 H         1 UNK         0.0600 
    209 H209       -2.3509  -28.1920  -50.2670 H         1 UNK         0.0600 
    210 H210       -1.7804  -24.6585  -51.9545 H         1 UNK         0.3000 
    211 H211       -2.2573  -22.9443  -53.2880 H         1 UNK         0.0600 
    212 H212       -3.5755  -21.9386  -50.7195 H         1 UNK         0.0600 
    213 H213       -3.0580  -20.9089  -52.0466 H         1 UNK         0.0600 
    214 H214       -1.8704  -21.8168  -51.1298 H         1 UNK         0.0600 
    215 H215       -4.0939  -24.9633  -53.7860 H         1 UNK         0.3000 
    216 H216       -5.9445  -25.4843  -54.8974 H         1 UNK         0.0600 
    217 H217       -6.9790  -23.8478  -56.4300 H         1 UNK         0.0600 
    218 H218       -5.2297  -23.7170  -56.5000 H         1 UNK         0.0600 
    219 H219       -6.1702  -22.5141  -55.6239 H         1 UNK         0.0600 
    220 H220       -6.2130  -25.4358  -52.2829 H         1 UNK         0.3000 
    221 H221       -7.6246  -25.6738  -50.6148 H         1 UNK         0.0600 
    222 H222       -9.9425  -24.8736  -52.4506 H         1 UNK         0.0600 
    223 H223       -9.3247  -26.5127  -52.2474 H         1 UNK         0.0600 
    224 H224      -10.0593  -25.6719  -50.8918 H         1 UNK         0.0600 
    225 H225       -6.0857  -23.6347  -50.5339 H         1 UNK         0.3000 
    226 H226       -5.5728  -21.6887  -49.6494 H         1 UNK         0.0600 
    227 H227       -6.6374  -22.7223  -47.6586 H         1 UNK         0.0600 
    228 H228       -6.8015  -20.9749  -47.6332 H         1 UNK         0.0600 
    229 H229       -8.1803  -21.9752  -48.0760 H         1 UNK         0.0600 
    230 H230       -6.4444  -21.3087  -52.1437 H         1 UNK         0.3000 
    231 H231       -8.2263  -18.9134  -52.1662 H         1 UNK         0.0600 
    232 H232       -7.4669  -20.9108  -54.3679 H         1 UNK         0.0600 
    233 H233       -9.0183  -20.7872  -53.5586 H         1 UNK         0.0600 
    234 H234       -8.4734  -19.4763  -54.5894 H         1 UNK         0.0600 
    235 H235       -6.1726  -19.4443  -54.8496 H         1 UNK         0.3000 
    236 H236       -4.0807  -17.5480  -53.9439 H         1 UNK         0.0600 
    237 H237       -5.8780  -17.0694  -56.3801 H         1 UNK         0.0600 
    238 H238       -5.9422  -16.1550  -54.8741 H         1 UNK         0.0600 
    239 H239       -4.5128  -16.0724  -55.8868 H         1 UNK         0.0600 
    240 H240       -4.1533  -20.4558  -54.5795 H         1 UNK         0.3000 
    241 H241       -2.8550  -21.9754  -55.5094 H         1 UNK         0.0600 
    242 H242       -4.4819  -21.2404  -58.9322 H         1 UNK         0.3800 
    243 H243       -4.9213  -20.5303  -57.4025 H         1 UNK         0.3800 
    244 H244       -0.5623  -21.4292  -56.3169 H         1 UNK         0.0800 
    245 H245       -0.9395  -19.7326  -56.3256 H         1 UNK         0.0800 
    246 H246       -1.2370  -18.2811  -54.3098 H         1 UNK         0.0800 
    247 H247        0.4893  -18.5222  -54.2442 H         1 UNK         0.0800 
@<TRIPOS>BOND
     1    1    2 1    
     2    1  127 1    
     3    1  128 1    
     4    1  129 1    
     5    2    3 2    
     6    2    4 am   BACKBONE|DICT|INTERRES
     7    4    5 1    
     8    4  130 1    
     9    5    6 1    
    10    5   65 1    
    11    5  131 1    
    12    6    7 1    
    13    6  132 1    
    14    6  133 1    
    15    7    8 1    
    16    8    9 1    
    17    8  134 1    
    18    8  135 1    
    19    9   10 ar   
    20    9   14 ar   
    21   10   11 ar   
    22   10  136 1    
    23   11   12 ar   
    24   11  126 1    
    25   12   13 ar   
    26   12  137 1    
    27   13   14 ar   
    28   13   15 1    
    29   14  138 1    
    30   15   16 1    
    31   15  139 1    
    32   15  140 1    
    33   16   17 1    
    34   17   18 1    
    35   17  141 1    
    36   17  142 1    
    37   18   19 1    
    38   18   67 1    
    39   18  143 1    
    40   19   20 am   BACKBONE|DICT|INTERRES
    41   19  144 1    
    42   20   21 2    
    43   20   22 1    
    44   22   23 1    
    45   22   24 1    
    46   22  145 1    
    47   23  146 1    
    48   23  147 1    
    49   23  148 1    
    50   24   25 am   BACKBONE|DICT|INTERRES
    51   24  149 1    
    52   25   26 2    
    53   25   27 1    
    54   27   28 1    
    55   27   29 1    
    56   27  150 1    
    57   28  151 1    
    58   28  152 1    
    59   28  153 1    
    60   29   30 am   BACKBONE|DICT|INTERRES
    61   29  154 1    
    62   30   31 2    
    63   30   32 1    
    64   32   33 1    
    65   32   34 1    
    66   32  155 1    
    67   33  156 1    
    68   33  157 1    
    69   33  158 1    
    70   34   35 am   BACKBONE|DICT|INTERRES
    71   34  159 1    
    72   35   36 2    
    73   35   37 1    
    74   37   38 1    
    75   37   39 1    
    76   37  160 1    
    77   38  161 1    
    78   38  162 1    
    79   38  163 1    
    80   39   40 am   BACKBONE|DICT|INTERRES
    81   39  164 1    
    82   40   41 2    
    83   40   42 1    
    84   42   43 1    
    85   42   44 1    
    86   42  165 1    
    87   43  166 1    
    88   43  167 1    
    89   43  168 1    
    90   44   45 am   BACKBONE|DICT|INTERRES
    91   44  169 1    
    92   45   46 2    
    93   45   47 1    
    94   47   48 1    
    95   47   49 1    
    96   47  170 1    
    97   48  171 1    
    98   48  172 1    
    99   48  173 1    
   100   49   50 am   BACKBONE|DICT|INTERRES
   101   49  174 1    
   102   50   51 2    
   103   50   52 1    
   104   52   53 1    
   105   52   54 1    
   106   52  175 1    
   107   53  176 1    
   108   53  177 1    
   109   53  178 1    
   110   54   55 am   BACKBONE|DICT|INTERRES
   111   54  179 1    
   112   55   56 2    
   113   55   57 1    
   114   57   58 1    
   115   57   59 1    
   116   57  180 1    
   117   58  181 1    
   118   58  182 1    
   119   58  183 1    
   120   59   60 am   BACKBONE|DICT|INTERRES
   121   59  184 1    
   122   60   61 2    
   123   60   62 1    
   124   62   63 1    
   125   62   64 1    
   126   62  185 1    
   127   63  186 1    
   128   63  187 1    
   129   63  188 1    
   130   64   65 am   BACKBONE|DICT|INTERRES
   131   64  189 1    
   132   65   66 2    
   133   67   68 2    
   134   67   69 am   BACKBONE|DICT|INTERRES
   135   69   70 1    
   136   69  190 1    
   137   70   71 1    
   138   70   72 1    
   139   70  191 1    
   140   71  192 1    
   141   71  193 1    
   142   71  194 1    
   143   72   73 2    
   144   72   74 am   BACKBONE|DICT|INTERRES
   145   74   75 1    
   146   74  195 1    
   147   75   76 1    
   148   75   77 1    
   149   75  196 1    
   150   76  197 1    
   151   76  198 1    
   152   76  199 1    
   153   77   78 2    
   154   77   79 am   BACKBONE|DICT|INTERRES
   155   79   80 1    
   156   79  200 1    
   157   80   81 1    
   158   80   82 1    
   159   80  201 1    
   160   81  202 1    
   161   81  203 1    
   162   81  204 1    
   163   82   83 2    
   164   82   84 am   BACKBONE|DICT|INTERRES
   165   84   85 1    
   166   84  205 1    
   167   85   86 1    
   168   85   87 1    
   169   85  206 1    
   170   86  207 1    
   171   86  208 1    
   172   86  209 1    
   173   87   88 2    
   174   87   89 am   BACKBONE|DICT|INTERRES
   175   89   90 1    
   176   89  210 1    
   177   90   91 1    
   178   90   92 1    
   179   90  211 1    
   180   91  212 1    
   181   91  213 1    
   182   91  214 1    
   183   92   93 2    
   184   92   94 am   BACKBONE|DICT|INTERRES
   185   94   95 1    
   186   94  215 1    
   187   95   96 1    
   188   95   97 1    
   189   95  216 1    
   190   96  217 1    
   191   96  218 1    
   192   96  219 1    
   193   97   98 2    
   194   97   99 am   BACKBONE|DICT|INTERRES
   195   99  100 1    
   196   99  220 1    
   197  100  101 1    
   198  100  102 1    
   199  100  221 1    
   200  101  222 1    
   201  101  223 1    
   202  101  224 1    
   203  102  103 2    
   204  102  104 am   BACKBONE|DICT|INTERRES
   205  104  105 1    
   206  104  225 1    
   207  105  106 1    
   208  105  107 1    
   209  105  226 1    
   210  106  227 1    
   211  106  228 1    
   212  106  229 1    
   213  107  108 2    
   214  107  109 am   BACKBONE|DICT|INTERRES
   215  109  110 1    
   216  109  230 1    
   217  110  111 1    
   218  110  112 1    
   219  110  231 1    
   220  111  232 1    
   221  111  233 1    
   222  111  234 1    
   223  112  113 2    
   224  112  114 am   BACKBONE|DICT|INTERRES
   225  114  115 1    
   226  114  235 1    
   227  115  116 1    
   228  115  117 1    
   229  115  236 1    
   230  116  237 1    
   231  116  238 1    
   232  116  239 1    
   233  117  118 2    
   234  117  119 am   BACKBONE|DICT|INTERRES
   235  119  120 1    
   236  119  240 1    
   237  120  121 1    
   238  120  124 1    
   239  120  241 1    
   240  121  122 am   BACKBONE|DICT|INTERRES
   241  121  123 2    
   242  122  242 1    
   243  122  243 1    
   244  124  125 1    
   245  124  244 1    
   246  124  245 1    
   247  125  126 1    
   248  126  246 1    
   249  126  247 1    
@<TRIPOS>SUBSTRUCTURE
     1 UNK         1 GROUP             0       ****    0 ROOT    
