@<TRIPOS>MOLECULE
3R540
247   249    1
SMALL
USER_CHARGES


@<TRIPOS>ATOM
      1 CA          0.9085  -13.7797  -54.2093 C.3       0 UNK        -0.1800 
      2 C           0.6065  -14.3425  -52.8282 C.2       0 UNK         0.5000 
      3 O           0.1855  -15.4936  -52.7157 O.2       0 UNK        -0.5000 
      4 N           0.8286  -13.5425  -51.7773 N.am      1 UNK        -0.5000 
      5 CA          0.5345  -13.8630  -50.3742 C.3       1 UNK         0.1400 
      6 C6          0.3500  -12.5911  -49.4996 C.3       23 UNK        -0.0398 
      7 S7         -0.8326  -11.3742  -50.1725 S.3       23 UNK        -0.2404 
      8 C8         -2.4094  -11.9391  -49.4495 C.3       23 UNK        -0.0205 
      9 C9         -2.8920  -13.2520  -50.0526 C.ar      23 UNK        -0.0193 
     10 C10        -3.0114  -13.3844  -51.4405 C.ar      23 UNK        -0.1150 
     11 C11        -3.4316  -14.5889  -52.0066 C.ar      23 UNK        -0.0193 
     12 C12        -3.7616  -15.6567  -51.1715 C.ar      23 UNK        -0.1150 
     13 C13        -3.6724  -15.5360  -49.7828 C.ar      23 UNK        -0.0193 
     14 C14        -3.2271  -14.3321  -49.2272 C.ar      23 UNK        -0.1150 
     15 C15        -4.0740  -16.7057  -48.8965 C.3       23 UNK        -0.0205 
     16 S16        -2.6612  -17.8015  -48.5789 S.3       23 UNK        -0.2404 
     17 C17        -3.4899  -19.3535  -48.0919 C.3       23 UNK        -0.0398 
     18 CA         -2.7415  -20.0728  -46.9458 C.3       11 UNK         0.1400 
     19 N          -2.7564  -19.2915  -45.7039 N.am      11 UNK        -0.5000 
     20 C          -2.0420  -19.5648  -44.6046 C.2       10 UNK         0.5000 
     21 O          -1.3214  -20.5587  -44.5046 O.2       10 UNK        -0.5000 
     22 CA         -2.1641  -18.5897  -43.4135 C.3       10 UNK         0.1400 
     23 CB         -3.1965  -17.4560  -43.6197 C.3       10 UNK        -0.1800 
     24 N          -2.4344  -19.2941  -42.1599 N.am      10 UNK        -0.5000 
     25 C          -3.4804  -20.0917  -41.8919 C.2       9 UNK         0.5000 
     26 O          -4.3639  -20.3501  -42.7104 O.2       9 UNK        -0.5000 
     27 CA         -3.5636  -20.7124  -40.4807 C.3       9 UNK         0.1400 
     28 CB         -3.3922  -22.2374  -40.5434 C.3       9 UNK        -0.1800 
     29 N          -2.5736  -20.1695  -39.5484 N.am      9 UNK        -0.5000 
     30 C          -2.6646  -18.9813  -38.9357 C.2       8 UNK         0.5000 
     31 O          -3.6370  -18.2326  -39.0362 O.2       8 UNK        -0.5000 
     32 CA         -1.4542  -18.5467  -38.0856 C.3       8 UNK         0.1400 
     33 CB         -1.6964  -18.8672  -36.6027 C.3       8 UNK        -0.1800 
     34 N          -0.1868  -19.1558  -38.5053 N.am      8 UNK        -0.5000 
     35 C           0.4330  -18.9109  -39.6677 C.2       7 UNK         0.5000 
     36 O          -0.0266  -18.1787  -40.5463 O.2       7 UNK        -0.5000 
     37 CA          1.7701  -19.6419  -39.8996 C.3       7 UNK         0.1400 
     38 CB          1.6147  -20.6750  -41.0235 C.3       7 UNK        -0.1800 
     39 N           2.8734  -18.7328  -40.2229 N.am      7 UNK        -0.5000 
     40 C           3.3102  -17.7449  -39.4262 C.2       6 UNK         0.5000 
     41 O           2.8153  -17.4975  -38.3250 O.2       6 UNK        -0.5000 
     42 CA          4.5195  -16.9075  -39.8919 C.3       6 UNK         0.1400 
     43 CB          5.6757  -17.0159  -38.8827 C.3       6 UNK        -0.1800 
     44 N           5.0323  -17.2785  -41.2105 N.am      6 UNK        -0.5000 
     45 C           4.5913  -16.7967  -42.3784 C.2       5 UNK         0.5000 
     46 O           3.6427  -16.0184  -42.4825 O.2       5 UNK        -0.5000 
     47 CA          5.3523  -17.2352  -43.6484 C.3       5 UNK         0.1400 
     48 CB          6.7663  -17.7967  -43.3738 C.3       5 UNK        -0.1800 
     49 N           4.5805  -18.1752  -44.4631 N.am      5 UNK        -0.5000 
     50 C           4.0869  -19.3644  -44.0874 C.2       4 UNK         0.5000 
     51 O           4.2242  -19.8386  -42.9577 O.2       4 UNK        -0.5000 
     52 CA          3.3189  -20.1426  -45.1801 C.3       4 UNK         0.1400 
     53 CB          2.5098  -21.3357  -44.6364 C.3       4 UNK        -0.1800 
     54 N           2.4639  -19.2945  -46.0199 N.am      4 UNK        -0.5000 
     55 C           1.4971  -18.4576  -45.6165 C.2       3 UNK         0.5000 
     56 O           1.2211  -18.2547  -44.4344 O.2       3 UNK        -0.5000 
     57 CA          0.7099  -17.7188  -46.7212 C.3       3 UNK         0.1400 
     58 CB         -0.1114  -16.5378  -46.1724 C.3       3 UNK        -0.1800 
     59 N           1.5370  -17.2058  -47.8120 N.am      3 UNK        -0.5000 
     60 C           2.0914  -17.8953  -48.8137 C.2       2 UNK         0.5000 
     61 O           2.1234  -19.1257  -48.8446 O.2       2 UNK        -0.5000 
     62 CA          2.6909  -17.0609  -49.9697 C.3       2 UNK         0.1400 
     63 CB          3.0489  -17.9183  -51.1965 C.3       2 UNK        -0.1800 
     64 N           1.7955  -15.9815  -50.4014 N.am      2 UNK        -0.5000 
     65 C           1.5811  -14.8244  -49.7637 C.2       1 UNK         0.5000 
     66 O           2.1653  -14.5252  -48.7201 O.2       1 UNK        -0.5000 
     67 C          -3.2332  -21.5307  -46.7872 C.2       11 UNK         0.5000 
     68 O          -2.9165  -22.3569  -47.6443 O.2       11 UNK        -0.5000 
     69 N          -3.9417  -21.8546  -45.6944 N.am      12 UNK        -0.5000 
     70 CA         -4.3137  -23.2298  -45.3520 C.3       12 UNK         0.1400 
     71 CB         -5.3960  -23.2250  -44.2645 C.3       12 UNK        -0.1800 
     72 C          -3.1029  -24.0827  -44.9217 C.2       12 UNK         0.5000 
     73 O          -3.0803  -25.2786  -45.2129 O.2       12 UNK        -0.5000 
     74 N          -2.0901  -23.4583  -44.2975 N.am      13 UNK        -0.5000 
     75 CA         -0.8084  -24.1000  -43.9779 C.3       13 UNK         0.1400 
     76 CB         -0.0911  -23.3269  -42.8615 C.3       13 UNK        -0.1800 
     77 C           0.0945  -24.2600  -45.2169 C.2       13 UNK         0.5000 
     78 O           0.9667  -25.1280  -45.2233 O.2       13 UNK        -0.5000 
     79 N          -0.1721  -23.4679  -46.2651 N.am      14 UNK        -0.5000 
     80 CA          0.4014  -23.6065  -47.6059 C.3       14 UNK         0.1400 
     81 CB          0.4858  -22.2165  -48.2617 C.3       14 UNK        -0.1800 
     82 C          -0.3985  -24.6011  -48.4801 C.2       14 UNK         0.5000 
     83 O          -0.2447  -24.5939  -49.7019 O.2       14 UNK        -0.5000 
     84 N          -1.2630  -25.4166  -47.8529 N.am      15 UNK        -0.5000 
     85 CA         -2.0980  -26.4723  -48.4382 C.3       15 UNK         0.1400 
     86 CB         -1.2146  -27.6230  -48.9634 C.3       15 UNK        -0.1800 
     87 C          -3.0979  -25.9619  -49.4969 C.2       15 UNK         0.5000 
     88 O          -3.4741  -26.7149  -50.3961 O.2       15 UNK        -0.5000 
     89 N          -3.4884  -24.6832  -49.3828 N.am      16 UNK        -0.5000 
     90 CA         -4.3389  -23.9199  -50.2999 C.3       16 UNK         0.1400 
     91 CB         -5.7496  -24.5334  -50.4081 C.3       16 UNK        -0.1800 
     92 C          -3.7055  -23.6538  -51.6827 C.2       16 UNK         0.5000 
     93 O          -4.3847  -23.1081  -52.5522 O.2       16 UNK        -0.5000 
     94 N          -2.4129  -23.9656  -51.8670 N.am      17 UNK        -0.5000 
     95 CA         -1.6724  -23.6782  -53.0993 C.3       17 UNK         0.1400 
     96 CB         -0.3307  -24.4247  -53.0834 C.3       17 UNK        -0.1800 
     97 C          -1.4564  -22.1672  -53.2962 C.2       17 UNK         0.5000 
     98 O          -1.5250  -21.6772  -54.4229 O.2       17 UNK        -0.5000 
     99 N          -1.2506  -21.4537  -52.1810 N.am      18 UNK        -0.5000 
    100 CA        -1.1742  -19.9960  -52.1339 C.3       18 UNK         0.1400 
    101 CB        -0.5314  -19.5757  -50.8085 C.3       18 UNK        -0.1800 
    102 C         -2.5502  -19.3309  -52.3215 C.2       18 UNK         0.5000 
    103 O         -2.6210  -18.2612  -52.9194 O.2       18 UNK        -0.5000 
    104 N         -3.6260  -19.9887  -51.8599 N.am      19 UNK        -0.5000 
    105 CA        -5.0077  -19.5522  -52.0837 C.3       19 UNK         0.1400 
    106 CB        -5.9709  -20.3356  -51.1789 C.3       19 UNK        -0.1800 
    107 C         -5.4016  -19.6726  -53.5659 C.2       19 UNK         0.5000 
    108 O         -5.9571  -18.7318  -54.1338 O.2       19 UNK        -0.5000 
    109 N         -5.0328  -20.8005  -54.1880 N.am      20 UNK        -0.5000 
    110 CA        -5.2195  -21.0868  -55.6123 C.3       20 UNK         0.1400 
    111 CB        -4.8234  -22.5470  -55.8800 C.3       20 UNK        -0.1800 
    112 C         -4.4595  -20.1352  -56.5617 C.2       20 UNK         0.5000 
    113 O         -4.7991  -20.0746  -57.7440 O.2       20 UNK        -0.5000 
    114 N         -3.4661  -19.3989  -56.0419 N.am      21 UNK        -0.5000 
    115 CA        -2.7035  -18.3908  -56.7781 C.3       21 UNK         0.1400 
    116 CB        -1.4070  -18.0680  -56.0181 C.3       21 UNK        -0.1800 
    117 C         -3.4998  -17.1015  -57.0683 C.2       21 UNK         0.5000 
    118 O         -3.0758  -16.3356  -57.9355 O.2       21 UNK        -0.5000 
    119 N         -4.6241  -16.8735  -56.3725 N.am      22 UNK        -0.5000 
    120 CA        -5.5152  -15.7270  -56.6183 C.3       22 UNK         0.1400 
    121 C         -7.0341  -16.0171  -56.4510 C.2       22 UNK         0.5000 
    122 N         -7.4582  -17.1068  -55.8241 N.am      22 UNK        -0.7600 
    123 O         -7.8567  -15.2438  -56.9347 O.2       22 UNK        -0.5000 
    124 C124       -5.0557  -14.4390  -55.8839 C.3       23 UNK        -0.0398 
    125 S125       -5.2491  -14.4874  -54.0674 S.3       23 UNK        -0.2404 
    126 C126       -3.5355  -14.7367  -53.5159 C.3       23 UNK        -0.0205 
    127 H127        1.6760  -14.3791  -54.6990 H         1 UNK         0.0600 
    128 H128        1.2600  -12.7489  -54.1596 H         1 UNK         0.0600 
    129 H129        0.0101  -13.8036  -54.8264 H         1 UNK         0.0600 
    130 H130        1.1902  -12.6131  -51.9366 H         1 UNK         0.3000 
    131 H131       -0.4098  -14.4094  -50.3528 H         1 UNK         0.0600 
    132 H132        1.3044  -12.0748  -49.3819 H         1 UNK         0.0800 
    133 H133        0.0315  -12.8650  -48.4922 H         1 UNK         0.0800 
    134 H134       -3.1687  -11.1768  -49.6283 H         1 UNK         0.0800 
    135 H135       -2.3024  -12.0185  -48.3667 H         1 UNK         0.0800 
    136 H136       -2.7611  -12.5512  -52.0818 H         1 UNK         0.1150 
    137 H137       -4.0946  -16.5820  -51.6114 H         1 UNK         0.1150 
    138 H138       -3.1474  -14.2375  -48.1534 H         1 UNK         0.1150 
    139 H139       -4.8736  -17.2695  -49.3797 H         1 UNK         0.0800 
    140 H140       -4.4761  -16.3461  -47.9484 H         1 UNK         0.0800 
    141 H141       -3.5318  -19.9839  -48.9810 H         1 UNK         0.0800 
    142 H142       -4.5241  -19.1545  -47.8061 H         1 UNK         0.0800 
    143 H143       -1.6946  -20.1569  -47.2428 H         1 UNK         0.0600 
    144 H144       -3.3385  -18.4668  -45.7061 H         1 UNK         0.3000 
    145 H145       -1.1837  -18.1286  -43.2928 H         1 UNK         0.0600 
    146 H146       -3.2142  -16.7905  -42.7565 H         1 UNK         0.0600 
    147 H147       -2.9551  -16.8403  -44.4862 H         1 UNK         0.0600 
    148 H148       -4.2081  -17.8397  -43.7565 H         1 UNK         0.0600 
    149 H149       -1.7432  -19.1455  -41.4349 H         1 UNK         0.3000 
    150 H150       -4.5619  -20.5003  -40.0923 H         1 UNK         0.0600 
    151 H151       -4.1631  -22.6954  -41.1625 H         1 UNK         0.0600 
    152 H152       -3.4694  -22.6852  -39.5525 H         1 UNK         0.0600 
    153 H153       -2.4263  -22.5131  -40.9626 H         1 UNK         0.0600 
    154 H154       -1.7416  -20.7205  -39.3982 H         1 UNK         0.3000 
    155 H155       -1.3556  -17.4640  -38.1890 H         1 UNK         0.0600 
    156 H156       -1.7809  -19.9410  -36.4313 H         1 UNK         0.0600 
    157 H157       -2.6187  -18.4048  -36.2483 H         1 UNK         0.0600 
    158 H158       -0.8857  -18.4892  -35.9796 H         1 UNK         0.0600 
    159 H159        0.2573  -19.7664  -37.8344 H         1 UNK         0.3000 
    160 H160        2.0454  -20.1744  -38.9871 H         1 UNK         0.0600 
    161 H161        1.3440  -20.1929  -41.9633 H         1 UNK         0.0600 
    162 H162        0.8325  -21.3964  -40.7857 H         1 UNK         0.0600 
    163 H163        2.5365  -21.2342  -41.1841 H         1 UNK         0.0600 
    164 H164        3.3286  -18.8741  -41.1167 H         1 UNK         0.3000 
    165 H165        4.1941  -15.8654  -39.9173 H         1 UNK         0.0600 
    166 H166        6.5167  -16.3878  -39.1773 H         1 UNK         0.0600 
    167 H167        5.3648  -16.6901  -37.8893 H         1 UNK         0.0600 
    168 H168        6.0367  -18.0412  -38.7939 H         1 UNK         0.0600 
    169 H169        5.7898  -17.9462  -41.2260 H         1 UNK         0.3000 
    170 H170        5.4739  -16.3341  -44.2514 H         1 UNK         0.0600 
    171 H171        7.3642  -17.0915  -42.7950 H         1 UNK         0.0600 
    172 H172        6.7419  -18.7403  -42.8278 H         1 UNK         0.0600 
    173 H173        7.2995  -17.9744  -44.3078 H         1 UNK         0.0600 
    174 H174        4.3667  -17.8627  -45.3991 H         1 UNK         0.3000 
    175 H175        4.0871  -20.5495  -45.8389 H         1 UNK         0.0600 
    176 H176        1.6423  -21.0030  -44.0701 H         1 UNK         0.0600 
    177 H177        2.1505  -21.9614  -45.4518 H         1 UNK         0.0600 
    178 H178        3.1112  -21.9716  -43.9860 H         1 UNK         0.0600 
    179 H179        2.5846  -19.3928  -47.0248 H         1 UNK         0.3000 
    180 H180        0.0134  -18.4450  -47.1428 H         1 UNK         0.0600 
    181 H181       -0.6984  -16.0630  -46.9590 H         1 UNK         0.0600 
    182 H182        0.5310  -15.7764  -45.7286 H         1 UNK         0.0600 
    183 H183       -0.8098  -16.8638  -45.4051 H         1 UNK         0.0600 
    184 H184        1.6328  -16.1965  -47.8564 H         1 UNK         0.3000 
    185 H185        3.6149  -16.6170  -49.5938 H         1 UNK         0.0600 
    186 H186        3.5242  -17.3164  -51.9712 H         1 UNK         0.0600 
    187 H187        3.7471  -18.7137  -50.9327 H         1 UNK         0.0600 
    188 H188        2.1653  -18.3851  -51.6326 H         1 UNK         0.0600 
    189 H189        1.2577  -16.1437  -51.2488 H         1 UNK         0.3000 
    190 H190       -4.1523  -21.1401  -45.0091 H         1 UNK         0.3000 
    191 H191       -4.7420  -23.6951  -46.2428 H         1 UNK         0.0600 
    192 H192       -5.7392  -24.2386  -44.0532 H         1 UNK         0.0600 
    193 H193       -6.2653  -22.6445  -44.5735 H         1 UNK         0.0600 
    194 H194       -5.0268  -22.8053  -43.3306 H         1 UNK         0.0600 
    195 H195       -2.1388  -22.4564  -44.1486 H         1 UNK         0.3000 
    196 H196       -1.0066  -25.1062  -43.6022 H         1 UNK         0.0600 
    197 H197       -0.0341  -22.2614  -43.0741 H         1 UNK         0.0600 
    198 H198       -0.6032  -23.4526  -41.9096 H         1 UNK         0.0600 
    199 H199        0.9289  -23.6876  -42.7212 H         1 UNK         0.0600 
    200 H200       -0.9136  -22.7899  -46.1670 H         1 UNK         0.3000 
    201 H201        1.4173  -23.9969  -47.5211 H         1 UNK         0.0600 
    202 H202       -0.4991  -21.8259  -48.5106 H         1 UNK         0.0600 
    203 H203        1.0601  -22.2558  -49.1880 H         1 UNK         0.0600 
    204 H204        0.9782  -21.4947  -47.6102 H         1 UNK         0.0600 
    205 H205       -1.3586  -25.3111  -46.8524 H         1 UNK         0.3000 
    206 H206       -2.7033  -26.8671  -47.6211 H         1 UNK         0.0600 
    207 H207       -0.5247  -27.9722  -48.1952 H         1 UNK         0.0600 
    208 H208       -1.8205  -28.4783  -49.2646 H         1 UNK         0.0600 
    209 H209       -0.6262  -27.3178  -49.8293 H         1 UNK         0.0600 
    210 H210       -3.1025  -24.1346  -48.6204 H         1 UNK         0.3000 
    211 H211       -4.4531  -22.9381  -49.8394 H         1 UNK         0.0600 
    212 H212       -6.4241  -23.8708  -50.9514 H         1 UNK         0.0600 
    213 H213       -6.1844  -24.6981  -49.4223 H         1 UNK         0.0600 
    214 H214       -5.7410  -25.4868  -50.9365 H         1 UNK         0.0600 
    215 H215       -1.8894  -24.3859  -51.1075 H         1 UNK         0.3000 
    216 H216       -2.2581  -24.0475  -53.9439 H         1 UNK         0.0600 
    217 H217        0.3198  -24.0710  -52.2829 H         1 UNK         0.0600 
    218 H218        0.2029  -24.2843  -54.0242 H         1 UNK         0.0600 
    219 H219       -0.4765  -25.4965  -52.9478 H         1 UNK         0.0600 
    220 H220       -1.1826  -21.9475  -51.3035 H         1 UNK         0.3000 
    221 H221       -0.5284  -19.6549  -52.9462 H         1 UNK         0.0600 
    222 H222        0.4727  -19.9888  -50.7192 H         1 UNK         0.0600 
    223 H223       -1.1081  -19.9208  -49.9514 H         1 UNK         0.0600 
    224 H224       -0.4478  -18.4901  -50.7388 H         1 UNK         0.0600 
    225 H225       -3.4931  -20.8898  -51.4309 H         1 UNK         0.3000 
    226 H226       -5.0865  -18.5018  -51.8060 H         1 UNK         0.0600 
    227 H227       -5.9868  -21.3980  -51.4167 H         1 UNK         0.0600 
    228 H228       -5.7057  -20.2287  -50.1276 H         1 UNK         0.0600 
    229 H229       -6.9905  -19.9655  -51.2928 H         1 UNK         0.0600 
    230 H230       -4.6203  -21.5463  -53.6341 H         1 UNK         0.3000 
    231 H231       -6.2831  -20.9767  -55.8325 H         1 UNK         0.0600 
    232 H232       -3.7698  -22.7225  -55.6617 H         1 UNK         0.0600 
    233 H233       -4.9920  -22.8150  -56.9237 H         1 UNK         0.0600 
    234 H234       -5.4103  -23.2336  -55.2696 H         1 UNK         0.0600 
    235 H235       -3.2418  -19.5111  -55.0632 H         1 UNK         0.3000 
    236 H236       -2.4240  -18.8242  -57.7407 H         1 UNK         0.0600 
    237 H237       -0.8753  -18.9748  -55.7287 H         1 UNK         0.0600 
    238 H238       -0.7324  -17.4795  -56.6406 H         1 UNK         0.0600 
    239 H239       -1.5990  -17.4850  -55.1179 H         1 UNK         0.0600 
    240 H240       -4.9167  -17.5334  -55.6639 H         1 UNK         0.3000 
    241 H241       -5.4398  -15.5035  -57.6845 H         1 UNK         0.0600 
    242 H242       -8.4508  -17.2627  -55.7554 H         1 UNK         0.3800 
    243 H243       -6.8321  -17.7200  -55.3071 H         1 UNK         0.3800 
    244 H244       -5.6258  -13.5845  -56.2516 H         1 UNK         0.0800 
    245 H245       -4.0179  -14.2189  -56.1359 H         1 UNK         0.0800 
    246 H246       -2.8786  -14.0181  -54.0081 H         1 UNK         0.0800 
    247 H247       -3.1944  -15.7280  -53.8187 H         1 UNK         0.0800 
@<TRIPOS>BOND
     1    1    2 1    
     2    1  127 1    
     3    1  128 1    
     4    1  129 1    
     5    2    3 2    
     6    2    4 am   BACKBONE|DICT|INTERRES
     7    4    5 1    
     8    4  130 1    
     9    5    6 1    
    10    5   65 1    
    11    5  131 1    
    12    6    7 1    
    13    6  132 1    
    14    6  133 1    
    15    7    8 1    
    16    8    9 1    
    17    8  134 1    
    18    8  135 1    
    19    9   10 ar   
    20    9   14 ar   
    21   10   11 ar   
    22   10  136 1    
    23   11   12 ar   
    24   11  126 1    
    25   12   13 ar   
    26   12  137 1    
    27   13   14 ar   
    28   13   15 1    
    29   14  138 1    
    30   15   16 1    
    31   15  139 1    
    32   15  140 1    
    33   16   17 1    
    34   17   18 1    
    35   17  141 1    
    36   17  142 1    
    37   18   19 1    
    38   18   67 1    
    39   18  143 1    
    40   19   20 am   BACKBONE|DICT|INTERRES
    41   19  144 1    
    42   20   21 2    
    43   20   22 1    
    44   22   23 1    
    45   22   24 1    
    46   22  145 1    
    47   23  146 1    
    48   23  147 1    
    49   23  148 1    
    50   24   25 am   BACKBONE|DICT|INTERRES
    51   24  149 1    
    52   25   26 2    
    53   25   27 1    
    54   27   28 1    
    55   27   29 1    
    56   27  150 1    
    57   28  151 1    
    58   28  152 1    
    59   28  153 1    
    60   29   30 am   BACKBONE|DICT|INTERRES
    61   29  154 1    
    62   30   31 2    
    63   30   32 1    
    64   32   33 1    
    65   32   34 1    
    66   32  155 1    
    67   33  156 1    
    68   33  157 1    
    69   33  158 1    
    70   34   35 am   BACKBONE|DICT|INTERRES
    71   34  159 1    
    72   35   36 2    
    73   35   37 1    
    74   37   38 1    
    75   37   39 1    
    76   37  160 1    
    77   38  161 1    
    78   38  162 1    
    79   38  163 1    
    80   39   40 am   BACKBONE|DICT|INTERRES
    81   39  164 1    
    82   40   41 2    
    83   40   42 1    
    84   42   43 1    
    85   42   44 1    
    86   42  165 1    
    87   43  166 1    
    88   43  167 1    
    89   43  168 1    
    90   44   45 am   BACKBONE|DICT|INTERRES
    91   44  169 1    
    92   45   46 2    
    93   45   47 1    
    94   47   48 1    
    95   47   49 1    
    96   47  170 1    
    97   48  171 1    
    98   48  172 1    
    99   48  173 1    
   100   49   50 am   BACKBONE|DICT|INTERRES
   101   49  174 1    
   102   50   51 2    
   103   50   52 1    
   104   52   53 1    
   105   52   54 1    
   106   52  175 1    
   107   53  176 1    
   108   53  177 1    
   109   53  178 1    
   110   54   55 am   BACKBONE|DICT|INTERRES
   111   54  179 1    
   112   55   56 2    
   113   55   57 1    
   114   57   58 1    
   115   57   59 1    
   116   57  180 1    
   117   58  181 1    
   118   58  182 1    
   119   58  183 1    
   120   59   60 am   BACKBONE|DICT|INTERRES
   121   59  184 1    
   122   60   61 2    
   123   60   62 1    
   124   62   63 1    
   125   62   64 1    
   126   62  185 1    
   127   63  186 1    
   128   63  187 1    
   129   63  188 1    
   130   64   65 am   BACKBONE|DICT|INTERRES
   131   64  189 1    
   132   65   66 2    
   133   67   68 2    
   134   67   69 am   BACKBONE|DICT|INTERRES
   135   69   70 1    
   136   69  190 1    
   137   70   71 1    
   138   70   72 1    
   139   70  191 1    
   140   71  192 1    
   141   71  193 1    
   142   71  194 1    
   143   72   73 2    
   144   72   74 am   BACKBONE|DICT|INTERRES
   145   74   75 1    
   146   74  195 1    
   147   75   76 1    
   148   75   77 1    
   149   75  196 1    
   150   76  197 1    
   151   76  198 1    
   152   76  199 1    
   153   77   78 2    
   154   77   79 am   BACKBONE|DICT|INTERRES
   155   79   80 1    
   156   79  200 1    
   157   80   81 1    
   158   80   82 1    
   159   80  201 1    
   160   81  202 1    
   161   81  203 1    
   162   81  204 1    
   163   82   83 2    
   164   82   84 am   BACKBONE|DICT|INTERRES
   165   84   85 1    
   166   84  205 1    
   167   85   86 1    
   168   85   87 1    
   169   85  206 1    
   170   86  207 1    
   171   86  208 1    
   172   86  209 1    
   173   87   88 2    
   174   87   89 am   BACKBONE|DICT|INTERRES
   175   89   90 1    
   176   89  210 1    
   177   90   91 1    
   178   90   92 1    
   179   90  211 1    
   180   91  212 1    
   181   91  213 1    
   182   91  214 1    
   183   92   93 2    
   184   92   94 am   BACKBONE|DICT|INTERRES
   185   94   95 1    
   186   94  215 1    
   187   95   96 1    
   188   95   97 1    
   189   95  216 1    
   190   96  217 1    
   191   96  218 1    
   192   96  219 1    
   193   97   98 2    
   194   97   99 am   BACKBONE|DICT|INTERRES
   195   99  100 1    
   196   99  220 1    
   197  100  101 1    
   198  100  102 1    
   199  100  221 1    
   200  101  222 1    
   201  101  223 1    
   202  101  224 1    
   203  102  103 2    
   204  102  104 am   BACKBONE|DICT|INTERRES
   205  104  105 1    
   206  104  225 1    
   207  105  106 1    
   208  105  107 1    
   209  105  226 1    
   210  106  227 1    
   211  106  228 1    
   212  106  229 1    
   213  107  108 2    
   214  107  109 am   BACKBONE|DICT|INTERRES
   215  109  110 1    
   216  109  230 1    
   217  110  111 1    
   218  110  112 1    
   219  110  231 1    
   220  111  232 1    
   221  111  233 1    
   222  111  234 1    
   223  112  113 2    
   224  112  114 am   BACKBONE|DICT|INTERRES
   225  114  115 1    
   226  114  235 1    
   227  115  116 1    
   228  115  117 1    
   229  115  236 1    
   230  116  237 1    
   231  116  238 1    
   232  116  239 1    
   233  117  118 2    
   234  117  119 am   BACKBONE|DICT|INTERRES
   235  119  120 1    
   236  119  240 1    
   237  120  121 1    
   238  120  124 1    
   239  120  241 1    
   240  121  122 am   BACKBONE|DICT|INTERRES
   241  121  123 2    
   242  122  242 1    
   243  122  243 1    
   244  124  125 1    
   245  124  244 1    
   246  124  245 1    
   247  125  126 1    
   248  126  246 1    
   249  126  247 1    
@<TRIPOS>SUBSTRUCTURE
     1 UNK         1 GROUP             0       ****    0 ROOT    
