@<TRIPOS>MOLECULE
3R540
247   249    1
SMALL
USER_CHARGES


@<TRIPOS>ATOM
      1 CA          1.6584   -9.6809  -47.2701 C.3       0 UNK        -0.1800 
      2 C           1.6718  -11.2015  -47.2315 C.2       0 UNK         0.5000 
      3 O           1.5029  -11.7886  -46.1617 O.2       0 UNK        -0.5000 
      4 N           1.8525  -11.8469  -48.3932 N.am      1 UNK        -0.5000 
      5 CA          1.9126  -13.3083  -48.5371 C.3       1 UNK         0.1400 
      6 C6          2.3298  -13.7398  -49.9648 C.3       23 UNK        -0.0398 
      7 S7          3.1816  -15.3562  -49.9841 S.3       23 UNK        -0.2404 
      8 C8          2.3211  -16.2401  -51.3236 C.3       23 UNK        -0.0205 
      9 C9          1.0369  -16.9100  -50.8555 C.ar      23 UNK        -0.0193 
     10 C10        -0.1926  -16.2622  -50.9982 C.ar      23 UNK        -0.1150 
     11 C11        -1.3793  -16.9011  -50.6278 C.ar      23 UNK        -0.0193 
     12 C12        -1.3306  -18.1940  -50.0964 C.ar      23 UNK        -0.1150 
     13 C13        -0.1064  -18.8543  -49.9469 C.ar      23 UNK        -0.0193 
     14 C14         1.0724  -18.2051  -50.3291 C.ar      23 UNK        -0.1150 
     15 C15        -0.0641  -20.2931  -49.4478 C.3       23 UNK        -0.0205 
     16 S16         0.9177  -20.4843  -47.9243 S.3       23 UNK        -0.2404 
     17 C17         0.8646  -22.2960  -47.7191 C.3       23 UNK        -0.0398 
     18 CA         -0.0529  -22.8075  -46.5835 C.3       11 UNK         0.1400 
     19 N           0.4186  -22.4488  -45.2459 N.am      11 UNK        -0.5000 
     20 C           0.0108  -23.0389  -44.1123 C.2       10 UNK         0.5000 
     21 O          -0.8189  -23.9526  -44.1006 O.2       10 UNK        -0.5000 
     22 CA          0.5669  -22.4911  -42.7777 C.3       10 UNK         0.1400 
     23 CB          0.9247  -23.6210  -41.7917 C.3       10 UNK        -0.1800 
     24 N           1.6792  -21.5402  -42.9249 N.am      10 UNK        -0.5000 
     25 C           2.9050  -21.7781  -43.4144 C.2       9 UNK         0.5000 
     26 O           3.2965  -22.8827  -43.7913 O.2       9 UNK        -0.5000 
     27 CA          3.8462  -20.5672  -43.5385 C.3       9 UNK         0.1400 
     28 CB          3.7839  -19.9820  -44.9569 C.3       9 UNK        -0.1800 
     29 N           3.5720  -19.5027  -42.5690 N.am      9 UNK        -0.5000 
     30 C           3.9514  -19.5579  -41.2860 C.2       8 UNK         0.5000 
     31 O           4.4410  -20.5605  -40.7639 O.2       8 UNK        -0.5000 
     32 CA          3.8045  -18.2772  -40.4536 C.3       8 UNK         0.1400 
     33 CB          4.8440  -17.2248  -40.8783 C.3       8 UNK        -0.1800 
     34 N           2.4643  -17.6922  -40.5281 N.am      8 UNK        -0.5000 
     35 C           1.8363  -17.1622  -39.4687 C.2       7 UNK         0.5000 
     36 O           2.2748  -17.2181  -38.3183 O.2       7 UNK        -0.5000 
     37 CA          0.5164  -16.4080  -39.7089 C.3       7 UNK         0.1400 
     38 CB          0.7829  -14.9009  -39.8469 C.3       7 UNK        -0.1800 
     39 N          -0.2482  -16.8638  -40.8679 N.am      7 UNK        -0.5000 
     40 C          -0.9489  -18.0052  -40.9071 C.2       6 UNK         0.5000 
     41 O          -0.9184  -18.8582  -40.0197 O.2       6 UNK        -0.5000 
     42 CA         -1.8507  -18.2232  -42.1313 C.3       6 UNK         0.1400 
     43 CB         -3.1739  -17.4594  -41.9706 C.3       6 UNK        -0.1800 
     44 N          -1.1933  -17.7783  -43.3557 N.am      6 UNK        -0.5000 
     45 C          -0.6092  -18.5987  -44.2354 C.2       5 UNK         0.5000 
     46 O          -0.6144  -19.8246  -44.1401 O.2       5 UNK        -0.5000 
     47 CA          0.1021  -17.9504  -45.4315 C.3       5 UNK         0.1400 
     48 CB         -0.8944  -17.7695  -46.5852 C.3       5 UNK        -0.1800 
     49 N           0.7332  -16.6679  -45.1328 N.am      5 UNK        -0.5000 
     50 C           1.6164  -16.4154  -44.1575 C.2       4 UNK         0.5000 
     51 O           2.0680  -17.2704  -43.3940 O.2       4 UNK        -0.5000 
     52 CA          2.0100  -14.9404  -43.9574 C.3       4 UNK         0.1400 
     53 CB          3.2456  -14.5984  -44.8003 C.3       4 UNK        -0.1800 
     54 N           0.9274  -13.9978  -44.2640 N.am      4 UNK        -0.5000 
     55 C          -0.2844  -13.9914  -43.6847 C.2       3 UNK         0.5000 
     56 O          -0.6374  -14.7975  -42.8219 O.2       3 UNK        -0.5000 
     57 CA         -1.2869  -12.9488  -44.2014 C.3       3 UNK         0.1400 
     58 CB         -0.9384  -11.5403  -43.6957 C.3       3 UNK        -0.1800 
     59 N          -1.3274  -12.9624  -45.6629 N.am      3 UNK        -0.5000 
     60 C          -2.0549  -13.8303  -46.3814 C.2       2 UNK         0.5000 
     61 O          -2.8506  -14.6265  -45.8833 O.2       2 UNK        -0.5000 
     62 CA         -1.8610  -13.8241  -47.9119 C.3       2 UNK         0.1400 
     63 CB         -2.9365  -12.9590  -48.5860 C.3       2 UNK        -0.1800 
     64 N          -0.5397  -13.3607  -48.3406 N.am      2 UNK        -0.5000 
     65 C           0.6105  -14.0011  -48.0846 C.2       1 UNK         0.5000 
     66 O           0.6740  -15.0537  -47.4564 O.2       1 UNK        -0.5000 
     67 C          -1.5422  -22.4726  -46.8026 C.2       11 UNK         0.5000 
     68 O          -2.1720  -23.1289  -47.6280 O.2       11 UNK        -0.5000 
     69 N          -2.1013  -21.5401  -46.0132 N.am      12 UNK        -0.5000 
     70 CA         -3.5365  -21.2444  -45.9657 C.3       12 UNK         0.1400 
     71 CB         -3.7915  -20.0392  -45.0484 C.3       12 UNK        -0.1800 
     72 C          -4.3933  -22.4432  -45.5130 C.2       12 UNK         0.5000 
     73 O          -5.5567  -22.5318  -45.9046 O.2       12 UNK        -0.5000 
     74 N          -3.8077  -23.3456  -44.7140 N.am      13 UNK        -0.5000 
     75 CA         -4.4227  -24.6090  -44.3201 C.3       13 UNK         0.1400 
     76 CB         -3.9865  -24.9670  -42.8901 C.3       13 UNK        -0.1800 
     77 C          -4.0487  -25.7300  -45.3038 C.2       13 UNK         0.5000 
     78 O          -4.9267  -26.4845  -45.7227 O.2       13 UNK        -0.5000 
     79 N          -2.7549  -25.8312  -45.6423 N.am      14 UNK        -0.5000 
     80 CA         -2.2016  -26.9480  -46.4119 C.3       14 UNK         0.1400 
     81 CB         -0.6808  -27.0033  -46.2011 C.3       14 UNK        -0.1800 
     82 C          -2.5347  -26.9267  -47.9169 C.2       14 UNK         0.5000 
     83 O          -2.6890  -27.9982  -48.5047 O.2       14 UNK        -0.5000 
     84 N          -2.6111  -25.7336  -48.5202 N.am      15 UNK        -0.5000 
     85 CA         -2.7521  -25.5347  -49.9667 C.3       15 UNK         0.1400 
     86 CB         -1.3916  -25.0917  -50.5360 C.3       15 UNK        -0.1800 
     87 C          -3.8510  -24.5195  -50.3298 C.2       15 UNK         0.5000 
     88 O          -3.9857  -24.1852  -51.5088 O.2       15 UNK        -0.5000 
     89 N          -4.6044  -24.0312  -49.3331 N.am      16 UNK        -0.5000 
     90 CA         -5.6168  -22.9762  -49.4421 C.3       16 UNK         0.1400 
     91 CB         -6.8506  -23.4867  -50.2215 C.3       16 UNK        -0.1800 
     92 C          -5.0034  -21.6731  -50.0002 C.2       16 UNK         0.5000 
     93 O          -3.9618  -21.2340  -49.5114 O.2       16 UNK        -0.5000 
     94 N          -5.6113  -21.0926  -51.0403 N.am      17 UNK        -0.5000 
     95 CA         -5.1293  -19.9054  -51.7499 C.3       17 UNK         0.1400 
     96 CB         -6.3289  -19.2513  -52.4612 C.3       17 UNK        -0.1800 
     97 C          -3.9590  -20.2169  -52.7138 C.2       17 UNK         0.5000 
     98 O          -3.9772  -19.7676  -53.8606 O.2       17 UNK        -0.5000 
     99 N          -2.9808  -21.0086  -52.2493 N.am      18 UNK        -0.5000 
    100 CA        -1.8201  -21.5203  -52.9882 C.3       18 UNK         0.1400 
    101 CB        -0.8489  -20.3698  -53.3302 C.3       18 UNK        -0.1800 
    102 C         -2.2376  -22.3284  -54.2348 C.2       18 UNK         0.5000 
    103 O         -1.7395  -22.0737  -55.3305 O.2       18 UNK        -0.5000 
    104 N         -3.2030  -23.2435  -54.0602 N.am      19 UNK        -0.5000 
    105 CA        -3.8909  -23.9968  -55.1183 C.3       19 UNK         0.1400 
    106 CB        -2.9338  -25.0015  -55.7928 C.3       19 UNK        -0.1800 
    107 C         -4.6164  -23.0722  -56.1249 C.2       19 UNK         0.5000 
    108 O         -4.6258  -23.3400  -57.3272 O.2       19 UNK        -0.5000 
    109 N         -5.1929  -21.9866  -55.5888 N.am      20 UNK        -0.5000 
    110 CA        -5.8884  -20.8820  -56.2587 C.3       20 UNK         0.1400 
    111 CB        -7.0686  -21.3872  -57.1146 C.3       20 UNK        -0.1800 
    112 C         -4.9671  -19.9120  -57.0302 C.2       20 UNK         0.5000 
    113 O         -5.4795  -19.0417  -57.7366 O.2       20 UNK        -0.5000 
    114 N         -3.6399  -20.0303  -56.8731 N.am      21 UNK        -0.5000 
    115 CA        -2.6583  -19.1650  -57.5291 C.3       21 UNK         0.1400 
    116 CB        -1.2592  -19.7906  -57.4405 C.3       21 UNK        -0.1800 
    117 C         -2.6349  -17.7227  -56.9883 C.2       21 UNK         0.5000 
    118 O         -2.3301  -16.8150  -57.7641 O.2       21 UNK        -0.5000 
    119 N         -2.9523  -17.5194  -55.6988 N.am      22 UNK        -0.5000 
    120 CA        -3.0255  -16.1757  -55.0889 C.3       22 UNK         0.1400 
    121 C         -4.4049  -15.4679  -55.2526 C.2       22 UNK         0.5000 
    122 N         -5.4000  -16.0824  -55.8829 N.am      22 UNK        -0.7600 
    123 O         -4.5680  -14.3280  -54.8255 O.2       22 UNK        -0.5000 
    124 C124       -2.4581  -16.1353  -53.6417 C.3       23 UNK        -0.0398 
    125 S125       -3.5676  -16.7502  -52.3300 S.3       23 UNK        -0.2404 
    126 C126       -2.7145  -16.1984  -50.8196 C.3       23 UNK        -0.0205 
    127 H127        0.7065   -9.3057  -46.8944 H         1 UNK         0.0600 
    128 H128        2.4546   -9.2844  -46.6403 H         1 UNK         0.0600 
    129 H129        1.8008   -9.2991  -48.2812 H         1 UNK         0.0600 
    130 H130        1.9803  -11.3103  -49.2397 H         1 UNK         0.3000 
    131 H131        2.6977  -13.6322  -47.8517 H         1 UNK         0.0600 
    132 H132        1.4783  -13.7373  -50.6467 H         1 UNK         0.0800 
    133 H133        3.0381  -13.0204  -50.3780 H         1 UNK         0.0800 
    134 H134        2.9958  -16.9991  -51.7225 H         1 UNK         0.0800 
    135 H135        2.1202  -15.5587  -52.1516 H         1 UNK         0.0800 
    136 H136       -0.2299  -15.2679  -51.4192 H         1 UNK         0.1150 
    137 H137       -2.2493  -18.6943  -49.8229 H         1 UNK         0.1150 
    138 H138        2.0189  -18.7178  -50.2310 H         1 UNK         0.1150 
    139 H139       -1.0741  -20.6668  -49.2690 H         1 UNK         0.0800 
    140 H140        0.3630  -20.9177  -50.2334 H         1 UNK         0.0800 
    141 H141        1.8850  -22.6351  -47.5351 H         1 UNK         0.0800 
    142 H142        0.5768  -22.7611  -48.6633 H         1 UNK         0.0800 
    143 H143        0.0046  -23.8949  -46.6335 H         1 UNK         0.0600 
    144 H144        1.0467  -21.6624  -45.1791 H         1 UNK         0.3000 
    145 H145       -0.2499  -21.9206  -42.3334 H         1 UNK         0.0600 
    146 H146        1.2986  -23.2187  -40.8502 H         1 UNK         0.0600 
    147 H147        0.0491  -24.2283  -41.5589 H         1 UNK         0.0600 
    148 H148        1.6840  -24.2899  -42.1973 H         1 UNK         0.0600 
    149 H149        1.4584  -20.5850  -42.6806 H         1 UNK         0.3000 
    150 H150        4.8636  -20.9293  -43.3747 H         1 UNK         0.0600 
    151 H151        4.0141  -20.7404  -45.7064 H         1 UNK         0.0600 
    152 H152        4.5023  -19.1718  -45.0820 H         1 UNK         0.0600 
    153 H153        2.7953  -19.5888  -45.1830 H         1 UNK         0.0600 
    154 H154        3.1483  -18.6502  -42.9294 H         1 UNK         0.3000 
    155 H155        4.0295  -18.5662  -39.4247 H         1 UNK         0.0600 
    156 H156        4.6546  -16.8554  -41.8871 H         1 UNK         0.0600 
    157 H157        5.8527  -17.6396  -40.8622 H         1 UNK         0.0600 
    158 H158        4.8345  -16.3690  -40.2031 H         1 UNK         0.0600 
    159 H159        2.0517  -17.6039  -41.4512 H         1 UNK         0.3000 
    160 H160       -0.1038  -16.5537  -38.8217 H         1 UNK         0.0600 
    161 H161       -0.1482  -14.3422  -39.9435 H         1 UNK         0.0600 
    162 H162        1.3979  -14.6793  -40.7186 H         1 UNK         0.0600 
    163 H163        1.3045  -14.5132  -38.9708 H         1 UNK         0.0600 
    164 H164       -0.3513  -16.1943  -41.6260 H         1 UNK         0.3000 
    165 H165       -2.0838  -19.2886  -42.1850 H         1 UNK         0.0600 
    166 H166       -3.8427  -17.6545  -42.8091 H         1 UNK         0.0600 
    167 H167       -3.6938  -17.7642  -41.0615 H         1 UNK         0.0600 
    168 H168       -3.0146  -16.3816  -41.9145 H         1 UNK         0.0600 
    169 H169       -1.1172  -16.7781  -43.4958 H         1 UNK         0.3000 
    170 H170        0.8878  -18.6276  -45.7572 H         1 UNK         0.0600 
    171 H171       -1.3690  -18.7148  -46.8500 H         1 UNK         0.0600 
    172 H172       -1.6844  -17.0629  -46.3317 H         1 UNK         0.0600 
    173 H173       -0.3927  -17.4061  -47.4805 H         1 UNK         0.0600 
    174 H174        0.5127  -15.9127  -45.7769 H         1 UNK         0.3000 
    175 H175        2.2705  -14.8092  -42.9063 H         1 UNK         0.0600 
    176 H176        3.5435  -13.5583  -44.6662 H         1 UNK         0.0600 
    177 H177        4.0945  -15.2213  -44.5156 H         1 UNK         0.0600 
    178 H178        3.0623  -14.7628  -45.8617 H         1 UNK         0.0600 
    179 H179        1.1301  -13.2919  -44.9661 H         1 UNK         0.3000 
    180 H180       -2.2731  -13.2061  -43.8089 H         1 UNK         0.0600 
    181 H181        0.0456  -11.2135  -44.0319 H         1 UNK         0.0600 
    182 H182       -0.9367  -11.5102  -42.6054 H         1 UNK         0.0600 
    183 H183       -1.6689  -10.8079  -44.0397 H         1 UNK         0.0600 
    184 H184       -0.6555  -12.3756  -46.1392 H         1 UNK         0.3000 
    185 H185       -1.9796  -14.8534  -48.2566 H         1 UNK         0.0600 
    186 H186       -2.8692  -11.9170  -48.2708 H         1 UNK         0.0600 
    187 H187       -2.8470  -12.9866  -49.6718 H         1 UNK         0.0600 
    188 H188       -3.9366  -13.3144  -48.3342 H         1 UNK         0.0600 
    189 H189       -0.5035  -12.4804  -48.8334 H         1 UNK         0.3000 
    190 H190       -1.5119  -21.0451  -45.3496 H         1 UNK         0.3000 
    191 H191       -3.8557  -20.9742  -46.9719 H         1 UNK         0.0600 
    192 H192       -3.4348  -20.2244  -44.0351 H         1 UNK         0.0600 
    193 H193       -4.8569  -19.8144  -44.9840 H         1 UNK         0.0600 
    194 H194       -3.3003  -19.1429  -45.4240 H         1 UNK         0.0600 
    195 H195       -2.8385  -23.2140  -44.4538 H         1 UNK         0.3000 
    196 H196       -5.5104  -24.5105  -44.3180 H         1 UNK         0.0600 
    197 H197       -4.4477  -25.9004  -42.5652 H         1 UNK         0.0600 
    198 H198       -4.2866  -24.1933  -42.1833 H         1 UNK         0.0600 
    199 H199       -2.9061  -25.0908  -42.8100 H         1 UNK         0.0600 
    200 H200       -2.0901  -25.1882  -45.2273 H         1 UNK         0.3000 
    201 H201       -2.6202  -27.8702  -46.0026 H         1 UNK         0.0600 
    202 H202       -0.4273  -27.0380  -45.1412 H         1 UNK         0.0600 
    203 H203       -0.1791  -26.1420  -46.6391 H         1 UNK         0.0600 
    204 H204       -0.2575  -27.8949  -46.6655 H         1 UNK         0.0600 
    205 H205       -2.4632  -24.8826  -47.9807 H         1 UNK         0.3000 
    206 H206       -3.0379  -26.4690  -50.4534 H         1 UNK         0.0600 
    207 H207       -0.6132  -25.8202  -50.3093 H         1 UNK         0.0600 
    208 H208       -1.4307  -24.9887  -51.6212 H         1 UNK         0.0600 
    209 H209       -1.0818  -24.1302  -50.1247 H         1 UNK         0.0600 
    210 H210       -4.3818  -24.3274  -48.3945 H         1 UNK         0.3000 
    211 H211       -5.9431  -22.7476  -48.4291 H         1 UNK         0.0600 
    212 H212       -6.6206  -23.7079  -51.2643 H         1 UNK         0.0600 
    213 H213       -7.6598  -22.7556  -50.2039 H         1 UNK         0.0600 
    214 H214       -7.2405  -24.4000  -49.7718 H         1 UNK         0.0600 
    215 H215       -6.4417  -21.5299  -51.4119 H         1 UNK         0.3000 
    216 H216       -4.7494  -19.1918  -51.0162 H         1 UNK         0.0600 
    217 H217       -6.0303  -18.3602  -53.0148 H         1 UNK         0.0600 
    218 H218       -7.0874  -18.9409  -51.7426 H         1 UNK         0.0600 
    219 H219       -6.7994  -19.9354  -53.1670 H         1 UNK         0.0600 
    220 H220       -3.0697  -21.3177  -51.2867 H         1 UNK         0.3000 
    221 H221       -1.3029  -22.2132  -52.3232 H         1 UNK         0.0600 
    222 H222       -1.2983  -19.6450  -54.0091 H         1 UNK         0.0600 
    223 H223       -0.5413  -19.8317  -52.4375 H         1 UNK         0.0600 
    224 H224        0.0562  -20.7481  -53.8062 H         1 UNK         0.0600 
    225 H225       -3.5354  -23.4239  -53.1135 H         1 UNK         0.3000 
    226 H226       -4.6716  -24.5730  -54.6197 H         1 UNK         0.0600 
    227 H227       -2.4458  -25.6366  -55.0535 H         1 UNK         0.0600 
    228 H228       -3.4750  -25.6567  -56.4762 H         1 UNK         0.0600 
    229 H229       -2.1567  -24.4996  -56.3698 H         1 UNK         0.0600 
    230 H230       -5.0536  -21.8480  -54.5984 H         1 UNK         0.3000 
    231 H231       -6.3161  -20.2831  -55.4549 H         1 UNK         0.0600 
    232 H232       -7.7077  -22.0637  -56.5473 H         1 UNK         0.0600 
    233 H233       -6.7291  -21.9122  -58.0075 H         1 UNK         0.0600 
    234 H234       -7.6930  -20.5571  -57.4469 H         1 UNK         0.0600 
    235 H235       -3.2771  -20.7379  -56.2460 H         1 UNK         0.3000 
    236 H236       -2.9252  -19.1109  -58.5867 H         1 UNK         0.0600 
    237 H237       -0.5397  -19.2177  -58.0265 H         1 UNK         0.0600 
    238 H238       -0.8939  -19.8157  -56.4141 H         1 UNK         0.0600 
    239 H239       -1.2548  -20.8102  -57.8266 H         1 UNK         0.0600 
    240 H240       -3.2322  -18.3027  -55.1153 H         1 UNK         0.3000 
    241 H241       -2.3468  -15.5338  -55.6535 H         1 UNK         0.0600 
    242 H242       -6.2835  -15.6102  -55.9921 H         1 UNK         0.3800 
    243 H243       -5.2709  -17.0033  -56.2737 H         1 UNK         0.3800 
    244 H244       -1.5257  -16.6999  -53.5982 H         1 UNK         0.0800 
    245 H245       -2.1921  -15.1070  -53.3917 H         1 UNK         0.0800 
    246 H246       -2.5785  -15.1171  -50.8576 H         1 UNK         0.0800 
    247 H247       -3.3558  -16.3962  -49.9596 H         1 UNK         0.0800 
@<TRIPOS>BOND
     1    1    2 1    
     2    1  127 1    
     3    1  128 1    
     4    1  129 1    
     5    2    3 2    
     6    2    4 am   BACKBONE|DICT|INTERRES
     7    4    5 1    
     8    4  130 1    
     9    5    6 1    
    10    5   65 1    
    11    5  131 1    
    12    6    7 1    
    13    6  132 1    
    14    6  133 1    
    15    7    8 1    
    16    8    9 1    
    17    8  134 1    
    18    8  135 1    
    19    9   10 ar   
    20    9   14 ar   
    21   10   11 ar   
    22   10  136 1    
    23   11   12 ar   
    24   11  126 1    
    25   12   13 ar   
    26   12  137 1    
    27   13   14 ar   
    28   13   15 1    
    29   14  138 1    
    30   15   16 1    
    31   15  139 1    
    32   15  140 1    
    33   16   17 1    
    34   17   18 1    
    35   17  141 1    
    36   17  142 1    
    37   18   19 1    
    38   18   67 1    
    39   18  143 1    
    40   19   20 am   BACKBONE|DICT|INTERRES
    41   19  144 1    
    42   20   21 2    
    43   20   22 1    
    44   22   23 1    
    45   22   24 1    
    46   22  145 1    
    47   23  146 1    
    48   23  147 1    
    49   23  148 1    
    50   24   25 am   BACKBONE|DICT|INTERRES
    51   24  149 1    
    52   25   26 2    
    53   25   27 1    
    54   27   28 1    
    55   27   29 1    
    56   27  150 1    
    57   28  151 1    
    58   28  152 1    
    59   28  153 1    
    60   29   30 am   BACKBONE|DICT|INTERRES
    61   29  154 1    
    62   30   31 2    
    63   30   32 1    
    64   32   33 1    
    65   32   34 1    
    66   32  155 1    
    67   33  156 1    
    68   33  157 1    
    69   33  158 1    
    70   34   35 am   BACKBONE|DICT|INTERRES
    71   34  159 1    
    72   35   36 2    
    73   35   37 1    
    74   37   38 1    
    75   37   39 1    
    76   37  160 1    
    77   38  161 1    
    78   38  162 1    
    79   38  163 1    
    80   39   40 am   BACKBONE|DICT|INTERRES
    81   39  164 1    
    82   40   41 2    
    83   40   42 1    
    84   42   43 1    
    85   42   44 1    
    86   42  165 1    
    87   43  166 1    
    88   43  167 1    
    89   43  168 1    
    90   44   45 am   BACKBONE|DICT|INTERRES
    91   44  169 1    
    92   45   46 2    
    93   45   47 1    
    94   47   48 1    
    95   47   49 1    
    96   47  170 1    
    97   48  171 1    
    98   48  172 1    
    99   48  173 1    
   100   49   50 am   BACKBONE|DICT|INTERRES
   101   49  174 1    
   102   50   51 2    
   103   50   52 1    
   104   52   53 1    
   105   52   54 1    
   106   52  175 1    
   107   53  176 1    
   108   53  177 1    
   109   53  178 1    
   110   54   55 am   BACKBONE|DICT|INTERRES
   111   54  179 1    
   112   55   56 2    
   113   55   57 1    
   114   57   58 1    
   115   57   59 1    
   116   57  180 1    
   117   58  181 1    
   118   58  182 1    
   119   58  183 1    
   120   59   60 am   BACKBONE|DICT|INTERRES
   121   59  184 1    
   122   60   61 2    
   123   60   62 1    
   124   62   63 1    
   125   62   64 1    
   126   62  185 1    
   127   63  186 1    
   128   63  187 1    
   129   63  188 1    
   130   64   65 am   BACKBONE|DICT|INTERRES
   131   64  189 1    
   132   65   66 2    
   133   67   68 2    
   134   67   69 am   BACKBONE|DICT|INTERRES
   135   69   70 1    
   136   69  190 1    
   137   70   71 1    
   138   70   72 1    
   139   70  191 1    
   140   71  192 1    
   141   71  193 1    
   142   71  194 1    
   143   72   73 2    
   144   72   74 am   BACKBONE|DICT|INTERRES
   145   74   75 1    
   146   74  195 1    
   147   75   76 1    
   148   75   77 1    
   149   75  196 1    
   150   76  197 1    
   151   76  198 1    
   152   76  199 1    
   153   77   78 2    
   154   77   79 am   BACKBONE|DICT|INTERRES
   155   79   80 1    
   156   79  200 1    
   157   80   81 1    
   158   80   82 1    
   159   80  201 1    
   160   81  202 1    
   161   81  203 1    
   162   81  204 1    
   163   82   83 2    
   164   82   84 am   BACKBONE|DICT|INTERRES
   165   84   85 1    
   166   84  205 1    
   167   85   86 1    
   168   85   87 1    
   169   85  206 1    
   170   86  207 1    
   171   86  208 1    
   172   86  209 1    
   173   87   88 2    
   174   87   89 am   BACKBONE|DICT|INTERRES
   175   89   90 1    
   176   89  210 1    
   177   90   91 1    
   178   90   92 1    
   179   90  211 1    
   180   91  212 1    
   181   91  213 1    
   182   91  214 1    
   183   92   93 2    
   184   92   94 am   BACKBONE|DICT|INTERRES
   185   94   95 1    
   186   94  215 1    
   187   95   96 1    
   188   95   97 1    
   189   95  216 1    
   190   96  217 1    
   191   96  218 1    
   192   96  219 1    
   193   97   98 2    
   194   97   99 am   BACKBONE|DICT|INTERRES
   195   99  100 1    
   196   99  220 1    
   197  100  101 1    
   198  100  102 1    
   199  100  221 1    
   200  101  222 1    
   201  101  223 1    
   202  101  224 1    
   203  102  103 2    
   204  102  104 am   BACKBONE|DICT|INTERRES
   205  104  105 1    
   206  104  225 1    
   207  105  106 1    
   208  105  107 1    
   209  105  226 1    
   210  106  227 1    
   211  106  228 1    
   212  106  229 1    
   213  107  108 2    
   214  107  109 am   BACKBONE|DICT|INTERRES
   215  109  110 1    
   216  109  230 1    
   217  110  111 1    
   218  110  112 1    
   219  110  231 1    
   220  111  232 1    
   221  111  233 1    
   222  111  234 1    
   223  112  113 2    
   224  112  114 am   BACKBONE|DICT|INTERRES
   225  114  115 1    
   226  114  235 1    
   227  115  116 1    
   228  115  117 1    
   229  115  236 1    
   230  116  237 1    
   231  116  238 1    
   232  116  239 1    
   233  117  118 2    
   234  117  119 am   BACKBONE|DICT|INTERRES
   235  119  120 1    
   236  119  240 1    
   237  120  121 1    
   238  120  124 1    
   239  120  241 1    
   240  121  122 am   BACKBONE|DICT|INTERRES
   241  121  123 2    
   242  122  242 1    
   243  122  243 1    
   244  124  125 1    
   245  124  244 1    
   246  124  245 1    
   247  125  126 1    
   248  126  246 1    
   249  126  247 1    
@<TRIPOS>SUBSTRUCTURE
     1 UNK         1 GROUP             0       ****    0 ROOT    
