@<TRIPOS>MOLECULE
3R540
247   249    1
SMALL
USER_CHARGES


@<TRIPOS>ATOM
      1 CA          4.1671   -9.7872  -47.6190 C.3       0 UNK        -0.1800 
      2 C           3.5342  -11.1170  -48.0044 C.2       0 UNK         0.5000 
      3 O           4.2469  -12.1039  -48.1862 O.2       0 UNK        -0.5000 
      4 N           2.2028  -11.1454  -48.1255 N.am      1 UNK        -0.5000 
      5 CA          1.4124  -12.3303  -48.4725 C.3       1 UNK         0.1400 
      6 C6          1.2770  -12.5235  -50.0106 C.3       23 UNK        -0.0398 
      7 S7          1.3877  -14.2723  -50.5219 S.3       23 UNK        -0.2404 
      8 C8         -0.3558  -14.6645  -50.8584 C.3       23 UNK        -0.0205 
      9 C9         -0.5075  -16.0592  -51.4442 C.ar      23 UNK        -0.0193 
     10 C10        -0.7589  -16.2312  -52.8093 C.ar      23 UNK        -0.1150 
     11 C11        -0.9286  -17.5119  -53.3447 C.ar      23 UNK        -0.0193 
     12 C12        -0.8334  -18.6242  -52.5046 C.ar      23 UNK        -0.1150 
     13 C13        -0.5818  -18.4646  -51.1405 C.ar      23 UNK        -0.0193 
     14 C14        -0.4218  -17.1804  -50.6139 C.ar      23 UNK        -0.1150 
     15 C15        -0.5416  -19.6752  -50.2276 C.3       23 UNK        -0.0205 
     16 S16         1.1500  -20.2699  -49.9303 S.3       23 UNK        -0.2404 
     17 C17         1.1164  -20.5462  -48.1253 C.3       23 UNK        -0.0398 
     18 CA          0.7933  -22.0023  -47.7085 C.3       11 UNK         0.1400 
     19 N           1.2462  -22.2415  -46.3430 N.am      11 UNK        -0.5000 
     20 C           1.5179  -23.4292  -45.7923 C.2       10 UNK         0.5000 
     21 O           1.4338  -24.4997  -46.3969 O.2       10 UNK        -0.5000 
     22 CA          1.9856  -23.3840  -44.3201 C.3       10 UNK         0.1400 
     23 CB          2.6124  -24.7068  -43.8341 C.3       10 UNK        -0.1800 
     24 N           2.8755  -22.2444  -44.0608 N.am      10 UNK        -0.5000 
     25 C           4.0668  -21.9917  -44.6257 C.2       9 UNK         0.5000 
     26 O           4.6605  -22.7819  -45.3605 O.2       9 UNK        -0.5000 
     27 CA          4.6926  -20.6057  -44.3646 C.3       9 UNK         0.1400 
     28 CB          4.5789  -19.7304  -45.6230 C.3       9 UNK        -0.1800 
     29 N           4.0856  -19.8857  -43.2440 N.am      9 UNK        -0.5000 
     30 C           4.3135  -20.1486  -41.9508 C.2       8 UNK         0.5000 
     31 O           5.1025  -21.0076  -41.5554 O.2       8 UNK        -0.5000 
     32 CA          3.4990  -19.3330  -40.9280 C.3       8 UNK         0.1400 
     33 CB          4.1762  -17.9839  -40.6439 C.3       8 UNK        -0.1800 
     34 N           2.1143  -19.1066  -41.3503 N.am      8 UNK        -0.5000 
     35 C           1.2036  -20.0767  -41.5163 C.2       7 UNK         0.5000 
     36 O           1.4263  -21.2685  -41.3038 O.2       7 UNK        -0.5000 
     37 CA         -0.1748  -19.6564  -42.0533 C.3       7 UNK         0.1400 
     38 CB         -1.0529  -19.0883  -40.9288 C.3       7 UNK        -0.1800 
     39 N          -0.0882  -18.6936  -43.1523 N.am      7 UNK        -0.5000 
     40 C           0.4607  -18.9530  -44.3474 C.2       6 UNK         0.5000 
     41 O           0.9253  -20.0466  -44.6625 O.2       6 UNK        -0.5000 
     42 CA          0.5524  -17.7881  -45.3476 C.3       6 UNK         0.1400 
     43 CB         -0.7913  -17.5638  -46.0593 C.3       6 UNK        -0.1800 
     44 N           0.9985  -16.5474  -44.7179 N.am      6 UNK        -0.5000 
     45 C           2.1790  -16.3830  -44.1034 C.2       5 UNK         0.5000 
     46 O           3.0539  -17.2471  -44.0530 O.2       5 UNK        -0.5000 
     47 CA          2.3872  -15.0503  -43.3658 C.3       5 UNK         0.1400 
     48 CB          2.7910  -13.9322  -44.3404 C.3       5 UNK        -0.1800 
     49 N           1.1903  -14.6574  -42.6206 N.am      5 UNK        -0.5000 
     50 C           0.7340  -15.2974  -41.5339 C.2       4 UNK         0.5000 
     51 O           1.3011  -16.2619  -41.0208 O.2       4 UNK        -0.5000 
     52 CA         -0.5987  -14.7986  -40.9450 C.3       4 UNK         0.1400 
     53 CB         -0.3641  -13.5989  -40.0152 C.3       4 UNK        -0.1800 
     54 N          -1.5676  -14.4293  -41.9782 N.am      4 UNK        -0.5000 
     55 C          -2.1522  -15.3000  -42.8135 C.2       3 UNK         0.5000 
     56 O          -1.9670  -16.5151  -42.7720 O.2       3 UNK        -0.5000 
     57 CA         -3.0505  -14.7061  -43.9165 C.3       3 UNK         0.1400 
     58 CB         -4.4839  -14.5132  -43.4004 C.3       3 UNK        -0.1800 
     59 N          -2.5485  -13.4370  -44.4558 N.am      3 UNK        -0.5000 
     60 C          -1.3585  -13.2887  -45.0527 C.2       2 UNK         0.5000 
     61 O          -0.5551  -14.2125  -45.1994 O.2       2 UNK        -0.5000 
     62 CA         -0.9781  -11.8626  -45.4922 C.3       2 UNK         0.1400 
     63 CB         -0.5738  -11.0210  -44.2705 C.3       2 UNK        -0.1800 
     64 N           0.1400  -11.8690  -46.4357 N.am      2 UNK        -0.5000 
     65 C           0.0726  -12.2859  -47.7078 C.2       1 UNK         0.5000 
     66 O          -0.9835  -12.5898  -48.2637 O.2       1 UNK        -0.5000 
     67 C          -0.7119  -22.3215  -47.8252 C.2       11 UNK         0.5000 
     68 O          -1.4630  -22.1292  -46.8633 O.2       11 UNK        -0.5000 
     69 N          -1.1281  -22.7723  -49.0166 N.am      12 UNK        -0.5000 
     70 CA         -2.4741  -23.2491  -49.3533 C.3       12 UNK         0.1400 
     71 CB         -2.5179  -23.5995  -50.8471 C.3       12 UNK        -0.1800 
     72 C          -3.6261  -22.2932  -48.9881 C.2       12 UNK         0.5000 
     73 O          -4.6777  -22.7646  -48.5646 O.2       12 UNK        -0.5000 
     74 N          -3.3942  -20.9761  -49.0832 N.am      13 UNK        -0.5000 
     75 CA         -4.3555  -19.9267  -48.7242 C.3       13 UNK         0.1400 
     76 CB         -3.7758  -18.5524  -49.0954 C.3       13 UNK        -0.1800 
     77 C          -4.7730  -19.9401  -47.2394 C.2       13 UNK         0.5000 
     78 O          -5.8646  -19.4721  -46.9182 O.2       13 UNK        -0.5000 
     79 N          -3.9113  -20.4817  -46.3694 N.am      14 UNK        -0.5000 
     80 CA         -4.2008  -20.7105  -44.9576 C.3       14 UNK         0.1400 
     81 CB         -3.0097  -20.2311  -44.1178 C.3       14 UNK        -0.1800 
     82 C          -4.4830  -22.1980  -44.6947 C.2       14 UNK         0.5000 
     83 O          -5.4279  -22.5156  -43.9727 O.2       14 UNK        -0.5000 
     84 N          -3.6607  -23.0826  -45.2770 N.am      15 UNK        -0.5000 
     85 CA         -3.6816  -24.5241  -45.0226 C.3       15 UNK         0.1400 
     86 CB         -2.3687  -25.1385  -45.5330 C.3       15 UNK        -0.1800 
     87 C          -4.8950  -25.2637  -45.6197 C.2       15 UNK         0.5000 
     88 O          -5.3276  -26.2617  -45.0416 O.2       15 UNK        -0.5000 
     89 N          -5.4113  -24.7842  -46.7578 N.am      16 UNK        -0.5000 
     90 CA         -6.4964  -25.4078  -47.5208 C.3       16 UNK         0.1400 
     91 CB         -5.8870  -26.1179  -48.7436 C.3       16 UNK        -0.1800 
     92 C          -7.5753  -24.3925  -47.9464 C.2       16 UNK         0.5000 
     93 O          -8.4568  -24.7473  -48.7307 O.2       16 UNK        -0.5000 
     94 N          -7.4821  -23.1495  -47.4506 N.am      17 UNK        -0.5000 
     95 CA         -8.3029  -21.9647  -47.7399 C.3       17 UNK         0.1400 
     96 CB         -9.7798  -22.1925  -47.3653 C.3       17 UNK        -0.1800 
     97 C          -8.1682  -21.4208  -49.1789 C.2       17 UNK         0.5000 
     98 O          -8.0439  -20.2088  -49.3563 O.2       17 UNK        -0.5000 
     99 N          -8.1953  -22.3053  -50.1813 N.am      18 UNK        -0.5000 
    100 CA        -7.9819  -21.9858  -51.5894 C.3       18 UNK         0.1400 
    101 CB        -8.5366  -23.1287  -52.4543 C.3       18 UNK        -0.1800 
    102 C         -6.4851  -21.7636  -51.8621 C.2       18 UNK         0.5000 
    103 O         -5.6937  -22.6858  -51.6670 O.2       18 UNK        -0.5000 
    104 N         -6.1258  -20.5528  -52.3083 N.am      19 UNK        -0.5000 
    105 CA        -4.7462  -20.1454  -52.5938 C.3       19 UNK         0.1400 
    106 CB        -4.7139  -18.6268  -52.8226 C.3       19 UNK        -0.1800 
    107 C         -4.1102  -20.8868  -53.7855 C.2       19 UNK         0.5000 
    108 O         -2.9021  -21.1233  -53.7708 O.2       19 UNK        -0.5000 
    109 N         -4.9424  -21.2481  -54.7742 N.am      20 UNK        -0.5000 
    110 CA        -4.6004  -21.9599  -56.0105 C.3       20 UNK         0.1400 
    111 CB        -4.0865  -23.3811  -55.6869 C.3       20 UNK        -0.1800 
    112 C         -3.6425  -21.1689  -56.9318 C.2       20 UNK         0.5000 
    113 O         -3.4364  -19.9670  -56.7429 O.2       20 UNK        -0.5000 
    114 N         -3.1043  -21.8507  -57.9497 N.am      21 UNK        -0.5000 
    115 CA        -2.1563  -21.3076  -58.9192 C.3       21 UNK         0.1400 
    116 CB        -2.2994  -22.0853  -60.2399 C.3       21 UNK        -0.1800 
    117 C         -0.7259  -21.3705  -58.3527 C.2       21 UNK         0.5000 
    118 O          0.0216  -22.3003  -58.6628 O.2       21 UNK        -0.5000 
    119 N         -0.3840  -20.3956  -57.5034 N.am      22 UNK        -0.5000 
    120 CA         0.9407  -20.2537  -56.8738 C.3       22 UNK         0.1400 
    121 C          2.0883  -19.7898  -57.8223 C.2       22 UNK         0.5000 
    122 N          1.8099  -19.3400  -59.0402 N.am      22 UNK        -0.7600 
    123 O          3.2568  -19.8542  -57.4496 O.2       22 UNK        -0.5000 
    124 C124        0.8743  -19.3973  -55.5828 C.3       23 UNK        -0.0398 
    125 S125        0.2444  -17.7003  -55.8509 S.3       23 UNK        -0.2404 
    126 C126       -1.2547  -17.6890  -54.8205 C.3       23 UNK        -0.0205 
    127 H127        3.4195   -9.0043  -47.4883 H         1 UNK         0.0600 
    128 H128        4.8645   -9.4654  -48.3926 H         1 UNK         0.0600 
    129 H129        4.7178   -9.8911  -46.6840 H         1 UNK         0.0600 
    130 H130        1.6670  -10.3030  -47.9625 H         1 UNK         0.3000 
    131 H131        1.9308  -13.1994  -48.0605 H         1 UNK         0.0600 
    132 H132        0.3740  -12.0578  -50.4086 H         1 UNK         0.0800 
    133 H133        2.0986  -12.0183  -50.5201 H         1 UNK         0.0800 
    134 H134       -0.7736  -13.9198  -51.5375 H         1 UNK         0.0800 
    135 H135       -0.9307  -14.5998  -49.9342 H         1 UNK         0.0800 
    136 H136       -0.8337  -15.3680  -53.4559 H         1 UNK         0.1150 
    137 H137       -0.9754  -19.6163  -52.9077 H         1 UNK         0.1150 
    138 H138       -0.2354  -17.0512  -49.5569 H         1 UNK         0.1150 
    139 H139       -1.0217  -19.4188  -49.2848 H         1 UNK         0.0800 
    140 H140       -1.1209  -20.4856  -50.6706 H         1 UNK         0.0800 
    141 H141        0.4518  -19.8356  -47.6354 H         1 UNK         0.0800 
    142 H142        2.1162  -20.2877  -47.7734 H         1 UNK         0.0800 
    143 H143        1.3451  -22.6822  -48.3614 H         1 UNK         0.0600 
    144 H144        1.2503  -21.4280  -45.7294 H         1 UNK         0.3000 
    145 H145        1.0890  -23.2069  -43.7242 H         1 UNK         0.0600 
    146 H146        2.9256  -24.6338  -42.7926 H         1 UNK         0.0600 
    147 H147        1.8940  -25.5246  -43.9003 H         1 UNK         0.0600 
    148 H148        3.4821  -24.9888  -44.4279 H         1 UNK         0.0600 
    149 H149        2.4728  -21.5090  -43.4946 H         1 UNK         0.3000 
    150 H150        5.7521  -20.7590  -44.1493 H         1 UNK         0.0600 
    151 H151        5.0295  -20.2195  -46.4875 H         1 UNK         0.0600 
    152 H152        5.0894  -18.7768  -45.4866 H         1 UNK         0.0600 
    153 H153        3.5379  -19.5184  -45.8690 H         1 UNK         0.0600 
    154 H154        3.4720  -19.1121  -43.4828 H         1 UNK         0.3000 
    155 H155        3.4740  -19.9021  -39.9964 H         1 UNK         0.0600 
    156 H156        5.2040  -18.1252  -40.3075 H         1 UNK         0.0600 
    157 H157        3.6501  -17.4363  -39.8617 H         1 UNK         0.0600 
    158 H158        4.2045  -17.3523  -41.5322 H         1 UNK         0.0600 
    159 H159        1.8374  -18.1419  -41.5042 H         1 UNK         0.3000 
    160 H160       -0.6588  -20.5567  -42.4354 H         1 UNK         0.0600 
    161 H161       -2.0604  -18.8747  -41.2857 H         1 UNK         0.0600 
    162 H162       -0.6403  -18.1650  -40.5221 H         1 UNK         0.0600 
    163 H163       -1.1434  -19.7989  -40.1064 H         1 UNK         0.0600 
    164 H164       -0.5117  -17.7842  -42.9924 H         1 UNK         0.3000 
    165 H165        1.2954  -18.0578  -46.1005 H         1 UNK         0.0600 
    166 H166       -0.6991  -16.8172  -46.8485 H         1 UNK         0.0600 
    167 H167       -1.1562  -18.4834  -46.5175 H         1 UNK         0.0600 
    168 H168       -1.5599  -17.2224  -45.3672 H         1 UNK         0.0600 
    169 H169        0.3563  -15.7588  -44.7538 H         1 UNK         0.3000 
    170 H170        3.2022  -15.1863  -42.6516 H         1 UNK         0.0600 
    171 H171        2.9532  -12.9903  -43.8164 H         1 UNK         0.0600 
    172 H172        3.7205  -14.1831  -44.8528 H         1 UNK         0.0600 
    173 H173        2.0349  -13.7648  -45.1069 H         1 UNK         0.0600 
    174 H174        0.6321  -13.9169  -43.0167 H         1 UNK         0.3000 
    175 H175       -1.0255  -15.6108  -40.3526 H         1 UNK         0.0600 
    176 H176        0.3436  -13.8513  -39.2243 H         1 UNK         0.0600 
    177 H177        0.0390  -12.7411  -40.5552 H         1 UNK         0.0600 
    178 H178       -1.2907  -13.2871  -39.5329 H         1 UNK         0.0600 
    179 H179       -1.7783  -13.4478  -42.0798 H         1 UNK         0.3000 
    180 H180       -3.0806  -15.4248  -44.7377 H         1 UNK         0.0600 
    181 H181       -4.8875  -15.4492  -43.0116 H         1 UNK         0.0600 
    182 H182       -4.5281  -13.7773  -42.5966 H         1 UNK         0.0600 
    183 H183       -5.1490  -14.1811  -44.1978 H         1 UNK         0.0600 
    184 H184       -3.1541  -12.6348  -44.3584 H         1 UNK         0.3000 
    185 H185       -1.8437  -11.4029  -45.9737 H         1 UNK         0.0600 
    186 H186       -1.3903  -10.9483  -43.5511 H         1 UNK         0.0600 
    187 H187        0.2847  -11.4492  -43.7511 H         1 UNK         0.0600 
    188 H188       -0.3134  -10.0035  -44.5630 H         1 UNK         0.0600 
    189 H189        1.0487  -11.6530  -46.0540 H         1 UNK         0.3000 
    190 H190       -0.4380  -22.8807  -49.7463 H         1 UNK         0.3000 
    191 H191       -2.6345  -24.1705  -48.7915 H         1 UNK         0.0600 
    192 H192       -1.7487  -24.3263  -51.1083 H         1 UNK         0.0600 
    193 H193       -2.3761  -22.7181  -51.4736 H         1 UNK         0.0600 
    194 H194       -3.4783  -24.0412  -51.1146 H         1 UNK         0.0600 
    195 H195       -2.4917  -20.6759  -49.4116 H         1 UNK         0.3000 
    196 H196       -5.2548  -20.0913  -49.3205 H         1 UNK         0.0600 
    197 H197       -4.5262  -17.7711  -48.9682 H         1 UNK         0.0600 
    198 H198       -3.4500  -18.5185  -50.1343 H         1 UNK         0.0600 
    199 H199       -2.9259  -18.2876  -48.4659 H         1 UNK         0.0600 
    200 H200       -3.0443  -20.8736  -46.7193 H         1 UNK         0.3000 
    201 H201       -5.0796  -20.1436  -44.6432 H         1 UNK         0.0600 
    202 H202       -3.1752  -20.4248  -43.0575 H         1 UNK         0.0600 
    203 H203       -2.0864  -20.7341  -44.4075 H         1 UNK         0.0600 
    204 H204       -2.8569  -19.1577  -44.2306 H         1 UNK         0.0600 
    205 H205       -2.8908  -22.7392  -45.8451 H         1 UNK         0.3000 
    206 H206       -3.7166  -24.6691  -43.9406 H         1 UNK         0.0600 
    207 H207       -1.5041  -24.6762  -45.0560 H         1 UNK         0.0600 
    208 H208       -2.3260  -26.2067  -45.3171 H         1 UNK         0.0600 
    209 H209       -2.2582  -25.0173  -46.6102 H         1 UNK         0.0600 
    210 H210       -4.9910  -23.9692  -47.1989 H         1 UNK         0.3000 
    211 H211       -7.0095  -26.1531  -46.9103 H         1 UNK         0.0600 
    212 H212       -6.6501  -26.6472  -49.3153 H         1 UNK         0.0600 
    213 H213       -5.1418  -26.8539  -48.4416 H         1 UNK         0.0600 
    214 H214       -5.4041  -25.4083  -49.4172 H         1 UNK         0.0600 
    215 H215       -6.6964  -22.9747  -46.8414 H         1 UNK         0.3000 
    216 H216       -7.9239  -21.1852  -47.0783 H         1 UNK         0.0600 
    217 H217      -10.3520  -21.2702  -47.4721 H         1 UNK         0.0600 
    218 H218       -9.8780  -22.5178  -46.3297 H         1 UNK         0.0600 
    219 H219      -10.2536  -22.9419  -47.9996 H         1 UNK         0.0600 
    220 H220       -8.2801  -23.2873  -49.9361 H         1 UNK         0.3000 
    221 H221       -8.5347  -21.0763  -51.8342 H         1 UNK         0.0600 
    222 H222       -8.0471  -24.0778  -52.2310 H         1 UNK         0.0600 
    223 H223       -9.6070  -23.2595  -52.2942 H         1 UNK         0.0600 
    224 H224       -8.3880  -22.9233  -53.5151 H         1 UNK         0.0600 
    225 H225       -6.8370  -19.8459  -52.4290 H         1 UNK         0.3000 
    226 H226       -4.1408  -20.3716  -51.7152 H         1 UNK         0.0600 
    227 H227       -3.6941  -18.2772  -52.9806 H         1 UNK         0.0600 
    228 H228       -5.2969  -18.3388  -53.6981 H         1 UNK         0.0600 
    229 H229       -5.1104  -18.0870  -51.9625 H         1 UNK         0.0600 
    230 H230       -5.9096  -20.9734  -54.6863 H         1 UNK         0.3000 
    231 H231       -5.5359  -22.0628  -56.5619 H         1 UNK         0.0600 
    232 H232       -4.7376  -23.8796  -54.9683 H         1 UNK         0.0600 
    233 H233       -3.0808  -23.3626  -55.2652 H         1 UNK         0.0600 
    234 H234       -4.0585  -24.0096  -56.5773 H         1 UNK         0.0600 
    235 H235       -3.3021  -22.8375  -58.0295 H         1 UNK         0.3000 
    236 H236       -2.3964  -20.2620  -59.1244 H         1 UNK         0.0600 
    237 H237       -3.3006  -21.9717  -60.6559 H         1 UNK         0.0600 
    238 H238       -1.5946  -21.7178  -60.9868 H         1 UNK         0.0600 
    239 H239       -2.1121  -23.1517  -60.1075 H         1 UNK         0.0600 
    240 H240       -1.0681  -19.6891  -57.2673 H         1 UNK         0.3000 
    241 H241        1.2376  -21.2548  -56.5550 H         1 UNK         0.0600 
    242 H242        2.5613  -19.0490  -59.6459 H         1 UNK         0.3800 
    243 H243        0.8563  -19.2725  -59.3566 H         1 UNK         0.3800 
    244 H244        0.2433  -19.9105  -54.8579 H         1 UNK         0.0800 
    245 H245        1.8562  -19.3301  -55.1114 H         1 UNK         0.0800 
    246 H246       -1.8244  -18.6058  -54.9811 H         1 UNK         0.0800 
    247 H247       -1.9003  -16.8736  -55.1499 H         1 UNK         0.0800 
@<TRIPOS>BOND
     1    1    2 1    
     2    1  127 1    
     3    1  128 1    
     4    1  129 1    
     5    2    3 2    
     6    2    4 am   BACKBONE|DICT|INTERRES
     7    4    5 1    
     8    4  130 1    
     9    5    6 1    
    10    5   65 1    
    11    5  131 1    
    12    6    7 1    
    13    6  132 1    
    14    6  133 1    
    15    7    8 1    
    16    8    9 1    
    17    8  134 1    
    18    8  135 1    
    19    9   10 ar   
    20    9   14 ar   
    21   10   11 ar   
    22   10  136 1    
    23   11   12 ar   
    24   11  126 1    
    25   12   13 ar   
    26   12  137 1    
    27   13   14 ar   
    28   13   15 1    
    29   14  138 1    
    30   15   16 1    
    31   15  139 1    
    32   15  140 1    
    33   16   17 1    
    34   17   18 1    
    35   17  141 1    
    36   17  142 1    
    37   18   19 1    
    38   18   67 1    
    39   18  143 1    
    40   19   20 am   BACKBONE|DICT|INTERRES
    41   19  144 1    
    42   20   21 2    
    43   20   22 1    
    44   22   23 1    
    45   22   24 1    
    46   22  145 1    
    47   23  146 1    
    48   23  147 1    
    49   23  148 1    
    50   24   25 am   BACKBONE|DICT|INTERRES
    51   24  149 1    
    52   25   26 2    
    53   25   27 1    
    54   27   28 1    
    55   27   29 1    
    56   27  150 1    
    57   28  151 1    
    58   28  152 1    
    59   28  153 1    
    60   29   30 am   BACKBONE|DICT|INTERRES
    61   29  154 1    
    62   30   31 2    
    63   30   32 1    
    64   32   33 1    
    65   32   34 1    
    66   32  155 1    
    67   33  156 1    
    68   33  157 1    
    69   33  158 1    
    70   34   35 am   BACKBONE|DICT|INTERRES
    71   34  159 1    
    72   35   36 2    
    73   35   37 1    
    74   37   38 1    
    75   37   39 1    
    76   37  160 1    
    77   38  161 1    
    78   38  162 1    
    79   38  163 1    
    80   39   40 am   BACKBONE|DICT|INTERRES
    81   39  164 1    
    82   40   41 2    
    83   40   42 1    
    84   42   43 1    
    85   42   44 1    
    86   42  165 1    
    87   43  166 1    
    88   43  167 1    
    89   43  168 1    
    90   44   45 am   BACKBONE|DICT|INTERRES
    91   44  169 1    
    92   45   46 2    
    93   45   47 1    
    94   47   48 1    
    95   47   49 1    
    96   47  170 1    
    97   48  171 1    
    98   48  172 1    
    99   48  173 1    
   100   49   50 am   BACKBONE|DICT|INTERRES
   101   49  174 1    
   102   50   51 2    
   103   50   52 1    
   104   52   53 1    
   105   52   54 1    
   106   52  175 1    
   107   53  176 1    
   108   53  177 1    
   109   53  178 1    
   110   54   55 am   BACKBONE|DICT|INTERRES
   111   54  179 1    
   112   55   56 2    
   113   55   57 1    
   114   57   58 1    
   115   57   59 1    
   116   57  180 1    
   117   58  181 1    
   118   58  182 1    
   119   58  183 1    
   120   59   60 am   BACKBONE|DICT|INTERRES
   121   59  184 1    
   122   60   61 2    
   123   60   62 1    
   124   62   63 1    
   125   62   64 1    
   126   62  185 1    
   127   63  186 1    
   128   63  187 1    
   129   63  188 1    
   130   64   65 am   BACKBONE|DICT|INTERRES
   131   64  189 1    
   132   65   66 2    
   133   67   68 2    
   134   67   69 am   BACKBONE|DICT|INTERRES
   135   69   70 1    
   136   69  190 1    
   137   70   71 1    
   138   70   72 1    
   139   70  191 1    
   140   71  192 1    
   141   71  193 1    
   142   71  194 1    
   143   72   73 2    
   144   72   74 am   BACKBONE|DICT|INTERRES
   145   74   75 1    
   146   74  195 1    
   147   75   76 1    
   148   75   77 1    
   149   75  196 1    
   150   76  197 1    
   151   76  198 1    
   152   76  199 1    
   153   77   78 2    
   154   77   79 am   BACKBONE|DICT|INTERRES
   155   79   80 1    
   156   79  200 1    
   157   80   81 1    
   158   80   82 1    
   159   80  201 1    
   160   81  202 1    
   161   81  203 1    
   162   81  204 1    
   163   82   83 2    
   164   82   84 am   BACKBONE|DICT|INTERRES
   165   84   85 1    
   166   84  205 1    
   167   85   86 1    
   168   85   87 1    
   169   85  206 1    
   170   86  207 1    
   171   86  208 1    
   172   86  209 1    
   173   87   88 2    
   174   87   89 am   BACKBONE|DICT|INTERRES
   175   89   90 1    
   176   89  210 1    
   177   90   91 1    
   178   90   92 1    
   179   90  211 1    
   180   91  212 1    
   181   91  213 1    
   182   91  214 1    
   183   92   93 2    
   184   92   94 am   BACKBONE|DICT|INTERRES
   185   94   95 1    
   186   94  215 1    
   187   95   96 1    
   188   95   97 1    
   189   95  216 1    
   190   96  217 1    
   191   96  218 1    
   192   96  219 1    
   193   97   98 2    
   194   97   99 am   BACKBONE|DICT|INTERRES
   195   99  100 1    
   196   99  220 1    
   197  100  101 1    
   198  100  102 1    
   199  100  221 1    
   200  101  222 1    
   201  101  223 1    
   202  101  224 1    
   203  102  103 2    
   204  102  104 am   BACKBONE|DICT|INTERRES
   205  104  105 1    
   206  104  225 1    
   207  105  106 1    
   208  105  107 1    
   209  105  226 1    
   210  106  227 1    
   211  106  228 1    
   212  106  229 1    
   213  107  108 2    
   214  107  109 am   BACKBONE|DICT|INTERRES
   215  109  110 1    
   216  109  230 1    
   217  110  111 1    
   218  110  112 1    
   219  110  231 1    
   220  111  232 1    
   221  111  233 1    
   222  111  234 1    
   223  112  113 2    
   224  112  114 am   BACKBONE|DICT|INTERRES
   225  114  115 1    
   226  114  235 1    
   227  115  116 1    
   228  115  117 1    
   229  115  236 1    
   230  116  237 1    
   231  116  238 1    
   232  116  239 1    
   233  117  118 2    
   234  117  119 am   BACKBONE|DICT|INTERRES
   235  119  120 1    
   236  119  240 1    
   237  120  121 1    
   238  120  124 1    
   239  120  241 1    
   240  121  122 am   BACKBONE|DICT|INTERRES
   241  121  123 2    
   242  122  242 1    
   243  122  243 1    
   244  124  125 1    
   245  124  244 1    
   246  124  245 1    
   247  125  126 1    
   248  126  246 1    
   249  126  247 1    
@<TRIPOS>SUBSTRUCTURE
     1 UNK         1 GROUP             0       ****    0 ROOT    
