@<TRIPOS>MOLECULE
3R540
247   249    1
SMALL
USER_CHARGES


@<TRIPOS>ATOM
      1 CA          1.0224  -15.1160  -49.0168 C.3       0 UNK        -0.1800 
      2 C           0.3301  -15.0817  -47.6627 C.2       0 UNK         0.5000 
      3 O           0.8597  -14.4994  -46.7178 O.2       0 UNK        -0.5000 
      4 N          -0.8648  -15.6803  -47.5646 N.am      1 UNK        -0.5000 
      5 CA         -1.6447  -15.7883  -46.3222 C.3       1 UNK         0.1400 
      6 C6         -2.8109  -16.8025  -46.4436 C.3       23 UNK        -0.0398 
      7 S7         -2.2253  -18.5030  -46.7583 S.3       23 UNK        -0.2404 
      8 C8         -2.6295  -18.7464  -48.5155 C.3       23 UNK        -0.0205 
      9 C9         -1.5326  -19.5189  -49.2322 C.ar      23 UNK        -0.0193 
     10 C10        -1.7587  -20.8116  -49.7134 C.ar      23 UNK        -0.1150 
     11 C11        -0.7601  -21.4912  -50.4193 C.ar      23 UNK        -0.0193 
     12 C12         0.4745  -20.8729  -50.6300 C.ar      23 UNK        -0.1150 
     13 C13         0.7254  -19.5976  -50.1202 C.ar      23 UNK        -0.0193 
     14 C14        -0.2841  -18.9247  -49.4304 C.ar      23 UNK        -0.1150 
     15 C15         2.0860  -18.9457  -50.3089 C.3       23 UNK        -0.0205 
     16 S16         3.4187  -19.8384  -49.4439 S.3       23 UNK        -0.2404 
     17 C17         2.8813  -19.7887  -47.6969 C.3       23 UNK        -0.0398 
     18 CA          2.9763  -21.1756  -47.0074 C.3       11 UNK         0.1400 
     19 N           3.2471  -21.0408  -45.5735 N.am      11 UNK        -0.5000 
     20 C           3.9635  -21.9236  -44.8645 C.2       10 UNK         0.5000 
     21 O           4.3196  -23.0203  -45.2978 O.2       10 UNK        -0.5000 
     22 CA          4.4002  -21.4949  -43.4512 C.3       10 UNK         0.1400 
     23 CB          5.5149  -20.4389  -43.5219 C.3       10 UNK        -0.1800 
     24 N           3.2947  -20.9775  -42.6525 N.am      10 UNK        -0.5000 
     25 C           2.3361  -21.7402  -42.1117 C.2       9 UNK         0.5000 
     26 O           2.3203  -22.9702  -42.1760 O.2       9 UNK        -0.5000 
     27 CA          1.1905  -21.0062  -41.3886 C.3       9 UNK         0.1400 
     28 CB          1.5540  -20.7568  -39.9172 C.3       9 UNK        -0.1800 
     29 N           0.8114  -19.7381  -42.0163 N.am      9 UNK        -0.5000 
     30 C           0.3851  -19.6094  -43.2808 C.2       8 UNK         0.5000 
     31 O           0.2969  -20.5452  -44.0714 O.2       8 UNK        -0.5000 
     32 CA          0.0647  -18.1874  -43.7647 C.3       8 UNK         0.1400 
     33 CB         -1.2229  -17.6607  -43.1075 C.3       8 UNK        -0.1800 
     34 N           1.1705  -17.2630  -43.5257 N.am      8 UNK        -0.5000 
     35 C           2.4043  -17.4039  -44.0333 C.2       7 UNK         0.5000 
     36 O           2.7318  -18.3010  -44.8096 O.2       7 UNK        -0.5000 
     37 CA          3.4717  -16.4190  -43.5305 C.3       7 UNK         0.1400 
     38 CB          3.3948  -15.0832  -44.2859 C.3       7 UNK        -0.1800 
     39 N           3.3564  -16.1914  -42.0895 N.am      7 UNK        -0.5000 
     40 C           3.5992  -17.1237  -41.1555 C.2       6 UNK         0.5000 
     41 O           4.0032  -18.2588  -41.4083 O.2       6 UNK        -0.5000 
     42 CA          3.2971  -16.7317  -39.6977 C.3       6 UNK         0.1400 
     43 CB          4.4718  -15.9498  -39.0913 C.3       6 UNK        -0.1800 
     44 N           2.0726  -15.9384  -39.5787 N.am      6 UNK        -0.5000 
     45 C           0.8393  -16.4090  -39.8152 C.2       5 UNK         0.5000 
     46 O           0.6004  -17.5818  -40.0990 O.2       5 UNK        -0.5000 
     47 CA         -0.3122  -15.3854  -39.7772 C.3       5 UNK         0.1400 
     48 CB         -0.8698  -15.2512  -38.3527 C.3       5 UNK        -0.1800 
     49 N           0.0883  -14.0646  -40.2719 N.am      5 UNK        -0.5000 
     50 C           0.4600  -13.8169  -41.5341 C.2       4 UNK         0.5000 
     51 O           0.4631  -14.6688  -42.4260 O.2       4 UNK        -0.5000 
     52 CA          0.9911  -12.4092  -41.8264 C.3       4 UNK         0.1400 
     53 CB          2.4573  -12.3003  -41.3562 C.3       4 UNK        -0.1800 
     54 N           0.8901  -12.1584  -43.2608 N.am      4 UNK        -0.5000 
     55 C           1.1178  -10.9910  -43.8732 C.2       3 UNK         0.5000 
     56 O           1.4220   -9.9525  -43.2847 O.2       3 UNK        -0.5000 
     57 CA          0.9706  -10.9759  -45.4041 C.3       3 UNK         0.1400 
     58 CB          2.2285  -11.5480  -46.0765 C.3       3 UNK        -0.1800 
     59 N          -0.2150  -11.6999  -45.8684 N.am      3 UNK        -0.5000 
     60 C          -1.4690  -11.2366  -45.7380 C.2       2 UNK         0.5000 
     61 O          -1.7427  -10.1782  -45.1703 O.2       2 UNK        -0.5000 
     62 CA         -2.6159  -12.0540  -46.3676 C.3       2 UNK         0.1400 
     63 CB         -3.1182  -11.3707  -47.6495 C.3       2 UNK        -0.1800 
     64 N          -2.2408  -13.4287  -46.6915 N.am      2 UNK        -0.5000 
     65 C          -2.1558  -14.4262  -45.8020 C.2       1 UNK         0.5000 
     66 O          -2.4472  -14.3005  -44.6128 O.2       1 UNK        -0.5000 
     67 C           1.7629  -22.0760  -47.3280 C.2       11 UNK         0.5000 
     68 O           1.7748  -22.7294  -48.3729 O.2       11 UNK        -0.5000 
     69 N           0.7436  -22.1122  -46.4544 N.am      12 UNK        -0.5000 
     70 CA         -0.5263  -22.8109  -46.6825 C.3       12 UNK         0.1400 
     71 CB         -1.6019  -22.2869  -45.7166 C.3       12 UNK        -0.1800 
     72 C          -0.4143  -24.3481  -46.6321 C.2       12 UNK         0.5000 
     73 O          -0.8802  -24.9811  -45.6827 O.2       12 UNK        -0.5000 
     74 N           0.1618  -24.9291  -47.6906 N.am      13 UNK        -0.5000 
     75 CA          0.1305  -26.3640  -47.9923 C.3       13 UNK         0.1400 
     76 CB          1.1381  -26.6526  -49.1153 C.3       13 UNK        -0.1800 
     77 C          -1.2792  -26.8573  -48.3902 C.2       13 UNK         0.5000 
     78 O          -1.5612  -28.0523  -48.2965 O.2       13 UNK        -0.5000 
     79 N          -2.1343  -25.9203  -48.8098 N.am      14 UNK        -0.5000 
     80 CA         -3.5536  -26.0696  -49.0887 C.3       14 UNK         0.1400 
     81 CB         -3.7545  -26.3757  -50.5827 C.3       14 UNK        -0.1800 
     82 C          -4.2332  -24.7482  -48.6981 C.2       14 UNK         0.5000 
     83 O          -3.5533  -23.7261  -48.5547 O.2       14 UNK        -0.5000 
     84 N          -5.5640  -24.7703  -48.5630 N.am      15 UNK        -0.5000 
     85 CA         -6.3991  -23.6104  -48.2343 C.3       15 UNK         0.1400 
     86 CB         -7.7294  -24.1115  -47.6436 C.3       15 UNK        -0.1800 
     87 C          -6.6005  -22.6889  -49.4571 C.2       15 UNK         0.5000 
     88 O          -7.7200  -22.5409  -49.9483 O.2       15 UNK        -0.5000 
     89 N          -5.4869  -22.1431  -49.9660 N.am      16 UNK        -0.5000 
     90 CA         -5.3360  -21.2761  -51.1451 C.3       16 UNK         0.1400 
     91 CB         -6.1571  -19.9803  -50.9915 C.3       16 UNK        -0.1800 
     92 C          -5.6008  -21.9618  -52.5020 C.2       16 UNK         0.5000 
     93 O          -5.4209  -21.3174  -53.5397 O.2       16 UNK        -0.5000 
     94 N          -6.0149  -23.2386  -52.4722 N.am      17 UNK        -0.5000 
     95 CA         -6.2897  -24.1506  -53.5914 C.3       17 UNK         0.1400 
     96 CB         -4.9762  -24.4978  -54.3205 C.3       17 UNK        -0.1800 
     97 C          -7.3822  -23.6646  -54.5699 C.2       17 UNK         0.5000 
     98 O          -7.4845  -24.1980  -55.6756 O.2       17 UNK        -0.5000 
     99 N          -8.1543  -22.6443  -54.1603 N.am      18 UNK        -0.5000 
    100 CA        -9.0677  -21.8359  -54.9785 C.3       18 UNK         0.1400 
    101 CB       -10.2971  -22.6629  -55.4085 C.3       18 UNK        -0.1800 
    102 C         -8.3517  -21.1524  -56.1686 C.2       18 UNK         0.5000 
    103 O         -8.9655  -20.9331  -57.2144 O.2       18 UNK        -0.5000 
    104 N         -7.0583  -20.8485  -55.9902 N.am      19 UNK        -0.5000 
    105 CA        -6.1394  -20.4050  -57.0361 C.3       19 UNK         0.1400 
    106 CB        -5.2120  -21.5778  -57.4059 C.3       19 UNK        -0.1800 
    107 C         -5.3589  -19.1541  -56.5991 C.2       19 UNK         0.5000 
    108 O         -4.2067  -18.9872  -57.0004 O.2       19 UNK        -0.5000 
    109 N         -5.9985  -18.2984  -55.7858 N.am      20 UNK        -0.5000 
    110 CA        -5.5012  -17.0048  -55.2997 C.3       20 UNK         0.1400 
    111 CB        -5.4708  -15.9791  -56.4523 C.3       20 UNK        -0.1800 
    112 C         -4.1473  -17.1302  -54.5705 C.2       20 UNK         0.5000 
    113 O         -3.1506  -16.5496  -55.0040 O.2       20 UNK        -0.5000 
    114 N         -4.1547  -17.9212  -53.4882 N.am      21 UNK        -0.5000 
    115 CA        -3.0005  -18.3035  -52.6667 C.3       21 UNK         0.1400 
    116 CB        -2.3044  -17.0713  -52.0459 C.3       21 UNK        -0.1800 
    117 C         -2.0441  -19.2467  -53.4243 C.2       21 UNK         0.5000 
    118 O         -0.8342  -19.0161  -53.4506 O.2       21 UNK        -0.5000 
    119 N         -2.6231  -20.3034  -54.0139 N.am      22 UNK        -0.5000 
    120 CA        -1.9183  -21.4146  -54.6771 C.3       22 UNK         0.1400 
    121 C         -1.1015  -21.0035  -55.9412 C.2       22 UNK         0.5000 
    122 N         -1.5525  -20.0336  -56.7260 N.am      22 UNK        -0.7600 
    123 O         -0.0562  -21.5777  -56.2364 O.2       22 UNK        -0.5000 
    124 C124       -1.0983  -22.2860  -53.6814 C.3       23 UNK        -0.0398 
    125 S125       -2.1241  -22.9777  -52.3374 S.3       23 UNK        -0.2404 
    126 C126       -0.9933  -22.9093  -50.9158 C.3       23 UNK        -0.0205 
    127 H127        1.2142  -14.1007  -49.3637 H         1 UNK         0.0600 
    128 H128        1.9778  -15.6334  -48.9329 H         1 UNK         0.0600 
    129 H129        0.4210  -15.6246  -49.7707 H         1 UNK         0.0600 
    130 H130       -1.2672  -16.1259  -48.3747 H         1 UNK         0.3000 
    131 H131       -0.9560  -16.1543  -45.5613 H         1 UNK         0.0600 
    132 H132       -3.3802  -16.8354  -45.5126 H         1 UNK         0.0800 
    133 H133       -3.5186  -16.4956  -47.2152 H         1 UNK         0.0800 
    134 H134       -2.7614  -17.7867  -49.0154 H         1 UNK         0.0800 
    135 H135       -3.5859  -19.2662  -48.5902 H         1 UNK         0.0800 
    136 H136       -2.7065  -21.2952  -49.5338 H         1 UNK         0.1150 
    137 H137        1.2575  -21.3968  -51.1594 H         1 UNK         0.1150 
    138 H138       -0.0964  -17.9368  -49.0399 H         1 UNK         0.1150 
    139 H139        2.3160  -18.9121  -51.3746 H         1 UNK         0.0800 
    140 H140        2.0740  -17.9106  -49.9660 H         1 UNK         0.0800 
    141 H141        1.8827  -19.3614  -47.5942 H         1 UNK         0.0800 
    142 H142        3.5512  -19.0825  -47.2052 H         1 UNK         0.0800 
    143 H143        3.8438  -21.6811  -47.4386 H         1 UNK         0.0600 
    144 H144        2.9889  -20.1527  -45.1498 H         1 UNK         0.3000 
    145 H145        4.8076  -22.3739  -42.9470 H         1 UNK         0.0600 
    146 H146        5.8916  -20.1988  -42.5274 H         1 UNK         0.0600 
    147 H147        6.3587  -20.7990  -44.1117 H         1 UNK         0.0600 
    148 H148        5.1661  -19.5114  -43.9774 H         1 UNK         0.0600 
    149 H149        3.2604  -19.9749  -42.5095 H         1 UNK         0.3000 
    150 H150        0.3152  -21.6582  -41.4180 H         1 UNK         0.0600 
    151 H151        1.8272  -21.6869  -39.4174 H         1 UNK         0.0600 
    152 H152        0.7135  -20.3288  -39.3705 H         1 UNK         0.0600 
    153 H153        2.3975  -20.0719  -39.8237 H         1 UNK         0.0600 
    154 H154        0.8413  -18.9133  -41.4219 H         1 UNK         0.3000 
    155 H155       -0.0850  -18.2317  -44.8437 H         1 UNK         0.0600 
    156 H156       -1.1852  -17.7268  -42.0212 H         1 UNK         0.0600 
    157 H157       -2.0859  -18.2402  -43.4369 H         1 UNK         0.0600 
    158 H158       -1.4122  -16.6187  -43.3612 H         1 UNK         0.0600 
    159 H159        0.9750  -16.4573  -42.9389 H         1 UNK         0.3000 
    160 H160        4.4513  -16.8609  -43.7251 H         1 UNK         0.0600 
    161 H161        4.1723  -14.3946  -43.9554 H         1 UNK         0.0600 
    162 H162        2.4315  -14.5927  -44.1513 H         1 UNK         0.0600 
    163 H163        3.5291  -15.2362  -45.3575 H         1 UNK         0.0600 
    164 H164        2.9845  -15.3009  -41.7990 H         1 UNK         0.3000 
    165 H165        3.1659  -17.6519  -39.1243 H         1 UNK         0.0600 
    166 H166        4.2975  -15.7315  -38.0375 H         1 UNK         0.0600 
    167 H167        5.3965  -16.5251  -39.1543 H         1 UNK         0.0600 
    168 H168        4.6380  -15.0034  -39.6075 H         1 UNK         0.0600 
    169 H169        2.1792  -14.9649  -39.3368 H         1 UNK         0.3000 
    170 H170       -1.1097  -15.7599  -40.4223 H         1 UNK         0.0600 
    171 H171       -1.1941  -16.2193  -37.9685 H         1 UNK         0.0600 
    172 H172       -0.1234  -14.8571  -37.6618 H         1 UNK         0.0600 
    173 H173       -1.7343  -14.5875  -38.3286 H         1 UNK         0.0600 
    174 H174        0.1151  -13.3171  -39.5930 H         1 UNK         0.3000 
    175 H175        0.3726  -11.6830  -41.2954 H         1 UNK         0.0600 
    176 H176        3.1104  -12.9669  -41.9204 H         1 UNK         0.0600 
    177 H177        2.8423  -11.2872  -41.4688 H         1 UNK         0.0600 
    178 H178        2.5565  -12.5574  -40.3010 H         1 UNK         0.0600 
    179 H179        0.6140  -12.9672  -43.8048 H         1 UNK         0.3000 
    180 H180        0.8747   -9.9341  -45.7181 H         1 UNK         0.0600 
    181 H181        2.4179  -12.5777  -45.7734 H         1 UNK         0.0600 
    182 H182        3.1102  -10.9640  -45.8103 H         1 UNK         0.0600 
    183 H183        2.1408  -11.5290  -47.1629 H         1 UNK         0.0600 
    184 H184       -0.0555  -12.5991  -46.3072 H         1 UNK         0.3000 
    185 H185       -3.4379  -12.0728  -45.6487 H         1 UNK         0.0600 
    186 H186       -3.4445  -10.3497  -47.4472 H         1 UNK         0.0600 
    187 H187       -2.3391  -11.3212  -48.4112 H         1 UNK         0.0600 
    188 H188       -3.9698  -11.9035  -48.0731 H         1 UNK         0.0600 
    189 H189       -1.9782  -13.6151  -47.6482 H         1 UNK         0.3000 
    190 H190        0.7981  -21.5646  -45.5988 H         1 UNK         0.3000 
    191 H191       -0.8647  -22.5540  -47.6869 H         1 UNK         0.0600 
    192 H192       -1.3589  -22.5132  -44.6780 H         1 UNK         0.0600 
    193 H193       -2.5714  -22.7373  -45.9336 H         1 UNK         0.0600 
    194 H194       -1.7215  -21.2088  -45.8073 H         1 UNK         0.0600 
    195 H195        0.6338  -24.3219  -48.3546 H         1 UNK         0.3000 
    196 H196        0.4371  -26.9125  -47.0995 H         1 UNK         0.0600 
    197 H197        1.1667  -27.7171  -49.3511 H         1 UNK         0.0600 
    198 H198        2.1466  -26.3567  -48.8257 H         1 UNK         0.0600 
    199 H199        0.8818  -26.1190  -50.0317 H         1 UNK         0.0600 
    200 H200       -1.8358  -24.9548  -48.7810 H         1 UNK         0.3000 
    201 H201       -3.9711  -26.8734  -48.4790 H         1 UNK         0.0600 
    202 H202       -4.8111  -26.4986  -50.8228 H         1 UNK         0.0600 
    203 H203       -3.2480  -27.2982  -50.8668 H         1 UNK         0.0600 
    204 H204       -3.3655  -25.5748  -51.2124 H         1 UNK         0.0600 
    205 H205       -6.0553  -25.6386  -48.7201 H         1 UNK         0.3000 
    206 H206       -5.8974  -23.0205  -47.4640 H         1 UNK         0.0600 
    207 H207       -7.5621  -24.7056  -46.7451 H         1 UNK         0.0600 
    208 H208       -8.3721  -23.2760  -47.3630 H         1 UNK         0.0600 
    209 H209       -8.2815  -24.7272  -48.3548 H         1 UNK         0.0600 
    210 H210       -4.6193  -22.4194  -49.5139 H         1 UNK         0.3000 
    211 H211       -4.2847  -20.9943  -51.1733 H         1 UNK         0.0600 
    212 H212       -7.2295  -20.1748  -50.9753 H         1 UNK         0.0600 
    213 H213       -5.9726  -19.2926  -51.8154 H         1 UNK         0.0600 
    214 H214       -5.8973  -19.4580  -50.0708 H         1 UNK         0.0600 
    215 H215       -6.1684  -23.6324  -51.5555 H         1 UNK         0.3000 
    216 H216       -6.6742  -25.0696  -53.1471 H         1 UNK         0.0600 
    217 H217       -4.5512  -23.6272  -54.8187 H         1 UNK         0.0600 
    218 H218       -5.1337  -25.2651  -55.0790 H         1 UNK         0.0600 
    219 H219       -4.2306  -24.8831  -53.6253 H         1 UNK         0.0600 
    220 H220       -7.9932  -22.3024  -53.2235 H         1 UNK         0.3000 
    221 H221       -9.4214  -21.0290  -54.3354 H         1 UNK         0.0600 
    222 H222      -10.0309  -23.4484  -56.1163 H         1 UNK         0.0600 
    223 H223      -10.7755  -23.1334  -54.5496 H         1 UNK         0.0600 
    224 H224      -11.0450  -22.0311  -55.8888 H         1 UNK         0.0600 
    225 H225       -6.6270  -21.0490  -55.0920 H         1 UNK         0.3000 
    226 H226       -6.6927  -20.1159  -57.9314 H         1 UNK         0.0600 
    227 H227       -5.7864  -22.4498  -57.7194 H         1 UNK         0.0600 
    228 H228       -4.5471  -21.3147  -58.2294 H         1 UNK         0.0600 
    229 H229       -4.5914  -21.8746  -56.5610 H         1 UNK         0.0600 
    230 H230       -6.9356  -18.5461  -55.5012 H         1 UNK         0.3000 
    231 H231       -6.2212  -16.6466  -54.5622 H         1 UNK         0.0600 
    232 H232       -6.4538  -15.8734  -56.9111 H         1 UNK         0.0600 
    233 H233       -4.7663  -16.2659  -57.2339 H         1 UNK         0.0600 
    234 H234       -5.1744  -14.9940  -56.0901 H         1 UNK         0.0600 
    235 H235       -5.0266  -18.3720  -53.2528 H         1 UNK         0.3000 
    236 H236       -3.3957  -18.8871  -51.8355 H         1 UNK         0.0600 
    237 H237       -1.5213  -17.3756  -51.3534 H         1 UNK         0.0600 
    238 H238       -1.8298  -16.4414  -52.7978 H         1 UNK         0.0600 
    239 H239       -3.0114  -16.4572  -51.4885 H         1 UNK         0.0600 
    240 H240       -3.6283  -20.4129  -53.9517 H         1 UNK         0.3000 
    241 H241       -2.7053  -22.0574  -55.0697 H         1 UNK         0.0600 
    242 H242       -2.4505  -19.5855  -56.5634 H         1 UNK         0.3800 
    243 H243       -1.0189  -19.7767  -57.5403 H         1 UNK         0.3800 
    244 H244       -0.6407  -23.1305  -54.1989 H         1 UNK         0.0800 
    245 H245       -0.2754  -21.7054  -53.2644 H         1 UNK         0.0800 
    246 H246       -0.0505  -23.3916  -51.1787 H         1 UNK         0.0800 
    247 H247       -1.4171  -23.4994  -50.1059 H         1 UNK         0.0800 
@<TRIPOS>BOND
     1    1    2 1    
     2    1  127 1    
     3    1  128 1    
     4    1  129 1    
     5    2    3 2    
     6    2    4 am   BACKBONE|DICT|INTERRES
     7    4    5 1    
     8    4  130 1    
     9    5    6 1    
    10    5   65 1    
    11    5  131 1    
    12    6    7 1    
    13    6  132 1    
    14    6  133 1    
    15    7    8 1    
    16    8    9 1    
    17    8  134 1    
    18    8  135 1    
    19    9   10 ar   
    20    9   14 ar   
    21   10   11 ar   
    22   10  136 1    
    23   11   12 ar   
    24   11  126 1    
    25   12   13 ar   
    26   12  137 1    
    27   13   14 ar   
    28   13   15 1    
    29   14  138 1    
    30   15   16 1    
    31   15  139 1    
    32   15  140 1    
    33   16   17 1    
    34   17   18 1    
    35   17  141 1    
    36   17  142 1    
    37   18   19 1    
    38   18   67 1    
    39   18  143 1    
    40   19   20 am   BACKBONE|DICT|INTERRES
    41   19  144 1    
    42   20   21 2    
    43   20   22 1    
    44   22   23 1    
    45   22   24 1    
    46   22  145 1    
    47   23  146 1    
    48   23  147 1    
    49   23  148 1    
    50   24   25 am   BACKBONE|DICT|INTERRES
    51   24  149 1    
    52   25   26 2    
    53   25   27 1    
    54   27   28 1    
    55   27   29 1    
    56   27  150 1    
    57   28  151 1    
    58   28  152 1    
    59   28  153 1    
    60   29   30 am   BACKBONE|DICT|INTERRES
    61   29  154 1    
    62   30   31 2    
    63   30   32 1    
    64   32   33 1    
    65   32   34 1    
    66   32  155 1    
    67   33  156 1    
    68   33  157 1    
    69   33  158 1    
    70   34   35 am   BACKBONE|DICT|INTERRES
    71   34  159 1    
    72   35   36 2    
    73   35   37 1    
    74   37   38 1    
    75   37   39 1    
    76   37  160 1    
    77   38  161 1    
    78   38  162 1    
    79   38  163 1    
    80   39   40 am   BACKBONE|DICT|INTERRES
    81   39  164 1    
    82   40   41 2    
    83   40   42 1    
    84   42   43 1    
    85   42   44 1    
    86   42  165 1    
    87   43  166 1    
    88   43  167 1    
    89   43  168 1    
    90   44   45 am   BACKBONE|DICT|INTERRES
    91   44  169 1    
    92   45   46 2    
    93   45   47 1    
    94   47   48 1    
    95   47   49 1    
    96   47  170 1    
    97   48  171 1    
    98   48  172 1    
    99   48  173 1    
   100   49   50 am   BACKBONE|DICT|INTERRES
   101   49  174 1    
   102   50   51 2    
   103   50   52 1    
   104   52   53 1    
   105   52   54 1    
   106   52  175 1    
   107   53  176 1    
   108   53  177 1    
   109   53  178 1    
   110   54   55 am   BACKBONE|DICT|INTERRES
   111   54  179 1    
   112   55   56 2    
   113   55   57 1    
   114   57   58 1    
   115   57   59 1    
   116   57  180 1    
   117   58  181 1    
   118   58  182 1    
   119   58  183 1    
   120   59   60 am   BACKBONE|DICT|INTERRES
   121   59  184 1    
   122   60   61 2    
   123   60   62 1    
   124   62   63 1    
   125   62   64 1    
   126   62  185 1    
   127   63  186 1    
   128   63  187 1    
   129   63  188 1    
   130   64   65 am   BACKBONE|DICT|INTERRES
   131   64  189 1    
   132   65   66 2    
   133   67   68 2    
   134   67   69 am   BACKBONE|DICT|INTERRES
   135   69   70 1    
   136   69  190 1    
   137   70   71 1    
   138   70   72 1    
   139   70  191 1    
   140   71  192 1    
   141   71  193 1    
   142   71  194 1    
   143   72   73 2    
   144   72   74 am   BACKBONE|DICT|INTERRES
   145   74   75 1    
   146   74  195 1    
   147   75   76 1    
   148   75   77 1    
   149   75  196 1    
   150   76  197 1    
   151   76  198 1    
   152   76  199 1    
   153   77   78 2    
   154   77   79 am   BACKBONE|DICT|INTERRES
   155   79   80 1    
   156   79  200 1    
   157   80   81 1    
   158   80   82 1    
   159   80  201 1    
   160   81  202 1    
   161   81  203 1    
   162   81  204 1    
   163   82   83 2    
   164   82   84 am   BACKBONE|DICT|INTERRES
   165   84   85 1    
   166   84  205 1    
   167   85   86 1    
   168   85   87 1    
   169   85  206 1    
   170   86  207 1    
   171   86  208 1    
   172   86  209 1    
   173   87   88 2    
   174   87   89 am   BACKBONE|DICT|INTERRES
   175   89   90 1    
   176   89  210 1    
   177   90   91 1    
   178   90   92 1    
   179   90  211 1    
   180   91  212 1    
   181   91  213 1    
   182   91  214 1    
   183   92   93 2    
   184   92   94 am   BACKBONE|DICT|INTERRES
   185   94   95 1    
   186   94  215 1    
   187   95   96 1    
   188   95   97 1    
   189   95  216 1    
   190   96  217 1    
   191   96  218 1    
   192   96  219 1    
   193   97   98 2    
   194   97   99 am   BACKBONE|DICT|INTERRES
   195   99  100 1    
   196   99  220 1    
   197  100  101 1    
   198  100  102 1    
   199  100  221 1    
   200  101  222 1    
   201  101  223 1    
   202  101  224 1    
   203  102  103 2    
   204  102  104 am   BACKBONE|DICT|INTERRES
   205  104  105 1    
   206  104  225 1    
   207  105  106 1    
   208  105  107 1    
   209  105  226 1    
   210  106  227 1    
   211  106  228 1    
   212  106  229 1    
   213  107  108 2    
   214  107  109 am   BACKBONE|DICT|INTERRES
   215  109  110 1    
   216  109  230 1    
   217  110  111 1    
   218  110  112 1    
   219  110  231 1    
   220  111  232 1    
   221  111  233 1    
   222  111  234 1    
   223  112  113 2    
   224  112  114 am   BACKBONE|DICT|INTERRES
   225  114  115 1    
   226  114  235 1    
   227  115  116 1    
   228  115  117 1    
   229  115  236 1    
   230  116  237 1    
   231  116  238 1    
   232  116  239 1    
   233  117  118 2    
   234  117  119 am   BACKBONE|DICT|INTERRES
   235  119  120 1    
   236  119  240 1    
   237  120  121 1    
   238  120  124 1    
   239  120  241 1    
   240  121  122 am   BACKBONE|DICT|INTERRES
   241  121  123 2    
   242  122  242 1    
   243  122  243 1    
   244  124  125 1    
   245  124  244 1    
   246  124  245 1    
   247  125  126 1    
   248  126  246 1    
   249  126  247 1    
@<TRIPOS>SUBSTRUCTURE
     1 UNK         1 GROUP             0       ****    0 ROOT    
