@<TRIPOS>MOLECULE
3R540
247   249    1
SMALL
USER_CHARGES


@<TRIPOS>ATOM
      1 CA         -3.5826  -14.9034  -46.6126 C.3       0 UNK        -0.1800 
      2 C          -2.3662  -13.9913  -46.5620 C.2       0 UNK         0.5000 
      3 O          -1.6565  -13.9817  -45.5586 O.2       0 UNK        -0.5000 
      4 N          -2.1264  -13.2284  -47.6369 N.am      1 UNK        -0.5000 
      5 CA         -0.9893  -12.3074  -47.8371 C.3       1 UNK         0.1400 
      6 C6          0.4194  -12.9630  -47.6957 C.3       23 UNK        -0.0398 
      7 S7          0.6421  -14.6477  -48.3613 S.3       23 UNK        -0.2404 
      8 C8         -0.0846  -14.5547  -50.0237 C.3       23 UNK        -0.0205 
      9 C9         -0.2700  -15.9547  -50.5764 C.ar      23 UNK        -0.0193 
     10 C10         0.6556  -16.4927  -51.4718 C.ar      23 UNK        -0.1150 
     11 C11         0.5130  -17.7962  -51.9554 C.ar      23 UNK        -0.0193 
     12 C12        -0.5893  -18.5569  -51.5348 C.ar      23 UNK        -0.1150 
     13 C13        -1.5119  -18.0333  -50.6228 C.ar      23 UNK        -0.0193 
     14 C14        -1.3540  -16.7279  -50.1577 C.ar      23 UNK        -0.1150 
     15 C15        -2.6703  -18.8773  -50.1155 C.3       23 UNK        -0.0205 
     16 S16        -2.2862  -19.6406  -48.5135 S.3       23 UNK        -0.2404 
     17 C17        -1.0096  -20.8536  -49.0056 C.3       23 UNK        -0.0398 
     18 CA         -0.8648  -22.1733  -48.1880 C.3       11 UNK         0.1400 
     19 N           0.3931  -22.2165  -47.4426 N.am      11 UNK        -0.5000 
     20 C           1.0396  -23.3520  -47.1427 C.2       10 UNK         0.5000 
     21 O           0.6575  -24.4695  -47.4888 O.2       10 UNK        -0.5000 
     22 CA          2.3162  -23.2274  -46.2957 C.3       10 UNK         0.1400 
     23 CB          3.5398  -23.0361  -47.2030 C.3       10 UNK        -0.1800 
     24 N           2.2549  -22.1451  -45.3127 N.am      10 UNK        -0.5000 
     25 C           1.4223  -22.1239  -44.2619 C.2       9 UNK         0.5000 
     26 O           0.5739  -22.9951  -44.0680 O.2       9 UNK        -0.5000 
     27 CA          1.5047  -20.9413  -43.2737 C.3       9 UNK         0.1400 
     28 CB          1.6713  -21.4254  -41.8200 C.3       9 UNK        -0.1800 
     29 N           2.4971  -19.9145  -43.6032 N.am      9 UNK        -0.5000 
     30 C           3.8341  -19.9966  -43.6256 C.2       8 UNK         0.5000 
     31 O           4.4732  -21.0064  -43.3269 O.2       8 UNK        -0.5000 
     32 CA          4.5534  -18.7232  -44.1198 C.3       8 UNK         0.1400 
     33 CB          6.0717  -18.9132  -44.3203 C.3       8 UNK        -0.1800 
     34 N           3.9190  -18.1795  -45.3292 N.am      8 UNK        -0.5000 
     35 C           3.7936  -18.7896  -46.5180 C.2       7 UNK         0.5000 
     36 O           4.2935  -19.8833  -46.7801 O.2       7 UNK        -0.5000 
     37 CA          2.9259  -18.0604  -47.5667 C.3       7 UNK         0.1400 
     38 CB          2.6525  -18.9153  -48.8222 C.3       7 UNK        -0.1800 
     39 N           1.6696  -17.5586  -46.9977 N.am      7 UNK        -0.5000 
     40 C           0.6909  -18.2807  -46.4334 C.2       6 UNK         0.5000 
     41 O           0.7059  -19.5117  -46.3401 O.2       6 UNK        -0.5000 
     42 CA         -0.4858  -17.4680  -45.8490 C.3       6 UNK         0.1400 
     43 CB         -1.4780  -18.3437  -45.0627 C.3       6 UNK        -0.1800 
     44 N          -0.0891  -16.3294  -45.0083 N.am      6 UNK        -0.5000 
     45 C           0.7647  -16.3336  -43.9719 C.2       5 UNK         0.5000 
     46 O           1.4931  -17.2805  -43.6799 O.2       5 UNK        -0.5000 
     47 CA          0.7828  -15.0770  -43.0816 C.3       5 UNK         0.1400 
     48 CB          1.7269  -14.0094  -43.6496 C.3       5 UNK        -0.1800 
     49 N          -0.5525  -14.5072  -42.9017 N.am      5 UNK        -0.5000 
     50 C          -1.5285  -15.0799  -42.1835 C.2       4 UNK         0.5000 
     51 O          -1.3699  -16.1062  -41.5193 O.2       4 UNK        -0.5000 
     52 CA         -2.9087  -14.3877  -42.2244 C.3       4 UNK         0.1400 
     53 CB         -3.8818  -14.9150  -41.1493 C.3       4 UNK        -0.1800 
     54 N          -2.8316  -12.9231  -42.1733 N.am      4 UNK        -0.5000 
     55 C          -2.2740  -12.1626  -41.2171 C.2       3 UNK         0.5000 
     56 O          -1.7498  -12.6191  -40.1999 O.2       3 UNK        -0.5000 
     57 CA         -2.3360  -10.6288  -41.4174 C.3       3 UNK         0.1400 
     58 CB         -1.0701   -9.9169  -40.8944 C.3       3 UNK        -0.1800 
     59 N          -2.6463  -10.2028  -42.7920 N.am      3 UNK        -0.5000 
     60 C          -1.9082  -10.4157  -43.8909 C.2       2 UNK         0.5000 
     61 O          -0.8292  -11.0116  -43.8810 O.2       2 UNK        -0.5000 
     62 CA         -2.5147   -9.8978  -45.2121 C.3       2 UNK         0.1400 
     63 CB         -2.0934   -8.4442  -45.5048 C.3       2 UNK        -0.1800 
     64 N          -2.2356  -10.8077  -46.3292 N.am      2 UNK        -0.5000 
     65 C          -1.0741  -11.0299  -46.9644 C.2       1 UNK         0.5000 
     66 O          -0.0903  -10.2922  -46.8849 O.2       1 UNK        -0.5000 
     67 C          -2.0493  -22.5469  -47.2710 C.2       11 UNK         0.5000 
     68 O          -2.9426  -23.2735  -47.7077 O.2       11 UNK        -0.5000 
     69 N          -2.0109  -22.0905  -46.0084 N.am      12 UNK        -0.5000 
     70 CA         -3.0176  -22.3779  -44.9809 C.3       12 UNK         0.1400 
     71 CB         -2.7870  -21.4779  -43.7575 C.3       12 UNK        -0.1800 
     72 C          -3.0513  -23.8576  -44.5591 C.2       12 UNK         0.5000 
     73 O          -4.1178  -24.3660  -44.2144 O.2       12 UNK        -0.5000 
     74 N          -1.8923  -24.5265  -44.6206 N.am      13 UNK        -0.5000 
     75 CA         -1.7426  -25.9694  -44.4257 C.3       13 UNK         0.1400 
     76 CB         -0.2497  -26.2911  -44.2548 C.3       13 UNK        -0.1800 
     77 C          -2.3506  -26.8089  -45.5703 C.2       13 UNK         0.5000 
     78 O          -2.5746  -28.0058  -45.3824 O.2       13 UNK        -0.5000 
     79 N          -2.6006  -26.1767  -46.7234 N.am      14 UNK        -0.5000 
     80 CA         -3.2461  -26.7526  -47.8958 C.3       14 UNK         0.1400 
     81 CB         -2.3352  -26.5194  -49.1170 C.3       14 UNK        -0.1800 
     82 C          -4.6656  -26.1629  -48.0365 C.2       14 UNK         0.5000 
     83 O          -5.3910  -26.0803  -47.0437 O.2       14 UNK        -0.5000 
     84 N          -5.0615  -25.7962  -49.2622 N.am      15 UNK        -0.5000 
     85 CA         -6.4124  -25.3417  -49.6038 C.3       15 UNK         0.1400 
     86 CB         -6.6425  -25.5957  -51.1035 C.3       15 UNK        -0.1800 
     87 C          -6.7038  -23.8658  -49.2604 C.2       15 UNK         0.5000 
     88 O          -7.8629  -23.4593  -49.3432 O.2       15 UNK        -0.5000 
     89 N          -5.6651  -23.0812  -48.9321 N.am      16 UNK        -0.5000 
     90 CA         -5.6862  -21.6366  -48.6493 C.3       16 UNK         0.1400 
     91 CB         -6.5111  -21.3344  -47.3821 C.3       16 UNK        -0.1800 
     92 C          -6.0899  -20.7409  -49.8457 C.2       16 UNK         0.5000 
     93 O          -6.3329  -19.5480  -49.6589 O.2       16 UNK        -0.5000 
     94 N          -6.1369  -21.3162  -51.0545 N.am      17 UNK        -0.5000 
     95 CA         -6.4192  -20.6399  -52.3173 C.3       17 UNK         0.1400 
     96 CB         -6.7103  -21.7001  -53.3907 C.3       17 UNK        -0.1800 
     97 C          -5.2385  -19.7454  -52.7306 C.2       17 UNK         0.5000 
     98 O          -4.1422  -20.2633  -52.9679 O.2       17 UNK        -0.5000 
     99 N          -5.4814  -18.4293  -52.7847 N.am      18 UNK        -0.5000 
    100 CA        -4.5021  -17.3811  -53.0770 C.3       18 UNK         0.1400 
    101 CB        -5.2089  -16.0173  -53.0928 C.3       18 UNK        -0.1800 
    102 C         -3.7371  -17.6188  -54.3908 C.2       18 UNK         0.5000 
    103 O         -4.3614  -17.7389  -55.4467 O.2       18 UNK        -0.5000 
    104 N         -2.4041  -17.6987  -54.2783 N.am      19 UNK        -0.5000 
    105 CA        -1.4325  -17.9479  -55.3491 C.3       19 UNK         0.1400 
    106 CB        -1.4419  -16.7973  -56.3773 C.3       19 UNK        -0.1800 
    107 C         -1.5439  -19.3395  -56.0133 C.2       19 UNK         0.5000 
    108 O         -0.9779  -19.5334  -57.0908 O.2       19 UNK        -0.5000 
    109 N         -2.2456  -20.2839  -55.3707 N.am      20 UNK        -0.5000 
    110 CA        -2.4499  -21.6450  -55.8652 C.3       20 UNK         0.1400 
    111 CB        -3.9167  -21.8219  -56.2886 C.3       20 UNK        -0.1800 
    112 C         -2.0475  -22.6830  -54.8096 C.2       20 UNK         0.5000 
    113 O         -1.2733  -23.5911  -55.1160 O.2       20 UNK        -0.5000 
    114 N         -2.5478  -22.5246  -53.5752 N.am      21 UNK        -0.5000 
    115 CA        -2.3323  -23.4605  -52.4654 C.3       21 UNK         0.1400 
    116 CB        -3.2901  -23.1060  -51.3223 C.3       21 UNK        -0.1800 
    117 C         -0.8784  -23.5266  -51.9620 C.2       21 UNK         0.5000 
    118 O         -0.5018  -24.5081  -51.3240 O.2       21 UNK        -0.5000 
    119 N         -0.0899  -22.4925  -52.2704 N.am      22 UNK        -0.5000 
    120 CA         1.3642  -22.4483  -52.0683 C.3       22 UNK         0.1400 
    121 C          2.1835  -23.3386  -53.0529 C.2       22 UNK         0.5000 
    122 N          1.5961  -23.8998  -54.1052 N.am      22 UNK        -0.7600 
    123 O          3.3782  -23.5350  -52.8484 O.2       22 UNK        -0.5000 
    124 C124        1.8823  -20.9876  -52.0458 C.3       23 UNK        -0.0398 
    125 S125        1.3903  -20.0224  -53.5200 S.3       23 UNK        -0.2404 
    126 C126        1.5957  -18.3177  -52.9044 C.3       23 UNK        -0.0205 
    127 H127       -4.1134  -14.8200  -47.5611 H         1 UNK         0.0600 
    128 H128       -4.2748  -14.6494  -45.8100 H         1 UNK         0.0600 
    129 H129       -3.2785  -15.9421  -46.4850 H         1 UNK         0.0600 
    130 H130       -2.7687  -13.2792  -48.4152 H         1 UNK         0.3000 
    131 H131       -1.0804  -11.9550  -48.8652 H         1 UNK         0.0600 
    132 H132        1.1713  -12.3246  -48.1624 H         1 UNK         0.0800 
    133 H133        0.6958  -13.0168  -46.6436 H         1 UNK         0.0800 
    134 H134       -1.0524  -14.0560  -50.0029 H         1 UNK         0.0800 
    135 H135        0.5608  -13.9597  -50.6715 H         1 UNK         0.0800 
    136 H136        1.5043  -15.8980  -51.7800 H         1 UNK         0.1150 
    137 H137       -0.7290  -19.5663  -51.8885 H         1 UNK         0.1150 
    138 H138       -2.0586  -16.3224  -49.4451 H         1 UNK         0.1150 
    139 H139       -3.5632  -18.2603  -50.0043 H         1 UNK         0.0800 
    140 H140       -2.9215  -19.6554  -50.8328 H         1 UNK         0.0800 
    141 H141       -1.2122  -21.1266  -50.0396 H         1 UNK         0.0800 
    142 H142       -0.0605  -20.3199  -49.0494 H         1 UNK         0.0800 
    143 H143       -0.8152  -22.9748  -48.9288 H         1 UNK         0.0600 
    144 H144        0.7358  -21.3327  -47.0738 H         1 UNK         0.3000 
    145 H145        2.4436  -24.1632  -45.7475 H         1 UNK         0.0600 
    146 H146        4.4551  -22.9317  -46.6199 H         1 UNK         0.0600 
    147 H147        3.6699  -23.8929  -47.8652 H         1 UNK         0.0600 
    148 H148        3.4387  -22.1515  -47.8326 H         1 UNK         0.0600 
    149 H149        2.9036  -21.3790  -45.4353 H         1 UNK         0.3000 
    150 H150        0.5401  -20.4378  -43.3398 H         1 UNK         0.0600 
    151 H151        0.8459  -22.0755  -41.5276 H         1 UNK         0.0600 
    152 H152        1.6837  -20.5866  -41.1241 H         1 UNK         0.0600 
    153 H153        2.5933  -21.9909  -41.6833 H         1 UNK         0.0600 
    154 H154        2.0962  -19.0093  -43.8432 H         1 UNK         0.3000 
    155 H155        4.4171  -17.9739  -43.3385 H         1 UNK         0.0600 
    156 H156        6.5421  -17.9918  -44.6632 H         1 UNK         0.0600 
    157 H157        6.2941  -19.6944  -45.0476 H         1 UNK         0.0600 
    158 H158        6.5543  -19.1949  -43.3838 H         1 UNK         0.0600 
    159 H159        3.4117  -17.3162  -45.1941 H         1 UNK         0.3000 
    160 H160        3.4916  -17.1829  -47.8826 H         1 UNK         0.0600 
    161 H161        2.1976  -19.8727  -48.5694 H         1 UNK         0.0600 
    162 H162        3.5784  -19.1285  -49.3571 H         1 UNK         0.0600 
    163 H163        1.9876  -18.3985  -49.5134 H         1 UNK         0.0600 
    164 H164        1.5419  -16.5560  -47.0391 H         1 UNK         0.3000 
    165 H165       -1.0165  -17.0535  -46.7072 H         1 UNK         0.0600 
    166 H166       -1.0140  -18.7812  -44.1788 H         1 UNK         0.0600 
    167 H167       -2.3397  -17.7632  -44.7336 H         1 UNK         0.0600 
    168 H168       -1.8554  -19.1598  -45.6769 H         1 UNK         0.0600 
    169 H169       -0.6122  -15.4707  -45.1678 H         1 UNK         0.3000 
    170 H170        1.1618  -15.3728  -42.1011 H         1 UNK         0.0600 
    171 H171        1.3797  -13.6401  -44.6126 H         1 UNK         0.0600 
    172 H172        1.8054  -13.1561  -42.9755 H         1 UNK         0.0600 
    173 H173        2.7320  -14.4087  -43.7904 H         1 UNK         0.0600 
    174 H174       -0.7802  -13.6941  -43.4614 H         1 UNK         0.3000 
    175 H175       -3.3341  -14.6350  -43.1982 H         1 UNK         0.0600 
    176 H176       -3.5016  -14.7460  -40.1414 H         1 UNK         0.0600 
    177 H177       -4.8549  -14.4302  -41.2264 H         1 UNK         0.0600 
    178 H178       -4.0459  -15.9874  -41.2617 H         1 UNK         0.0600 
    179 H179       -3.2189  -12.4415  -42.9710 H         1 UNK         0.3000 
    180 H180       -3.1732  -10.2889  -40.8062 H         1 UNK         0.0600 
    181 H181       -0.1693  -10.2678  -41.3986 H         1 UNK         0.0600 
    182 H182       -0.9338  -10.0928  -39.8268 H         1 UNK         0.0600 
    183 H183       -1.1365   -8.8383  -41.0368 H         1 UNK         0.0600 
    184 H184       -3.5241   -9.7118  -42.8959 H         1 UNK         0.3000 
    185 H185       -3.6005   -9.9068  -45.1038 H         1 UNK         0.0600 
    186 H186       -2.4938   -7.7680  -44.7487 H         1 UNK         0.0600 
    187 H187       -1.0102   -8.3210  -45.5001 H         1 UNK         0.0600 
    188 H188       -2.4681   -8.1095  -46.4720 H         1 UNK         0.0600 
    189 H189       -2.9571  -11.4938  -46.4982 H         1 UNK         0.3000 
    190 H190       -1.2254  -21.5204  -45.7309 H         1 UNK         0.3000 
    191 H191       -3.9978  -22.1388  -45.3979 H         1 UNK         0.0600 
    192 H192       -2.9747  -20.4329  -43.9966 H         1 UNK         0.0600 
    193 H193       -3.4653  -21.7404  -42.9445 H         1 UNK         0.0600 
    194 H194       -1.7699  -21.5656  -43.3750 H         1 UNK         0.0600 
    195 H195       -1.0428  -24.0056  -44.8115 H         1 UNK         0.3000 
    196 H196       -2.2607  -26.2455  -43.5051 H         1 UNK         0.0600 
    197 H197       -0.0950  -27.3562  -44.0783 H         1 UNK         0.0600 
    198 H198        0.1744  -25.7561  -43.4048 H         1 UNK         0.0600 
    199 H199        0.3231  -26.0175  -45.1417 H         1 UNK         0.0600 
    200 H200       -2.4442  -25.1776  -46.7662 H         1 UNK         0.3000 
    201 H201       -3.3696  -27.8302  -47.7738 H         1 UNK         0.0600 
    202 H202       -1.3600  -26.9820  -48.9635 H         1 UNK         0.0600 
    203 H203       -2.1606  -25.4587  -49.2927 H         1 UNK         0.0600 
    204 H204       -2.7502  -26.9551  -50.0263 H         1 UNK         0.0600 
    205 H205       -4.4125  -25.9004  -50.0280 H         1 UNK         0.3000 
    206 H206       -7.1332  -25.9457  -49.0484 H         1 UNK         0.0600 
    207 H207       -6.5324  -26.6532  -51.3445 H         1 UNK         0.0600 
    208 H208       -7.6498  -25.3024  -51.4028 H         1 UNK         0.0600 
    209 H209       -5.9418  -25.0367  -51.7236 H         1 UNK         0.0600 
    210 H210       -4.7557  -23.5159  -48.8228 H         1 UNK         0.3000 
    211 H211       -4.6547  -21.3680  -48.4280 H         1 UNK         0.0600 
    212 H212       -7.5781  -21.4847  -47.5472 H         1 UNK         0.0600 
    213 H213       -6.3727  -20.3007  -47.0631 H         1 UNK         0.0600 
    214 H214       -6.2065  -21.9723  -46.5526 H         1 UNK         0.0600 
    215 H215       -5.9196  -22.2979  -51.1119 H         1 UNK         0.3000 
    216 H216       -7.3133  -20.0258  -52.1907 H         1 UNK         0.0600 
    217 H217       -6.9162  -21.2333  -54.3547 H         1 UNK         0.0600 
    218 H218       -7.5832  -22.2973  -53.1263 H         1 UNK         0.0600 
    219 H219       -5.8699  -22.3818  -53.5268 H         1 UNK         0.0600 
    220 H220       -6.4150  -18.1078  -52.5756 H         1 UNK         0.3000 
    221 H221       -3.7864  -17.3689  -52.2553 H         1 UNK         0.0600 
    222 H222       -5.9816  -15.9736  -53.8615 H         1 UNK         0.0600 
    223 H223       -5.6773  -15.8034  -52.1319 H         1 UNK         0.0600 
    224 H224       -4.5000  -15.2128  -53.2936 H         1 UNK         0.0600 
    225 H225       -1.9988  -17.6009  -53.3573 H         1 UNK         0.3000 
    226 H226       -0.4561  -17.9346  -54.8682 H         1 UNK         0.0600 
    227 H227       -1.3465  -15.8289  -55.8862 H         1 UNK         0.0600 
    228 H228       -0.6082  -16.8874  -57.0746 H         1 UNK         0.0600 
    229 H229       -2.3589  -16.7869  -56.9668 H         1 UNK         0.0600 
    230 H230       -2.7030  -20.0450  -54.4987 H         1 UNK         0.3000 
    231 H231       -1.8262  -21.8349  -56.7411 H         1 UNK         0.0600 
    232 H232       -4.1127  -22.8445  -56.6134 H         1 UNK         0.0600 
    233 H233       -4.1641  -21.1621  -57.1204 H         1 UNK         0.0600 
    234 H234       -4.6024  -21.5955  -55.4730 H         1 UNK         0.0600 
    235 H235       -3.1669  -21.7390  -53.3868 H         1 UNK         0.3000 
    236 H236       -2.5873  -24.4620  -52.8183 H         1 UNK         0.0600 
    237 H237       -4.3205  -23.2628  -51.6332 H         1 UNK         0.0600 
    238 H238       -3.1173  -23.7315  -50.4484 H         1 UNK         0.0600 
    239 H239       -3.1845  -22.0682  -51.0088 H         1 UNK         0.0600 
    240 H240       -0.4742  -21.7515  -52.8370 H         1 UNK         0.3000 
    241 H241        1.5609  -22.8644  -51.0780 H         1 UNK         0.0600 
    242 H242        0.6136  -23.7526  -54.3047 H         1 UNK         0.3800 
    243 H243        2.1448  -24.4752  -54.7240 H         1 UNK         0.3800 
    244 H244        1.4963  -20.4901  -51.1561 H         1 UNK         0.0800 
    245 H245        2.9688  -20.9563  -51.9470 H         1 UNK         0.0800 
    246 H246        2.5648  -18.2445  -52.4081 H         1 UNK         0.0800 
    247 H247        1.6486  -17.6529  -53.7673 H         1 UNK         0.0800 
@<TRIPOS>BOND
     1    1    2 1    
     2    1  127 1    
     3    1  128 1    
     4    1  129 1    
     5    2    3 2    
     6    2    4 am   BACKBONE|DICT|INTERRES
     7    4    5 1    
     8    4  130 1    
     9    5    6 1    
    10    5   65 1    
    11    5  131 1    
    12    6    7 1    
    13    6  132 1    
    14    6  133 1    
    15    7    8 1    
    16    8    9 1    
    17    8  134 1    
    18    8  135 1    
    19    9   10 ar   
    20    9   14 ar   
    21   10   11 ar   
    22   10  136 1    
    23   11   12 ar   
    24   11  126 1    
    25   12   13 ar   
    26   12  137 1    
    27   13   14 ar   
    28   13   15 1    
    29   14  138 1    
    30   15   16 1    
    31   15  139 1    
    32   15  140 1    
    33   16   17 1    
    34   17   18 1    
    35   17  141 1    
    36   17  142 1    
    37   18   19 1    
    38   18   67 1    
    39   18  143 1    
    40   19   20 am   BACKBONE|DICT|INTERRES
    41   19  144 1    
    42   20   21 2    
    43   20   22 1    
    44   22   23 1    
    45   22   24 1    
    46   22  145 1    
    47   23  146 1    
    48   23  147 1    
    49   23  148 1    
    50   24   25 am   BACKBONE|DICT|INTERRES
    51   24  149 1    
    52   25   26 2    
    53   25   27 1    
    54   27   28 1    
    55   27   29 1    
    56   27  150 1    
    57   28  151 1    
    58   28  152 1    
    59   28  153 1    
    60   29   30 am   BACKBONE|DICT|INTERRES
    61   29  154 1    
    62   30   31 2    
    63   30   32 1    
    64   32   33 1    
    65   32   34 1    
    66   32  155 1    
    67   33  156 1    
    68   33  157 1    
    69   33  158 1    
    70   34   35 am   BACKBONE|DICT|INTERRES
    71   34  159 1    
    72   35   36 2    
    73   35   37 1    
    74   37   38 1    
    75   37   39 1    
    76   37  160 1    
    77   38  161 1    
    78   38  162 1    
    79   38  163 1    
    80   39   40 am   BACKBONE|DICT|INTERRES
    81   39  164 1    
    82   40   41 2    
    83   40   42 1    
    84   42   43 1    
    85   42   44 1    
    86   42  165 1    
    87   43  166 1    
    88   43  167 1    
    89   43  168 1    
    90   44   45 am   BACKBONE|DICT|INTERRES
    91   44  169 1    
    92   45   46 2    
    93   45   47 1    
    94   47   48 1    
    95   47   49 1    
    96   47  170 1    
    97   48  171 1    
    98   48  172 1    
    99   48  173 1    
   100   49   50 am   BACKBONE|DICT|INTERRES
   101   49  174 1    
   102   50   51 2    
   103   50   52 1    
   104   52   53 1    
   105   52   54 1    
   106   52  175 1    
   107   53  176 1    
   108   53  177 1    
   109   53  178 1    
   110   54   55 am   BACKBONE|DICT|INTERRES
   111   54  179 1    
   112   55   56 2    
   113   55   57 1    
   114   57   58 1    
   115   57   59 1    
   116   57  180 1    
   117   58  181 1    
   118   58  182 1    
   119   58  183 1    
   120   59   60 am   BACKBONE|DICT|INTERRES
   121   59  184 1    
   122   60   61 2    
   123   60   62 1    
   124   62   63 1    
   125   62   64 1    
   126   62  185 1    
   127   63  186 1    
   128   63  187 1    
   129   63  188 1    
   130   64   65 am   BACKBONE|DICT|INTERRES
   131   64  189 1    
   132   65   66 2    
   133   67   68 2    
   134   67   69 am   BACKBONE|DICT|INTERRES
   135   69   70 1    
   136   69  190 1    
   137   70   71 1    
   138   70   72 1    
   139   70  191 1    
   140   71  192 1    
   141   71  193 1    
   142   71  194 1    
   143   72   73 2    
   144   72   74 am   BACKBONE|DICT|INTERRES
   145   74   75 1    
   146   74  195 1    
   147   75   76 1    
   148   75   77 1    
   149   75  196 1    
   150   76  197 1    
   151   76  198 1    
   152   76  199 1    
   153   77   78 2    
   154   77   79 am   BACKBONE|DICT|INTERRES
   155   79   80 1    
   156   79  200 1    
   157   80   81 1    
   158   80   82 1    
   159   80  201 1    
   160   81  202 1    
   161   81  203 1    
   162   81  204 1    
   163   82   83 2    
   164   82   84 am   BACKBONE|DICT|INTERRES
   165   84   85 1    
   166   84  205 1    
   167   85   86 1    
   168   85   87 1    
   169   85  206 1    
   170   86  207 1    
   171   86  208 1    
   172   86  209 1    
   173   87   88 2    
   174   87   89 am   BACKBONE|DICT|INTERRES
   175   89   90 1    
   176   89  210 1    
   177   90   91 1    
   178   90   92 1    
   179   90  211 1    
   180   91  212 1    
   181   91  213 1    
   182   91  214 1    
   183   92   93 2    
   184   92   94 am   BACKBONE|DICT|INTERRES
   185   94   95 1    
   186   94  215 1    
   187   95   96 1    
   188   95   97 1    
   189   95  216 1    
   190   96  217 1    
   191   96  218 1    
   192   96  219 1    
   193   97   98 2    
   194   97   99 am   BACKBONE|DICT|INTERRES
   195   99  100 1    
   196   99  220 1    
   197  100  101 1    
   198  100  102 1    
   199  100  221 1    
   200  101  222 1    
   201  101  223 1    
   202  101  224 1    
   203  102  103 2    
   204  102  104 am   BACKBONE|DICT|INTERRES
   205  104  105 1    
   206  104  225 1    
   207  105  106 1    
   208  105  107 1    
   209  105  226 1    
   210  106  227 1    
   211  106  228 1    
   212  106  229 1    
   213  107  108 2    
   214  107  109 am   BACKBONE|DICT|INTERRES
   215  109  110 1    
   216  109  230 1    
   217  110  111 1    
   218  110  112 1    
   219  110  231 1    
   220  111  232 1    
   221  111  233 1    
   222  111  234 1    
   223  112  113 2    
   224  112  114 am   BACKBONE|DICT|INTERRES
   225  114  115 1    
   226  114  235 1    
   227  115  116 1    
   228  115  117 1    
   229  115  236 1    
   230  116  237 1    
   231  116  238 1    
   232  116  239 1    
   233  117  118 2    
   234  117  119 am   BACKBONE|DICT|INTERRES
   235  119  120 1    
   236  119  240 1    
   237  120  121 1    
   238  120  124 1    
   239  120  241 1    
   240  121  122 am   BACKBONE|DICT|INTERRES
   241  121  123 2    
   242  122  242 1    
   243  122  243 1    
   244  124  125 1    
   245  124  244 1    
   246  124  245 1    
   247  125  126 1    
   248  126  246 1    
   249  126  247 1    
@<TRIPOS>SUBSTRUCTURE
     1 UNK         1 GROUP             0       ****    0 ROOT    
