@<TRIPOS>MOLECULE
3R540
247   249    1
SMALL
USER_CHARGES


@<TRIPOS>ATOM
      1 CA         -2.6471   -8.1437  -44.1894 C.3       0 UNK        -0.1800 
      2 C          -1.1369   -8.1935  -44.3697 C.2       0 UNK         0.5000 
      3 O          -0.4197   -7.3813  -43.7838 O.2       0 UNK        -0.5000 
      4 N          -0.6457   -9.1484  -45.1684 N.am      1 UNK        -0.5000 
      5 CA          0.7716   -9.3825  -45.4679 C.3       1 UNK         0.1400 
      6 C6          0.9556  -10.0797  -46.8440 C.3       23 UNK        -0.0398 
      7 S7          0.0795  -11.6765  -47.0065 S.3       23 UNK        -0.2404 
      8 C8         -0.4825  -11.6357  -48.7339 C.3       23 UNK        -0.0205 
      9 C9         -0.9097  -13.0234  -49.1876 C.ar      23 UNK        -0.0193 
     10 C10        -0.0566  -13.7990  -49.9804 C.ar      23 UNK        -0.1150 
     11 C11        -0.4245  -15.0876  -50.3802 C.ar      23 UNK        -0.0193 
     12 C12        -1.6623  -15.5870  -49.9639 C.ar      23 UNK        -0.1150 
     13 C13        -2.5369  -14.8282  -49.1804 C.ar      23 UNK        -0.0193 
     14 C14        -2.1507  -13.5399  -48.8003 C.ar      23 UNK        -0.1150 
     15 C15        -3.8734  -15.3936  -48.6936 C.3       23 UNK        -0.0205 
     16 S16        -4.5642  -16.7214  -49.7509 S.3       23 UNK        -0.2404 
     17 C17        -5.2524  -17.9081  -48.5475 C.3       23 UNK        -0.0398 
     18 CA         -4.9020  -19.3754  -48.9167 C.3       11 UNK         0.1400 
     19 N          -3.5260  -19.7374  -48.5534 N.am      11 UNK        -0.5000 
     20 C          -2.9123  -20.8533  -48.9764 C.2       10 UNK         0.5000 
     21 O          -3.3734  -21.5682  -49.8629 O.2       10 UNK        -0.5000 
     22 CA         -1.5984  -21.2884  -48.2920 C.3       10 UNK         0.1400 
     23 CB         -0.4277  -21.2126  -49.2825 C.3       10 UNK        -0.1800 
     24 N          -1.2449  -20.5489  -47.0769 N.am      10 UNK        -0.5000 
     25 C          -1.9761  -20.4715  -45.9532 C.2       9 UNK         0.5000 
     26 O          -3.0568  -21.0418  -45.8064 O.2       9 UNK        -0.5000 
     27 CA         -1.4657  -19.5401  -44.8336 C.3       9 UNK         0.1400 
     28 CB         -0.6330  -20.3328  -43.8160 C.3       9 UNK        -0.1800 
     29 N          -0.6717  -18.4101  -45.3175 N.am      9 UNK        -0.5000 
     30 C          -1.0426  -17.5415  -46.2689 C.2       8 UNK         0.5000 
     31 O          -2.1617  -17.5356  -46.7817 O.2       8 UNK        -0.5000 
     32 CA          0.0317  -16.5614  -46.7735 C.3       8 UNK         0.1400 
     33 CB         -0.1485  -15.1948  -46.1048 C.3       8 UNK        -0.1800 
     34 N           1.4124  -17.0124  -46.5728 N.am      8 UNK        -0.5000 
     35 C           1.9523  -18.1430  -47.0533 C.2       7 UNK         0.5000 
     36 O           1.3219  -18.9987  -47.6725 O.2       7 UNK        -0.5000 
     37 CA          3.4372  -18.3776  -46.7394 C.3       7 UNK         0.1400 
     38 CB          4.3322  -17.5508  -47.6763 C.3       7 UNK        -0.1800 
     39 N           3.7308  -18.0379  -45.3481 N.am      7 UNK        -0.5000 
     40 C           3.5574  -18.8738  -44.3151 C.2       6 UNK         0.5000 
     41 O           3.2111  -20.0489  -44.4375 O.2       6 UNK        -0.5000 
     42 CA          3.7994  -18.3036  -42.9035 C.3       6 UNK         0.1400 
     43 CB          5.2590  -18.5231  -42.4777 C.3       6 UNK        -0.1800 
     44 N           3.4771  -16.8803  -42.7885 N.am      6 UNK        -0.5000 
     45 C           2.2406  -16.3698  -42.8699 C.2       5 UNK         0.5000 
     46 O           1.2272  -17.0519  -43.0261 O.2       5 UNK        -0.5000 
     47 CA          2.1215  -14.8339  -42.7983 C.3       5 UNK         0.1400 
     48 CB          1.9655  -14.3800  -41.3398 C.3       5 UNK        -0.1800 
     49 N           3.2264  -14.0941  -43.4214 N.am      5 UNK        -0.5000 
     50 C           3.6554  -14.2401  -44.6855 C.2       4 UNK         0.5000 
     51 O           3.2391  -15.1191  -45.4408 O.2       4 UNK        -0.5000 
     52 CA          4.7257  -13.2568  -45.1964 C.3       4 UNK         0.1400 
     53 CB          4.4638  -12.8559  -46.6596 C.3       4 UNK        -0.1800 
     54 N           4.7681  -12.0428  -44.3825 N.am      4 UNK        -0.5000 
     55 C           5.8289  -11.5848  -43.7051 C.2       3 UNK         0.5000 
     56 O           6.9163  -12.1619  -43.6713 O.2       3 UNK        -0.5000 
     57 CA          5.6621  -10.2546  -42.9372 C.3       3 UNK         0.1400 
     58 CB          6.3546   -9.1104  -43.6940 C.3       3 UNK        -0.1800 
     59 N           4.2668   -9.8785  -42.6968 N.am      3 UNK        -0.5000 
     60 C           3.4374  -10.5078  -41.8541 C.2       2 UNK         0.5000 
     61 O           3.7816  -11.4490  -41.1391 O.2       2 UNK        -0.5000 
     62 CA          1.9669  -10.0409  -41.8401 C.3       2 UNK         0.1400 
     63 CB          1.7442   -9.0042  -40.7291 C.3       2 UNK        -0.1800 
     64 N           1.4720   -9.4920  -43.1094 N.am      2 UNK        -0.5000 
     65 C           1.4889  -10.1062  -44.3009 C.2       1 UNK         0.5000 
     66 O           2.0361  -11.1933  -44.4828 O.2       1 UNK        -0.5000 
     67 C          -5.9553  -20.3472  -48.3264 C.2       11 UNK         0.5000 
     68 O          -7.0698  -20.3798  -48.8500 O.2       11 UNK        -0.5000 
     69 N          -5.6207  -21.1091  -47.2706 N.am      12 UNK        -0.5000 
     70 CA         -6.5560  -22.0204  -46.6035 C.3       12 UNK         0.1400 
     71 CB         -7.2433  -21.2909  -45.4374 C.3       12 UNK        -0.1800 
     72 C          -5.9075  -23.3276  -46.1199 C.2       12 UNK         0.5000 
     73 O          -6.5199  -24.3868  -46.2706 O.2       12 UNK        -0.5000 
     74 N          -4.6974  -23.2535  -45.5501 N.am      13 UNK        -0.5000 
     75 CA         -3.9832  -24.3853  -44.9538 C.3       13 UNK         0.1400 
     76 CB         -2.7102  -23.8761  -44.2613 C.3       13 UNK        -0.1800 
     77 C          -3.6292  -25.4675  -45.9866 C.2       13 UNK         0.5000 
     78 O          -3.2826  -25.1325  -47.1206 O.2       13 UNK        -0.5000 
     79 N          -3.7248  -26.7384  -45.5696 N.am      14 UNK        -0.5000 
     80 CA         -3.4777  -27.9454  -46.3700 C.3       14 UNK         0.1400 
     81 CB         -1.9746  -28.0808  -46.6933 C.3       14 UNK        -0.1800 
     82 C          -4.3740  -28.0193  -47.6252 C.2       14 UNK         0.5000 
     83 O          -3.8874  -28.3225  -48.7156 O.2       14 UNK        -0.5000 
     84 N          -5.6646  -27.6943  -47.4452 N.am      15 UNK        -0.5000 
     85 CA         -6.6939  -27.5682  -48.4855 C.3       15 UNK         0.1400 
     86 CB         -7.0218  -28.9436  -49.1046 C.3       15 UNK        -0.1800 
     87 C          -6.3091  -26.5082  -49.5374 C.2       15 UNK         0.5000 
     88 O          -6.3154  -26.7877  -50.7375 O.2       15 UNK        -0.5000 
     89 N          -5.9235  -25.3229  -49.0429 N.am      16 UNK        -0.5000 
     90 CA         -5.3663  -24.1918  -49.7906 C.3       16 UNK         0.1400 
     91 CB         -6.4578  -23.5235  -50.6504 C.3       16 UNK        -0.1800 
     92 C          -4.1141  -24.5956  -50.5963 C.2       16 UNK         0.5000 
     93 O          -4.0524  -24.3650  -51.8048 O.2       16 UNK        -0.5000 
     94 N          -3.1640  -25.2419  -49.9052 N.am      17 UNK        -0.5000 
     95 CA         -1.9189  -25.8180  -50.4190 C.3       17 UNK         0.1400 
     96 CB         -0.9156  -24.6958  -50.7498 C.3       17 UNK        -0.1800 
     97 C          -2.1575  -26.7938  -51.5897 C.2       17 UNK         0.5000 
     98 O          -1.5577  -26.6432  -52.6540 O.2       17 UNK        -0.5000 
     99 N          -3.0730  -27.7505  -51.3783 N.am      18 UNK        -0.5000 
    100 CA        -3.5856  -28.7149  -52.3580 C.3       18 UNK         0.1400 
    101 CB        -2.5004  -29.7484  -52.7239 C.3       18 UNK        -0.1800 
    102 C         -4.2107  -28.0231  -53.5900 C.2       18 UNK         0.5000 
    103 O         -3.9166  -28.3876  -54.7300 O.2       18 UNK        -0.5000 
    104 N         -5.0498  -27.0147  -53.3173 N.am      19 UNK        -0.5000 
    105 CA        -5.7609  -26.1465  -54.2596 C.3       19 UNK         0.1400 
    106 CB        -6.7671  -26.9582  -55.1020 C.3       19 UNK        -0.1800 
    107 C         -4.8548  -25.2394  -55.1236 C.2       19 UNK         0.5000 
    108 O         -5.3206  -24.7171  -56.1382 O.2       19 UNK        -0.5000 
    109 N         -3.5967  -25.0281  -54.7095 N.am      20 UNK        -0.5000 
    110 CA        -2.6801  -24.0661  -55.3288 C.3       20 UNK         0.1400 
    111 CB        -1.2335  -24.4005  -54.9395 C.3       20 UNK        -0.1800 
    112 C         -3.0115  -22.6099  -54.9500 C.2       20 UNK         0.5000 
    113 O         -2.6970  -21.7017  -55.7207 O.2       20 UNK        -0.5000 
    114 N         -3.6298  -22.4145  -53.7746 N.am      21 UNK        -0.5000 
    115 CA        -4.1575  -21.1570  -53.2355 C.3       21 UNK         0.1400 
    116 CB        -5.4303  -20.7498  -54.0045 C.3       21 UNK        -0.1800 
    117 C         -3.1148  -20.0227  -53.1516 C.2       21 UNK         0.5000 
    118 O         -3.4468  -18.8637  -53.4054 O.2       21 UNK        -0.5000 
    119 N         -1.8676  -20.3840  -52.8147 N.am      22 UNK        -0.5000 
    120 CA        -0.6972  -19.4878  -52.7616 C.3       22 UNK         0.1400 
    121 C         -0.1706  -19.0318  -54.1606 C.2       22 UNK         0.5000 
    122 N         -0.6321  -19.5999  -55.2696 N.am      22 UNK        -0.7600 
    123 O          0.6968  -18.1681  -54.2520 O.2       22 UNK        -0.5000 
    124 C124       -0.9236  -18.3077  -51.7741 C.3       23 UNK        -0.0398 
    125 S125        0.5775  -17.6931  -50.9285 S.3       23 UNK        -0.2404 
    126 C126        0.5130  -15.8983  -51.2813 C.3       23 UNK        -0.0205 
    127 H127       -3.1497   -8.9215  -44.7648 H         1 UNK         0.0600 
    128 H128       -3.0319   -7.1772  -44.5149 H         1 UNK         0.0600 
    129 H129       -2.9038   -8.2780  -43.1386 H         1 UNK         0.0600 
    130 H130       -1.2796   -9.8105  -45.5938 H         1 UNK         0.3000 
    131 H131        1.2584   -8.4086  -45.5530 H         1 UNK         0.0600 
    132 H132        0.6036   -9.4078  -47.6279 H         1 UNK         0.0800 
    133 H133        2.0143  -10.2426  -47.0529 H         1 UNK         0.0800 
    134 H134       -1.3137  -10.9361  -48.8328 H         1 UNK         0.0800 
    135 H135        0.3205  -11.2606  -49.3705 H         1 UNK         0.0800 
    136 H136        0.8996  -13.3969  -50.2847 H         1 UNK         0.1150 
    137 H137       -1.9512  -16.5840  -50.2343 H         1 UNK         0.1150 
    138 H138       -2.8047  -12.9444  -48.1788 H         1 UNK         0.1150 
    139 H139       -3.7370  -15.7482  -47.6734 H         1 UNK         0.0800 
    140 H140       -4.6116  -14.5923  -48.6386 H         1 UNK         0.0800 
    141 H141       -6.3319  -17.7449  -48.5475 H         1 UNK         0.0800 
    142 H142       -4.9154  -17.6796  -47.5356 H         1 UNK         0.0800 
    143 H143       -4.9889  -19.4772  -50.0012 H         1 UNK         0.0600 
    144 H144       -3.0711  -19.1547  -47.8591 H         1 UNK         0.3000 
    145 H145       -1.7327  -22.3340  -48.0065 H         1 UNK         0.0600 
    146 H146        0.4734  -21.6614  -48.8645 H         1 UNK         0.0600 
    147 H147       -0.6539  -21.7373  -50.2108 H         1 UNK         0.0600 
    148 H148       -0.1969  -20.1809  -49.5421 H         1 UNK         0.0600 
    149 H149       -0.3870  -20.0079  -47.1294 H         1 UNK         0.3000 
    150 H150       -2.3398  -19.1309  -44.3238 H         1 UNK         0.0600 
    151 H151       -1.2039  -21.1670  -43.4067 H         1 UNK         0.0600 
    152 H152       -0.3306  -19.7037  -42.9783 H         1 UNK         0.0600 
    153 H153        0.2709  -20.7422  -44.2695 H         1 UNK         0.0600 
    154 H154        0.2552  -18.3081  -44.9267 H         1 UNK         0.3000 
    155 H155       -0.1088  -16.4453  -47.8478 H         1 UNK         0.0600 
    156 H156       -1.1152  -14.7601  -46.3596 H         1 UNK         0.0600 
    157 H157        0.6218  -14.4946  -46.4267 H         1 UNK         0.0600 
    158 H158       -0.1033  -15.2744  -45.0199 H         1 UNK         0.0600 
    159 H159        2.0262  -16.3603  -46.0904 H         1 UNK         0.3000 
    160 H160        3.6579  -19.4334  -46.9115 H         1 UNK         0.0600 
    161 H161        4.1589  -16.4798  -47.5677 H         1 UNK         0.0600 
    162 H162        4.1423  -17.8075  -48.7193 H         1 UNK         0.0600 
    163 H163        5.3876  -17.7406  -47.4809 H         1 UNK         0.0600 
    164 H164        3.9385  -17.0649  -45.1594 H         1 UNK         0.3000 
    165 H165        3.1560  -18.8523  -42.2123 H         1 UNK         0.0600 
    166 H166        5.4241  -18.1964  -41.4508 H         1 UNK         0.0600 
    167 H167        5.5256  -19.5797  -42.5280 H         1 UNK         0.0600 
    168 H168        5.9522  -17.9787  -43.1201 H         1 UNK         0.0600 
    169 H169        4.2508  -16.2439  -42.6650 H         1 UNK         0.3000 
    170 H170        1.2128  -14.5521  -43.3303 H         1 UNK         0.0600 
    171 H171        1.1636  -14.9263  -40.8412 H         1 UNK         0.0600 
    172 H172        2.8800  -14.5411  -40.7678 H         1 UNK         0.0600 
    173 H173        1.7157  -13.3213  -41.2823 H         1 UNK         0.0600 
    174 H174        3.6289  -13.3476  -42.8721 H         1 UNK         0.3000 
    175 H175        5.6799  -13.7845  -45.1516 H         1 UNK         0.0600 
    176 H176        3.4835  -12.3914  -46.7762 H         1 UNK         0.0600 
    177 H177        5.2144  -12.1505  -47.0160 H         1 UNK         0.0600 
    178 H178        4.4967  -13.7237  -47.3195 H         1 UNK         0.0600 
    179 H179        3.8873  -11.5359  -44.3325 H         1 UNK         0.3000 
    180 H180        6.1551  -10.3725  -41.9700 H         1 UNK         0.0600 
    181 H181        5.8955   -8.9372  -44.6682 H         1 UNK         0.0600 
    182 H182        7.4088   -9.3343  -43.8633 H         1 UNK         0.0600 
    183 H183        6.3091   -8.1788  -43.1296 H         1 UNK         0.0600 
    184 H184        3.8982   -9.1195  -43.2508 H         1 UNK         0.3000 
    185 H185        1.3556  -10.9161  -41.6133 H         1 UNK         0.0600 
    186 H186        2.0717   -9.3888  -39.7622 H         1 UNK         0.0600 
    187 H187        2.2976   -8.0843  -40.9223 H         1 UNK         0.0600 
    188 H188        0.6888   -8.7474  -40.6346 H         1 UNK         0.0600 
    189 H189        0.9785   -8.6061  -43.0586 H         1 UNK         0.3000 
    190 H190       -4.6839  -21.0439  -46.8836 H         1 UNK         0.3000 
    191 H191       -7.3313  -22.3246  -47.3102 H         1 UNK         0.0600 
    192 H192       -7.8191  -20.4360  -45.7921 H         1 UNK         0.0600 
    193 H193       -7.9344  -21.9521  -44.9128 H         1 UNK         0.0600 
    194 H194       -6.5173  -20.9270  -44.7093 H         1 UNK         0.0600 
    195 H195       -4.2041  -22.3642  -45.5250 H         1 UNK         0.3000 
    196 H196       -4.6370  -24.8220  -44.1961 H         1 UNK         0.0600 
    197 H197       -2.2001  -24.6849  -43.7369 H         1 UNK         0.0600 
    198 H198       -2.9410  -23.1057  -43.5254 H         1 UNK         0.0600 
    199 H199       -2.0039  -23.4562  -44.9786 H         1 UNK         0.0600 
    200 H200       -4.0188  -26.9072  -44.6173 H         1 UNK         0.3000 
    201 H201       -3.7578  -28.7965  -45.7477 H         1 UNK         0.0600 
    202 H202       -1.3750  -28.0717  -45.7833 H         1 UNK         0.0600 
    203 H203       -1.6214  -27.2723  -47.3330 H         1 UNK         0.0600 
    204 H204       -1.7671  -29.0199  -47.2077 H         1 UNK         0.0600 
    205 H205       -5.9542  -27.4278  -46.5145 H         1 UNK         0.3000 
    206 H206       -7.5958  -27.2024  -47.9927 H         1 UNK         0.0600 
    207 H207       -7.3049  -29.6635  -48.3369 H         1 UNK         0.0600 
    208 H208       -7.8572  -28.8665  -49.8014 H         1 UNK         0.0600 
    209 H209       -6.1764  -29.3563  -49.6558 H         1 UNK         0.0600 
    210 H210       -5.9564  -25.2023  -48.0360 H         1 UNK         0.3000 
    211 H211       -5.0351  -23.4655  -49.0487 H         1 UNK         0.0600 
    212 H212       -6.8091  -24.1800  -51.4466 H         1 UNK         0.0600 
    213 H213       -6.0821  -22.6131  -51.1159 H         1 UNK         0.0600 
    214 H214       -7.3174  -23.2409  -50.0427 H         1 UNK         0.0600 
    215 H215       -3.3030  -25.3451  -48.9008 H         1 UNK         0.3000 
    216 H216       -1.4934  -26.4132  -49.6106 H         1 UNK         0.0600 
    217 H217        0.0206  -25.1014  -51.1348 H         1 UNK         0.0600 
    218 H218       -0.6743  -24.1225  -49.8555 H         1 UNK         0.0600 
    219 H219       -1.3099  -24.0050  -51.4950 H         1 UNK         0.0600 
    220 H220       -3.4898  -27.8125  -50.4507 H         1 UNK         0.3000 
    221 H221       -4.3975  -29.2492  -51.8623 H         1 UNK         0.0600 
    222 H222       -1.6675  -29.2911  -53.2588 H         1 UNK         0.0600 
    223 H223       -2.1016  -30.2318  -51.8321 H         1 UNK         0.0600 
    224 H224       -2.9083  -30.5323  -53.3629 H         1 UNK         0.0600 
    225 H225       -5.2464  -26.8192  -52.3383 H         1 UNK         0.3000 
    226 H226       -6.3394  -25.4639  -53.6357 H         1 UNK         0.0600 
    227 H227       -7.4079  -27.5706  -54.4676 H         1 UNK         0.0600 
    228 H228       -7.4190  -26.2999  -55.6772 H         1 UNK         0.0600 
    229 H229       -6.2642  -27.6177  -55.8096 H         1 UNK         0.0600 
    230 H230       -3.2870  -25.4716  -53.8533 H         1 UNK         0.3000 
    231 H231       -2.7641  -24.1549  -56.4139 H         1 UNK         0.0600 
    232 H232       -1.0679  -24.2837  -53.8689 H         1 UNK         0.0600 
    233 H233       -0.5300  -23.7435  -55.4524 H         1 UNK         0.0600 
    234 H234       -0.9785  -25.4256  -55.2091 H         1 UNK         0.0600 
    235 H235       -3.7906  -23.2284  -53.1812 H         1 UNK         0.3000 
    236 H236       -4.4519  -21.3664  -52.2086 H         1 UNK         0.0600 
    237 H237       -6.1595  -21.5601  -54.0133 H         1 UNK         0.0600 
    238 H238       -5.9113  -19.8878  -53.5406 H         1 UNK         0.0600 
    239 H239       -5.2082  -20.4868  -55.0392 H         1 UNK         0.0600 
    240 H240       -1.6896  -21.3618  -52.6384 H         1 UNK         0.3000 
    241 H241        0.1003  -20.1087  -52.3526 H         1 UNK         0.0600 
    242 H242       -0.2701  -19.2979  -56.1599 H         1 UNK         0.3800 
    243 H243       -1.3612  -20.3053  -55.2446 H         1 UNK         0.3800 
    244 H244       -1.4355  -17.4873  -52.2796 H         1 UNK         0.0800 
    245 H245       -1.5979  -18.6329  -50.9805 H         1 UNK         0.0800 
    246 H246        1.5298  -15.5156  -51.1820 H         1 UNK         0.0800 
    247 H247        0.2325  -15.7414  -52.3236 H         1 UNK         0.0800 
@<TRIPOS>BOND
     1    1    2 1    
     2    1  127 1    
     3    1  128 1    
     4    1  129 1    
     5    2    3 2    
     6    2    4 am   BACKBONE|DICT|INTERRES
     7    4    5 1    
     8    4  130 1    
     9    5    6 1    
    10    5   65 1    
    11    5  131 1    
    12    6    7 1    
    13    6  132 1    
    14    6  133 1    
    15    7    8 1    
    16    8    9 1    
    17    8  134 1    
    18    8  135 1    
    19    9   10 ar   
    20    9   14 ar   
    21   10   11 ar   
    22   10  136 1    
    23   11   12 ar   
    24   11  126 1    
    25   12   13 ar   
    26   12  137 1    
    27   13   14 ar   
    28   13   15 1    
    29   14  138 1    
    30   15   16 1    
    31   15  139 1    
    32   15  140 1    
    33   16   17 1    
    34   17   18 1    
    35   17  141 1    
    36   17  142 1    
    37   18   19 1    
    38   18   67 1    
    39   18  143 1    
    40   19   20 am   BACKBONE|DICT|INTERRES
    41   19  144 1    
    42   20   21 2    
    43   20   22 1    
    44   22   23 1    
    45   22   24 1    
    46   22  145 1    
    47   23  146 1    
    48   23  147 1    
    49   23  148 1    
    50   24   25 am   BACKBONE|DICT|INTERRES
    51   24  149 1    
    52   25   26 2    
    53   25   27 1    
    54   27   28 1    
    55   27   29 1    
    56   27  150 1    
    57   28  151 1    
    58   28  152 1    
    59   28  153 1    
    60   29   30 am   BACKBONE|DICT|INTERRES
    61   29  154 1    
    62   30   31 2    
    63   30   32 1    
    64   32   33 1    
    65   32   34 1    
    66   32  155 1    
    67   33  156 1    
    68   33  157 1    
    69   33  158 1    
    70   34   35 am   BACKBONE|DICT|INTERRES
    71   34  159 1    
    72   35   36 2    
    73   35   37 1    
    74   37   38 1    
    75   37   39 1    
    76   37  160 1    
    77   38  161 1    
    78   38  162 1    
    79   38  163 1    
    80   39   40 am   BACKBONE|DICT|INTERRES
    81   39  164 1    
    82   40   41 2    
    83   40   42 1    
    84   42   43 1    
    85   42   44 1    
    86   42  165 1    
    87   43  166 1    
    88   43  167 1    
    89   43  168 1    
    90   44   45 am   BACKBONE|DICT|INTERRES
    91   44  169 1    
    92   45   46 2    
    93   45   47 1    
    94   47   48 1    
    95   47   49 1    
    96   47  170 1    
    97   48  171 1    
    98   48  172 1    
    99   48  173 1    
   100   49   50 am   BACKBONE|DICT|INTERRES
   101   49  174 1    
   102   50   51 2    
   103   50   52 1    
   104   52   53 1    
   105   52   54 1    
   106   52  175 1    
   107   53  176 1    
   108   53  177 1    
   109   53  178 1    
   110   54   55 am   BACKBONE|DICT|INTERRES
   111   54  179 1    
   112   55   56 2    
   113   55   57 1    
   114   57   58 1    
   115   57   59 1    
   116   57  180 1    
   117   58  181 1    
   118   58  182 1    
   119   58  183 1    
   120   59   60 am   BACKBONE|DICT|INTERRES
   121   59  184 1    
   122   60   61 2    
   123   60   62 1    
   124   62   63 1    
   125   62   64 1    
   126   62  185 1    
   127   63  186 1    
   128   63  187 1    
   129   63  188 1    
   130   64   65 am   BACKBONE|DICT|INTERRES
   131   64  189 1    
   132   65   66 2    
   133   67   68 2    
   134   67   69 am   BACKBONE|DICT|INTERRES
   135   69   70 1    
   136   69  190 1    
   137   70   71 1    
   138   70   72 1    
   139   70  191 1    
   140   71  192 1    
   141   71  193 1    
   142   71  194 1    
   143   72   73 2    
   144   72   74 am   BACKBONE|DICT|INTERRES
   145   74   75 1    
   146   74  195 1    
   147   75   76 1    
   148   75   77 1    
   149   75  196 1    
   150   76  197 1    
   151   76  198 1    
   152   76  199 1    
   153   77   78 2    
   154   77   79 am   BACKBONE|DICT|INTERRES
   155   79   80 1    
   156   79  200 1    
   157   80   81 1    
   158   80   82 1    
   159   80  201 1    
   160   81  202 1    
   161   81  203 1    
   162   81  204 1    
   163   82   83 2    
   164   82   84 am   BACKBONE|DICT|INTERRES
   165   84   85 1    
   166   84  205 1    
   167   85   86 1    
   168   85   87 1    
   169   85  206 1    
   170   86  207 1    
   171   86  208 1    
   172   86  209 1    
   173   87   88 2    
   174   87   89 am   BACKBONE|DICT|INTERRES
   175   89   90 1    
   176   89  210 1    
   177   90   91 1    
   178   90   92 1    
   179   90  211 1    
   180   91  212 1    
   181   91  213 1    
   182   91  214 1    
   183   92   93 2    
   184   92   94 am   BACKBONE|DICT|INTERRES
   185   94   95 1    
   186   94  215 1    
   187   95   96 1    
   188   95   97 1    
   189   95  216 1    
   190   96  217 1    
   191   96  218 1    
   192   96  219 1    
   193   97   98 2    
   194   97   99 am   BACKBONE|DICT|INTERRES
   195   99  100 1    
   196   99  220 1    
   197  100  101 1    
   198  100  102 1    
   199  100  221 1    
   200  101  222 1    
   201  101  223 1    
   202  101  224 1    
   203  102  103 2    
   204  102  104 am   BACKBONE|DICT|INTERRES
   205  104  105 1    
   206  104  225 1    
   207  105  106 1    
   208  105  107 1    
   209  105  226 1    
   210  106  227 1    
   211  106  228 1    
   212  106  229 1    
   213  107  108 2    
   214  107  109 am   BACKBONE|DICT|INTERRES
   215  109  110 1    
   216  109  230 1    
   217  110  111 1    
   218  110  112 1    
   219  110  231 1    
   220  111  232 1    
   221  111  233 1    
   222  111  234 1    
   223  112  113 2    
   224  112  114 am   BACKBONE|DICT|INTERRES
   225  114  115 1    
   226  114  235 1    
   227  115  116 1    
   228  115  117 1    
   229  115  236 1    
   230  116  237 1    
   231  116  238 1    
   232  116  239 1    
   233  117  118 2    
   234  117  119 am   BACKBONE|DICT|INTERRES
   235  119  120 1    
   236  119  240 1    
   237  120  121 1    
   238  120  124 1    
   239  120  241 1    
   240  121  122 am   BACKBONE|DICT|INTERRES
   241  121  123 2    
   242  122  242 1    
   243  122  243 1    
   244  124  125 1    
   245  124  244 1    
   246  124  245 1    
   247  125  126 1    
   248  126  246 1    
   249  126  247 1    
@<TRIPOS>SUBSTRUCTURE
     1 UNK         1 GROUP             0       ****    0 ROOT    
