@<TRIPOS>MOLECULE
3R540
247   249    1
SMALL
USER_CHARGES


@<TRIPOS>ATOM
      1 CA          6.5883   -9.1540  -47.6467 C.3       0 UNK        -0.1800 
      2 C           5.8319  -10.2129  -48.4367 C.2       0 UNK         0.5000 
      3 O           6.2541  -10.5756  -49.5353 O.2       0 UNK        -0.5000 
      4 N           4.7134  -10.7020  -47.8867 N.am      1 UNK        -0.5000 
      5 CA          3.8957  -11.7744  -48.4615 C.3       1 UNK         0.1400 
      6 C6          2.4939  -11.8103  -47.8050 C.3       23 UNK        -0.0398 
      7 S7          1.2606  -12.6768  -48.8348 S.3       23 UNK        -0.2404 
      8 C8          0.6996  -13.9568  -47.6776 C.3       23 UNK        -0.0205 
      9 C9         -0.1671  -14.9941  -48.3732 C.ar      23 UNK        -0.0193 
     10 C10        -1.5529  -14.8265  -48.4464 C.ar      23 UNK        -0.1150 
     11 C11        -2.3532  -15.7989  -49.0538 C.ar      23 UNK        -0.0193 
     12 C12        -1.7593  -16.9414  -49.5978 C.ar      23 UNK        -0.1150 
     13 C13        -0.3736  -17.1093  -49.5463 C.ar      23 UNK        -0.0193 
     14 C14         0.4163  -16.1352  -48.9296 C.ar      23 UNK        -0.1150 
     15 C15         0.2812  -18.3287  -50.1723 C.3       23 UNK        -0.0205 
     16 S16         0.7253  -19.5654  -48.9194 S.3       23 UNK        -0.2404 
     17 C17        -0.8366  -20.4808  -48.7077 C.3       23 UNK        -0.0398 
     18 CA         -0.6282  -21.6576  -47.7276 C.3       11 UNK         0.1400 
     19 N          -0.5074  -21.2141  -46.3349 N.am      11 UNK        -0.5000 
     20 C          -0.0536  -21.9934  -45.3445 C.2       10 UNK         0.5000 
     21 O           0.3055  -23.1584  -45.5043 O.2       10 UNK        -0.5000 
     22 CA         -0.0461  -21.3971  -43.9301 C.3       10 UNK         0.1400 
     23 CB          1.1324  -20.4351  -43.7343 C.3       10 UNK        -0.1800 
     24 N          -1.3033  -20.7255  -43.6105 N.am      10 UNK        -0.5000 
     25 C          -2.4733  -21.3603  -43.4587 C.2       9 UNK         0.5000 
     26 O          -2.6070  -22.5820  -43.5320 O.2       9 UNK        -0.5000 
     27 CA         -3.7083  -20.4743  -43.2303 C.3       9 UNK         0.1400 
     28 CB         -3.8301  -20.0773  -41.7517 C.3       9 UNK        -0.1800 
     29 N          -3.6906  -19.2710  -44.0616 N.am      9 UNK        -0.5000 
     30 C          -3.8093  -19.2790  -45.3966 C.2       8 UNK         0.5000 
     31 O          -3.9254  -20.2986  -46.0722 O.2       8 UNK        -0.5000 
     32 CA         -3.7641  -17.9196  -46.1065 C.3       8 UNK         0.1400 
     33 CB         -5.1384  -17.2392  -46.0165 C.3       8 UNK        -0.1800 
     34 N          -2.7497  -17.0113  -45.5797 N.am      8 UNK        -0.5000 
     35 C          -1.4377  -17.2609  -45.4658 C.2       7 UNK         0.5000 
     36 O          -0.9122  -18.3362  -45.7607 O.2       7 UNK        -0.5000 
     37 CA         -0.5660  -16.1068  -44.9288 C.3       7 UNK         0.1400 
     38 CB         -1.3411  -14.7865  -44.7052 C.3       7 UNK        -0.1800 
     39 N           0.1622  -16.4338  -43.7051 N.am      7 UNK        -0.5000 
     40 C          -0.3415  -16.9066  -42.5561 C.2       6 UNK         0.5000 
     41 O          -1.4629  -17.4021  -42.4341 O.2       6 UNK        -0.5000 
     42 CA          0.5425  -16.7042  -41.3104 C.3       6 UNK         0.1400 
     43 CB          1.5336  -17.8600  -41.1243 C.3       6 UNK        -0.1800 
     44 N           1.2722  -15.4325  -41.3662 N.am      6 UNK        -0.5000 
     45 C           0.6954  -14.2276  -41.2280 C.2       5 UNK         0.5000 
     46 O          -0.4967  -14.0727  -40.9603 O.2       5 UNK        -0.5000 
     47 CA          1.5848  -12.9813  -41.4074 C.3       5 UNK         0.1400 
     48 CB          1.9527  -12.3846  -40.0398 C.3       5 UNK        -0.1800 
     49 N           2.8167  -13.2479  -42.1501 N.am      5 UNK        -0.5000 
     50 C           2.9011  -13.3735  -43.4809 C.2       4 UNK         0.5000 
     51 O           1.9412  -13.2424  -44.2425 O.2       4 UNK        -0.5000 
     52 CA          4.2924  -13.7013  -44.0684 C.3       4 UNK         0.1400 
     53 CB          5.3543  -14.0699  -43.0077 C.3       4 UNK        -0.1800 
     54 N           4.2439  -14.7440  -45.0969 N.am      4 UNK        -0.5000 
     55 C           3.7038  -15.9685  -44.9863 C.2       3 UNK         0.5000 
     56 O           3.1014  -16.3623  -43.9855 O.2       3 UNK        -0.5000 
     57 CA          3.8720  -16.9063  -46.1963 C.3       3 UNK         0.1400 
     58 CB          2.7308  -17.9257  -46.3331 C.3       3 UNK        -0.1800 
     59 N           4.0014  -16.1486  -47.4414 N.am      3 UNK        -0.5000 
     60 C           4.9843  -16.2980  -48.3360 C.2       2 UNK         0.5000 
     61 O           5.8723  -17.1464  -48.2456 O.2       2 UNK        -0.5000 
     62 CA          4.9928  -15.3274  -49.5349 C.3       2 UNK         0.1400 
     63 CB          4.3613  -16.0011  -50.7636 C.3       2 UNK        -0.1800 
     64 N           4.3302  -14.0344  -49.3182 N.am      2 UNK        -0.5000 
     65 C           4.6238  -13.1356  -48.3677 C.2       1 UNK         0.5000 
     66 O           5.4074  -13.3518  -47.4392 O.2       1 UNK        -0.5000 
     67 C          -1.6888  -22.7645  -47.9041 C.2       11 UNK         0.5000 
     68 O          -1.4540  -23.6979  -48.6753 O.2       11 UNK        -0.5000 
     69 N          -2.8025  -22.6860  -47.1598 N.am      12 UNK        -0.5000 
     70 CA         -3.8335  -23.7242  -47.1030 C.3       12 UNK         0.1400 
     71 CB         -5.0527  -23.2220  -46.3167 C.3       12 UNK        -0.1800 
     72 C          -3.3181  -25.0469  -46.5102 C.2       12 UNK         0.5000 
     73 O          -3.6283  -26.1109  -47.0454 O.2       12 UNK        -0.5000 
     74 N          -2.5242  -24.9565  -45.4343 N.am      13 UNK        -0.5000 
     75 CA         -1.8710  -26.1013  -44.8004 C.3       13 UNK         0.1400 
     76 CB         -1.3032  -25.6788  -43.4369 C.3       13 UNK        -0.1800 
     77 C          -0.7706  -26.7184  -45.6836 C.2       13 UNK         0.5000 
     78 O          -0.6424  -27.9428  -45.7227 O.2       13 UNK        -0.5000 
     79 N          -0.0009  -25.8639  -46.3720 N.am      14 UNK        -0.5000 
     80 CA          1.0996  -26.2554  -47.2496 C.3       14 UNK         0.1400 
     81 CB          1.9336  -25.0201  -47.6219 C.3       14 UNK        -0.1800 
     82 C           0.6394  -26.9929  -48.5178 C.2       14 UNK         0.5000 
     83 O           1.2620  -27.9926  -48.8809 O.2       14 UNK        -0.5000 
     84 N          -0.4207  -26.4976  -49.1729 N.am      15 UNK        -0.5000 
     85 CA         -0.9129  -27.0639  -50.4312 C.3       15 UNK         0.1400 
     86 CB          0.0018  -26.6427  -51.5990 C.3       15 UNK        -0.1800 
     87 C          -2.3671  -26.6980  -50.7580 C.2       15 UNK         0.5000 
     88 O          -3.0598  -27.5285  -51.3477 O.2       15 UNK        -0.5000 
     89 N          -2.7923  -25.4678  -50.4277 N.am      16 UNK        -0.5000 
     90 CA         -4.0168  -24.8175  -50.9095 C.3       16 UNK         0.1400 
     91 CB         -5.2879  -25.5134  -50.3668 C.3       16 UNK        -0.1800 
     92 C          -3.9691  -24.6850  -52.4462 C.2       16 UNK         0.5000 
     93 O          -3.1117  -23.9564  -52.9491 O.2       16 UNK        -0.5000 
     94 N          -4.8522  -25.4017  -53.1568 N.am      17 UNK        -0.5000 
     95 CA         -4.8824  -25.5775  -54.6120 C.3       17 UNK         0.1400 
     96 CB         -3.7300  -26.5114  -55.0475 C.3       17 UNK        -0.1800 
     97 C          -4.9163  -24.2320  -55.3653 C.2       17 UNK         0.5000 
     98 O          -5.9231  -23.5280  -55.2857 O.2       17 UNK        -0.5000 
     99 N          -3.8184  -23.8885  -56.0521 N.am      18 UNK        -0.5000 
    100 CA        -3.6427  -22.6520  -56.8140 C.3       18 UNK         0.1400 
    101 CB        -2.3476  -22.7536  -57.6343 C.3       18 UNK        -0.1800 
    102 C         -3.6350  -21.3738  -55.9523 C.2       18 UNK         0.5000 
    103 O         -3.9922  -20.3118  -56.4641 O.2       18 UNK        -0.5000 
    104 N         -3.2437  -21.4827  -54.6724 N.am      19 UNK        -0.5000 
    105 CA        -3.2985  -20.3724  -53.7173 C.3       19 UNK         0.1400 
    106 CB        -2.3831  -20.6646  -52.5174 C.3       19 UNK        -0.1800 
    107 C         -4.7347  -20.0987  -53.2383 C.2       19 UNK         0.5000 
    108 O         -5.0701  -18.9486  -52.9537 O.2       19 UNK        -0.5000 
    109 N         -5.5441  -21.1671  -53.1423 N.am      20 UNK        -0.5000 
    110 CA        -6.9747  -21.1951  -52.8026 C.3       20 UNK         0.1400 
    111 CB        -7.7931  -20.6338  -53.9831 C.3       20 UNK        -0.1800 
    112 C         -7.3397  -20.5020  -51.4693 C.2       20 UNK         0.5000 
    113 O         -8.4755  -20.0516  -51.3066 O.2       20 UNK        -0.5000 
    114 N         -6.3556  -20.3701  -50.5641 N.am      21 UNK        -0.5000 
    115 CA        -6.3888  -19.5754  -49.3277 C.3       21 UNK         0.1400 
    116 CB        -7.3128  -20.2446  -48.2899 C.3       21 UNK        -0.1800 
    117 C         -6.7459  -18.0868  -49.5682 C.2       21 UNK         0.5000 
    118 O         -7.3100  -17.4426  -48.6836 O.2       21 UNK        -0.5000 
    119 N         -6.4350  -17.5776  -50.7705 N.am      22 UNK        -0.5000 
    120 CA        -6.8526  -16.2688  -51.3041 C.3       22 UNK         0.1400 
    121 C         -8.3955  -16.1082  -51.4927 C.2       22 UNK         0.5000 
    122 N         -9.1834  -17.1779  -51.5172 N.am      22 UNK        -0.7600 
    123 O         -8.8925  -14.9970  -51.6567 O.2       22 UNK        -0.5000 
    124 C124       -6.2011  -15.0649  -50.5650 C.3       23 UNK        -0.0398 
    125 S125       -4.3859  -15.0349  -50.7531 S.3       23 UNK        -0.2404 
    126 C126       -3.8600  -15.6238  -49.1189 C.3       23 UNK        -0.0205 
    127 H127        6.6607   -8.2336  -48.2260 H         1 UNK         0.0600 
    128 H128        7.5982   -9.5006  -47.4272 H         1 UNK         0.0600 
    129 H129        6.0955   -8.9232  -46.7019 H         1 UNK         0.0600 
    130 H130        4.4368  -10.3797  -46.9707 H         1 UNK         0.3000 
    131 H131        3.7673  -11.5370  -49.5203 H         1 UNK         0.0600 
    132 H132        2.5382  -12.2389  -46.8020 H         1 UNK         0.0800 
    133 H133        2.1217  -10.7932  -47.6735 H         1 UNK         0.0800 
    134 H134        1.5595  -14.4416  -47.2150 H         1 UNK         0.0800 
    135 H135        0.1462  -13.4811  -46.8669 H         1 UNK         0.0800 
    136 H136       -2.0082  -13.9401  -48.0278 H         1 UNK         0.1150 
    137 H137       -2.3763  -17.6903  -50.0740 H         1 UNK         0.1150 
    138 H138        1.4868  -16.2714  -48.8839 H         1 UNK         0.1150 
    139 H139       -0.3625  -18.7754  -50.9305 H         1 UNK         0.0800 
    140 H140        1.1892  -18.0194  -50.6920 H         1 UNK         0.0800 
    141 H141       -1.6178  -19.8059  -48.3535 H         1 UNK         0.0800 
    142 H142       -1.1463  -20.8394  -49.6909 H         1 UNK         0.0800 
    143 H143        0.3209  -22.1308  -47.9884 H         1 UNK         0.0600 
    144 H144       -0.7482  -20.2465  -46.1345 H         1 UNK         0.3000 
    145 H145        0.0836  -22.2272  -43.2321 H         1 UNK         0.0600 
    146 H146        2.0514  -20.8374  -44.1628 H         1 UNK         0.0600 
    147 H147        0.9448  -19.4670  -44.1970 H         1 UNK         0.0600 
    148 H148        1.3203  -20.2730  -42.6753 H         1 UNK         0.0600 
    149 H149       -1.2949  -19.7146  -43.5899 H         1 UNK         0.3000 
    150 H150       -4.5911  -21.0582  -43.4993 H         1 UNK         0.0600 
    151 H151       -3.8737  -20.9609  -41.1137 H         1 UNK         0.0600 
    152 H152       -4.7380  -19.5015  -41.5715 H         1 UNK         0.0600 
    153 H153       -2.9812  -19.4769  -41.4227 H         1 UNK         0.0600 
    154 H154       -3.5294  -18.3911  -43.5905 H         1 UNK         0.3000 
    155 H155       -3.5293  -18.1035  -47.1563 H         1 UNK         0.0600 
    156 H156       -5.1725  -16.3182  -46.5965 H         1 UNK         0.0600 
    157 H157       -5.3979  -16.9913  -44.9865 H         1 UNK         0.0600 
    158 H158       -5.9229  -17.8920  -46.3988 H         1 UNK         0.0600 
    159 H159       -3.0783  -16.1034  -45.2867 H         1 UNK         0.3000 
    160 H160        0.1919  -15.9236  -45.6879 H         1 UNK         0.0600 
    161 H161       -2.0860  -14.8782  -43.9135 H         1 UNK         0.0600 
    162 H162       -1.8516  -14.4564  -45.6095 H         1 UNK         0.0600 
    163 H163       -0.6626  -13.9839  -44.4165 H         1 UNK         0.0600 
    164 H164        1.1385  -16.1554  -43.6983 H         1 UNK         0.3000 
    165 H165       -0.1131  -16.6816  -40.4371 H         1 UNK         0.0600 
    166 H166        2.1734  -17.9922  -41.9976 H         1 UNK         0.0600 
    167 H167        2.1763  -17.6940  -40.2597 H         1 UNK         0.0600 
    168 H168        1.0003  -18.7949  -40.9523 H         1 UNK         0.0600 
    169 H169        2.2480  -15.4779  -41.6224 H         1 UNK         0.3000 
    170 H170        1.0005  -12.2392  -41.9558 H         1 UNK         0.0600 
    171 H171        1.0577  -12.1402  -39.4660 H         1 UNK         0.0600 
    172 H172        2.5453  -13.0793  -39.4433 H         1 UNK         0.0600 
    173 H173        2.5256  -11.4639  -40.1522 H         1 UNK         0.0600 
    174 H174        3.6553  -13.3696  -41.6011 H         1 UNK         0.3000 
    175 H175        4.6275  -12.7934  -44.5719 H         1 UNK         0.0600 
    176 H176        5.0688  -14.9526  -42.4338 H         1 UNK         0.0600 
    177 H177        6.3141  -14.2826  -43.4789 H         1 UNK         0.0600 
    178 H178        5.5236  -13.2507  -42.3081 H         1 UNK         0.0600 
    179 H179        4.7116  -14.5018  -45.9649 H         1 UNK         0.3000 
    180 H180        4.7894  -17.4641  -45.9992 H         1 UNK         0.0600 
    181 H181        1.7719  -17.4456  -46.5232 H         1 UNK         0.0600 
    182 H182        2.6320  -18.5246  -45.4292 H         1 UNK         0.0600 
    183 H183        2.9269  -18.6169  -47.1520 H         1 UNK         0.0600 
    184 H184        3.3318  -15.4102  -47.5922 H         1 UNK         0.3000 
    185 H185        6.0393  -15.1160  -49.7633 H         1 UNK         0.0600 
    186 H186        4.4692  -15.3812  -51.6539 H         1 UNK         0.0600 
    187 H187        4.8408  -16.9575  -50.9774 H         1 UNK         0.0600 
    188 H188        3.2983  -16.1939  -50.6150 H         1 UNK         0.0600 
    189 H189        3.6457  -13.7770  -50.0155 H         1 UNK         0.3000 
    190 H190       -2.9673  -21.8596  -46.5911 H         1 UNK         0.3000 
    191 H191       -4.1556  -23.9189  -48.1246 H         1 UNK         0.0600 
    192 H192       -5.8324  -23.9835  -46.2742 H         1 UNK         0.0600 
    193 H193       -5.4871  -22.3409  -46.7864 H         1 UNK         0.0600 
    194 H194       -4.7913  -22.9601  -45.2912 H         1 UNK         0.0600 
    195 H195       -2.3523  -24.0467  -45.0203 H         1 UNK         0.3000 
    196 H196       -2.6274  -26.8696  -44.6268 H         1 UNK         0.0600 
    197 H197       -0.8223  -26.5197  -42.9358 H         1 UNK         0.0600 
    198 H198       -2.0920  -25.3151  -42.7781 H         1 UNK         0.0600 
    199 H199       -0.5607  -24.8865  -43.5365 H         1 UNK         0.0600 
    200 H200       -0.1201  -24.8669  -46.2137 H         1 UNK         0.3000 
    201 H201        1.7441  -26.9351  -46.6880 H         1 UNK         0.0600 
    202 H202        2.3432  -24.5374  -46.7346 H         1 UNK         0.0600 
    203 H203        1.3402  -24.2833  -48.1628 H         1 UNK         0.0600 
    204 H204        2.7753  -25.2944  -48.2591 H         1 UNK         0.0600 
    205 H205       -0.8897  -25.6747  -48.8104 H         1 UNK         0.3000 
    206 H206       -0.8862  -28.1530  -50.3505 H         1 UNK         0.0600 
    207 H207        1.0145  -27.0259  -51.4756 H         1 UNK         0.0600 
    208 H208       -0.3721  -27.0268  -52.5492 H         1 UNK         0.0600 
    209 H209        0.0623  -25.5571  -51.6856 H         1 UNK         0.0600 
    210 H210       -2.1519  -24.8447  -49.9432 H         1 UNK         0.3000 
    211 H211       -4.0013  -23.7999  -50.5173 H         1 UNK         0.0600 
    212 H212       -5.4010  -26.5325  -50.7366 H         1 UNK         0.0600 
    213 H213       -6.1846  -24.9587  -50.6459 H         1 UNK         0.0600 
    214 H214       -5.2740  -25.5711  -49.2795 H         1 UNK         0.0600 
    215 H215       -5.5219  -25.9557  -52.6424 H         1 UNK         0.3000 
    216 H216       -5.8211  -26.0811  -54.8472 H         1 UNK         0.0600 
    217 H217       -3.7518  -26.6933  -56.1228 H         1 UNK         0.0600 
    218 H218       -3.8149  -27.4820  -54.5582 H         1 UNK         0.0600 
    219 H219       -2.7496  -26.1063  -54.7937 H         1 UNK         0.0600 
    220 H220       -3.0291  -24.5174  -56.0299 H         1 UNK         0.3000 
    221 H221       -4.4808  -22.5693  -57.5091 H         1 UNK         0.0600 
    222 H222       -1.4730  -22.8652  -56.9922 H         1 UNK         0.0600 
    223 H223       -2.3767  -23.6046  -58.3151 H         1 UNK         0.0600 
    224 H224       -2.1975  -21.8594  -58.2410 H         1 UNK         0.0600 
    225 H225       -2.9844  -22.3931  -54.3056 H         1 UNK         0.3000 
    226 H226       -2.9314  -19.4678  -54.2070 H         1 UNK         0.0600 
    227 H227       -1.3538  -20.8297  -52.8360 H         1 UNK         0.0600 
    228 H228       -2.3787  -19.8235  -51.8234 H         1 UNK         0.0600 
    229 H229       -2.7068  -21.5433  -51.9597 H         1 UNK         0.0600 
    230 H230       -5.1621  -22.0539  -53.4403 H         1 UNK         0.3000 
    231 H231       -7.2406  -22.2462  -52.6822 H         1 UNK         0.0600 
    232 H232       -8.8632  -20.7720  -53.8248 H         1 UNK         0.0600 
    233 H233       -7.5381  -21.1406  -54.9141 H         1 UNK         0.0600 
    234 H234       -7.6161  -19.5668  -54.1235 H         1 UNK         0.0600 
    235 H235       -5.4568  -20.7587  -50.8076 H         1 UNK         0.3000 
    236 H236       -5.3746  -19.5865  -48.9255 H         1 UNK         0.0600 
    237 H237       -7.0874  -21.3052  -48.1857 H         1 UNK         0.0600 
    238 H238       -7.1939  -19.7894  -47.3064 H         1 UNK         0.0600 
    239 H239       -8.3633  -20.1544  -48.5680 H         1 UNK         0.0600 
    240 H240       -5.9633  -18.1737  -51.4455 H         1 UNK         0.3000 
    241 H241       -6.4707  -16.2536  -52.3255 H         1 UNK         0.0600 
    242 H242       -8.8130  -18.1151  -51.3948 H         1 UNK         0.3800 
    243 H243      -10.1740  -17.0533  -51.6519 H         1 UNK         0.3800 
    244 H244       -6.5648  -14.1213  -50.9743 H         1 UNK         0.0800 
    245 H245       -6.4763  -15.0558  -49.5098 H         1 UNK         0.0800 
    246 H246       -4.1971  -14.9211  -48.3555 H         1 UNK         0.0800 
    247 H247       -4.3436  -16.5761  -48.9060 H         1 UNK         0.0800 
@<TRIPOS>BOND
     1    1    2 1    
     2    1  127 1    
     3    1  128 1    
     4    1  129 1    
     5    2    3 2    
     6    2    4 am   BACKBONE|DICT|INTERRES
     7    4    5 1    
     8    4  130 1    
     9    5    6 1    
    10    5   65 1    
    11    5  131 1    
    12    6    7 1    
    13    6  132 1    
    14    6  133 1    
    15    7    8 1    
    16    8    9 1    
    17    8  134 1    
    18    8  135 1    
    19    9   10 ar   
    20    9   14 ar   
    21   10   11 ar   
    22   10  136 1    
    23   11   12 ar   
    24   11  126 1    
    25   12   13 ar   
    26   12  137 1    
    27   13   14 ar   
    28   13   15 1    
    29   14  138 1    
    30   15   16 1    
    31   15  139 1    
    32   15  140 1    
    33   16   17 1    
    34   17   18 1    
    35   17  141 1    
    36   17  142 1    
    37   18   19 1    
    38   18   67 1    
    39   18  143 1    
    40   19   20 am   BACKBONE|DICT|INTERRES
    41   19  144 1    
    42   20   21 2    
    43   20   22 1    
    44   22   23 1    
    45   22   24 1    
    46   22  145 1    
    47   23  146 1    
    48   23  147 1    
    49   23  148 1    
    50   24   25 am   BACKBONE|DICT|INTERRES
    51   24  149 1    
    52   25   26 2    
    53   25   27 1    
    54   27   28 1    
    55   27   29 1    
    56   27  150 1    
    57   28  151 1    
    58   28  152 1    
    59   28  153 1    
    60   29   30 am   BACKBONE|DICT|INTERRES
    61   29  154 1    
    62   30   31 2    
    63   30   32 1    
    64   32   33 1    
    65   32   34 1    
    66   32  155 1    
    67   33  156 1    
    68   33  157 1    
    69   33  158 1    
    70   34   35 am   BACKBONE|DICT|INTERRES
    71   34  159 1    
    72   35   36 2    
    73   35   37 1    
    74   37   38 1    
    75   37   39 1    
    76   37  160 1    
    77   38  161 1    
    78   38  162 1    
    79   38  163 1    
    80   39   40 am   BACKBONE|DICT|INTERRES
    81   39  164 1    
    82   40   41 2    
    83   40   42 1    
    84   42   43 1    
    85   42   44 1    
    86   42  165 1    
    87   43  166 1    
    88   43  167 1    
    89   43  168 1    
    90   44   45 am   BACKBONE|DICT|INTERRES
    91   44  169 1    
    92   45   46 2    
    93   45   47 1    
    94   47   48 1    
    95   47   49 1    
    96   47  170 1    
    97   48  171 1    
    98   48  172 1    
    99   48  173 1    
   100   49   50 am   BACKBONE|DICT|INTERRES
   101   49  174 1    
   102   50   51 2    
   103   50   52 1    
   104   52   53 1    
   105   52   54 1    
   106   52  175 1    
   107   53  176 1    
   108   53  177 1    
   109   53  178 1    
   110   54   55 am   BACKBONE|DICT|INTERRES
   111   54  179 1    
   112   55   56 2    
   113   55   57 1    
   114   57   58 1    
   115   57   59 1    
   116   57  180 1    
   117   58  181 1    
   118   58  182 1    
   119   58  183 1    
   120   59   60 am   BACKBONE|DICT|INTERRES
   121   59  184 1    
   122   60   61 2    
   123   60   62 1    
   124   62   63 1    
   125   62   64 1    
   126   62  185 1    
   127   63  186 1    
   128   63  187 1    
   129   63  188 1    
   130   64   65 am   BACKBONE|DICT|INTERRES
   131   64  189 1    
   132   65   66 2    
   133   67   68 2    
   134   67   69 am   BACKBONE|DICT|INTERRES
   135   69   70 1    
   136   69  190 1    
   137   70   71 1    
   138   70   72 1    
   139   70  191 1    
   140   71  192 1    
   141   71  193 1    
   142   71  194 1    
   143   72   73 2    
   144   72   74 am   BACKBONE|DICT|INTERRES
   145   74   75 1    
   146   74  195 1    
   147   75   76 1    
   148   75   77 1    
   149   75  196 1    
   150   76  197 1    
   151   76  198 1    
   152   76  199 1    
   153   77   78 2    
   154   77   79 am   BACKBONE|DICT|INTERRES
   155   79   80 1    
   156   79  200 1    
   157   80   81 1    
   158   80   82 1    
   159   80  201 1    
   160   81  202 1    
   161   81  203 1    
   162   81  204 1    
   163   82   83 2    
   164   82   84 am   BACKBONE|DICT|INTERRES
   165   84   85 1    
   166   84  205 1    
   167   85   86 1    
   168   85   87 1    
   169   85  206 1    
   170   86  207 1    
   171   86  208 1    
   172   86  209 1    
   173   87   88 2    
   174   87   89 am   BACKBONE|DICT|INTERRES
   175   89   90 1    
   176   89  210 1    
   177   90   91 1    
   178   90   92 1    
   179   90  211 1    
   180   91  212 1    
   181   91  213 1    
   182   91  214 1    
   183   92   93 2    
   184   92   94 am   BACKBONE|DICT|INTERRES
   185   94   95 1    
   186   94  215 1    
   187   95   96 1    
   188   95   97 1    
   189   95  216 1    
   190   96  217 1    
   191   96  218 1    
   192   96  219 1    
   193   97   98 2    
   194   97   99 am   BACKBONE|DICT|INTERRES
   195   99  100 1    
   196   99  220 1    
   197  100  101 1    
   198  100  102 1    
   199  100  221 1    
   200  101  222 1    
   201  101  223 1    
   202  101  224 1    
   203  102  103 2    
   204  102  104 am   BACKBONE|DICT|INTERRES
   205  104  105 1    
   206  104  225 1    
   207  105  106 1    
   208  105  107 1    
   209  105  226 1    
   210  106  227 1    
   211  106  228 1    
   212  106  229 1    
   213  107  108 2    
   214  107  109 am   BACKBONE|DICT|INTERRES
   215  109  110 1    
   216  109  230 1    
   217  110  111 1    
   218  110  112 1    
   219  110  231 1    
   220  111  232 1    
   221  111  233 1    
   222  111  234 1    
   223  112  113 2    
   224  112  114 am   BACKBONE|DICT|INTERRES
   225  114  115 1    
   226  114  235 1    
   227  115  116 1    
   228  115  117 1    
   229  115  236 1    
   230  116  237 1    
   231  116  238 1    
   232  116  239 1    
   233  117  118 2    
   234  117  119 am   BACKBONE|DICT|INTERRES
   235  119  120 1    
   236  119  240 1    
   237  120  121 1    
   238  120  124 1    
   239  120  241 1    
   240  121  122 am   BACKBONE|DICT|INTERRES
   241  121  123 2    
   242  122  242 1    
   243  122  243 1    
   244  124  125 1    
   245  124  244 1    
   246  124  245 1    
   247  125  126 1    
   248  126  246 1    
   249  126  247 1    
@<TRIPOS>SUBSTRUCTURE
     1 UNK         1 GROUP             0       ****    0 ROOT    
