@<TRIPOS>MOLECULE
3R540
247   249    1
SMALL
USER_CHARGES


@<TRIPOS>ATOM
      1 CA          4.3927  -12.4595  -45.9661 C.3       0 UNK        -0.1800 
      2 C           3.7730  -13.7107  -46.5717 C.2       0 UNK         0.5000 
      3 O           2.6118  -14.0118  -46.2965 O.2       0 UNK        -0.5000 
      4 N           4.5459  -14.4430  -47.3865 N.am      1 UNK        -0.5000 
      5 CA          4.0923  -15.6389  -48.1064 C.3       1 UNK         0.1400 
      6 C6          5.2841  -16.4698  -48.6445 C.3       23 UNK        -0.0398 
      7 S7          4.8332  -18.2114  -48.9354 S.3       23 UNK        -0.2404 
      8 C8          4.6085  -18.2323  -50.7427 C.3       23 UNK        -0.0205 
      9 C9          3.5947  -19.2902  -51.1449 C.ar      23 UNK        -0.0193 
     10 C10         2.3343  -18.9200  -51.6240 C.ar      23 UNK        -0.1150 
     11 C11         1.3991  -19.8957  -51.9788 C.ar      23 UNK        -0.0193 
     12 C12         1.7160  -21.2466  -51.8051 C.ar      23 UNK        -0.1150 
     13 C13         2.9681  -21.6324  -51.3151 C.ar      23 UNK        -0.0193 
     14 C14         3.9158  -20.6445  -51.0250 C.ar      23 UNK        -0.1150 
     15 C15         3.2672  -23.1197  -51.1282 C.3       23 UNK        -0.0205 
     16 S16         4.4035  -23.5439  -49.7540 S.3       23 UNK        -0.2404 
     17 C17         3.7431  -22.6200  -48.3212 C.3       23 UNK        -0.0398 
     18 CA          2.6869  -23.3910  -47.4964 C.3       11 UNK         0.1400 
     19 N           2.6163  -22.8694  -46.1285 N.am      11 UNK        -0.5000 
     20 C           1.8296  -23.3220  -45.1457 C.2       10 UNK         0.5000 
     21 O           1.1232  -24.3241  -45.2478 O.2       10 UNK        -0.5000 
     22 CA          1.7497  -22.4691  -43.8676 C.3       10 UNK         0.1400 
     23 CB          2.9035  -22.7911  -42.9004 C.3       10 UNK        -0.1800 
     24 N           1.6327  -21.0253  -44.1235 N.am      10 UNK        -0.5000 
     25 C           2.5470  -20.1695  -44.6131 C.2       9 UNK         0.5000 
     26 O           3.6687  -20.5122  -44.9878 O.2       9 UNK        -0.5000 
     27 CA          2.1372  -18.6865  -44.7482 C.3       9 UNK         0.1400 
     28 CB          1.8474  -18.3513  -46.2194 C.3       9 UNK        -0.1800 
     29 N           0.9621  -18.3262  -43.9555 N.am      9 UNK        -0.5000 
     30 C           0.8813  -18.3473  -42.6184 C.2       8 UNK         0.5000 
     31 O           1.8490  -18.5324  -41.8799 O.2       8 UNK        -0.5000 
     32 CA         -0.5220  -18.1740  -42.0021 C.3       8 UNK         0.1400 
     33 CB         -0.6257  -16.8266  -41.2715 C.3       8 UNK        -0.1800 
     34 N          -1.6356  -18.2894  -42.9542 N.am      8 UNK        -0.5000 
     35 C          -1.9736  -19.3888  -43.6511 C.2       7 UNK         0.5000 
     36 O          -1.3007  -20.4220  -43.6503 O.2       7 UNK        -0.5000 
     37 CA         -3.2464  -19.3010  -44.5272 C.3       7 UNK         0.1400 
     38 CB         -3.9172  -20.6706  -44.7517 C.3       7 UNK        -0.1800 
     39 N          -4.2159  -18.3108  -44.0440 N.am      7 UNK        -0.5000 
     40 C          -4.8534  -18.2924  -42.8626 C.2       6 UNK         0.5000 
     41 O          -4.8168  -19.2200  -42.0532 O.2       6 UNK        -0.5000 
     42 CA         -5.6443  -17.0057  -42.5171 C.3       6 UNK         0.1400 
     43 CB         -5.5252  -16.6495  -41.0206 C.3       6 UNK        -0.1800 
     44 N          -5.3158  -15.8254  -43.3381 N.am      6 UNK        -0.5000 
     45 C          -4.1137  -15.2488  -43.4851 C.2       5 UNK         0.5000 
     46 O          -3.0748  -15.6886  -42.9867 O.2       5 UNK        -0.5000 
     47 CA         -4.0508  -13.9945  -44.3657 C.3       5 UNK         0.1400 
     48 CB         -4.1602  -12.7240  -43.5093 C.3       5 UNK        -0.1800 
     49 N          -2.7665  -14.0006  -45.0586 N.am      5 UNK        -0.5000 
     50 C          -2.5919  -13.8822  -46.3774 C.2       4 UNK         0.5000 
     51 O          -3.5056  -13.6745  -47.1796 O.2       4 UNK        -0.5000 
     52 CA         -1.1508  -14.0852  -46.8817 C.3       4 UNK         0.1400 
     53 CB         -0.8692  -15.5828  -47.0879 C.3       4 UNK        -0.1800 
     54 N          -0.9023  -13.3845  -48.1393 N.am      4 UNK        -0.5000 
     55 C          -0.8700  -12.0537  -48.2946 C.2       3 UNK         0.5000 
     56 O          -0.9952  -11.2502  -47.3680 O.2       3 UNK        -0.5000 
     57 CA         -0.6469  -11.5569  -49.7394 C.3       3 UNK         0.1400 
     58 CB         -0.3466  -10.0459  -49.8382 C.3       3 UNK        -0.1800 
     59 N           0.3650  -12.3595  -50.4348 N.am      3 UNK        -0.5000 
     60 C           1.6623  -12.4620  -50.1220 C.2       2 UNK         0.5000 
     61 O           2.2388  -11.7568  -49.2897 O.2       2 UNK        -0.5000 
     62 CA          2.4542  -13.5428  -50.8731 C.3       2 UNK         0.1400 
     63 CB          3.2586  -12.9271  -52.0280 C.3       2 UNK        -0.1800 
     64 N           3.3726  -14.1787  -49.9355 N.am      2 UNK        -0.5000 
     65 C           3.0906  -15.2782  -49.2252 C.2       1 UNK         0.5000 
     66 O           2.0920  -15.9748  -49.4038 O.2       1 UNK        -0.5000 
     67 C           1.3051  -23.3396  -48.1806 C.2       11 UNK         0.5000 
     68 O           0.9025  -24.3064  -48.8249 O.2       11 UNK        -0.5000 
     69 N           0.5826  -22.2304  -47.9625 N.am      12 UNK        -0.5000 
     70 CA         -0.7802  -21.9975  -48.4353 C.3       12 UNK         0.1400 
     71 CB         -1.2105  -20.5833  -48.0164 C.3       12 UNK        -0.1800 
     72 C          -1.7842  -23.0362  -47.9057 C.2       12 UNK         0.5000 
     73 O          -2.6480  -23.4854  -48.6602 O.2       12 UNK        -0.5000 
     74 N          -1.6414  -23.4034  -46.6248 N.am      13 UNK        -0.5000 
     75 CA         -2.4490  -24.4249  -45.9622 C.3       13 UNK         0.1400 
     76 CB         -2.3080  -24.2904  -44.4374 C.3       13 UNK        -0.1800 
     77 C          -2.0666  -25.8402  -46.4260 C.2       13 UNK         0.5000 
     78 O          -2.9557  -26.6392  -46.7169 O.2       13 UNK        -0.5000 
     79 N          -0.7567  -26.1122  -46.5216 N.am      14 UNK        -0.5000 
     80 CA         -0.1902  -27.3878  -46.9690 C.3       14 UNK         0.1400 
     81 CB          1.3339  -27.3629  -46.7798 C.3       14 UNK        -0.1800 
     82 C          -0.5518  -27.7358  -48.4251 C.2       14 UNK         0.5000 
     83 O          -0.8508  -28.8937  -48.7191 O.2       14 UNK        -0.5000 
     84 N          -0.5554  -26.7210  -49.2991 N.am      15 UNK        -0.5000 
     85 CA         -0.9872  -26.8161  -50.6945 C.3       15 UNK         0.1400 
     86 CB         -0.4374  -25.6014  -51.4611 C.3       15 UNK        -0.1800 
     87 C          -2.5189  -26.8945  -50.8590 C.2       15 UNK         0.5000 
     88 O          -2.9844  -27.1998  -51.9575 O.2       15 UNK        -0.5000 
     89 N          -3.2684  -26.5834  -49.7885 N.am      16 UNK        -0.5000 
     90 CA         -4.7281  -26.4328  -49.7274 C.3       16 UNK         0.1400 
     91 CB         -5.4360  -27.7798  -49.9798 C.3       16 UNK        -0.1800 
     92 C          -5.2509  -25.2934  -50.6306 C.2       16 UNK         0.5000 
     93 O          -6.3882  -25.3430  -51.1023 O.2       16 UNK        -0.5000 
     94 N          -4.3980  -24.2875  -50.8538 N.am      17 UNK        -0.5000 
     95 CA         -4.6672  -23.1061  -51.6659 C.3       17 UNK         0.1400 
     96 CB         -3.3393  -22.6433  -52.2861 C.3       17 UNK        -0.1800 
     97 C          -5.3084  -21.9930  -50.8194 C.2       17 UNK         0.5000 
     98 O          -6.2232  -21.3183  -51.2939 O.2       17 UNK        -0.5000 
     99 N          -4.8328  -21.8615  -49.5708 N.am      18 UNK        -0.5000 
    100 CA        -5.2465  -20.9125  -48.5344 C.3       18 UNK         0.1400 
    101 CB        -6.7027  -21.1942  -48.1074 C.3       18 UNK        -0.1800 
    102 C         -5.0289  -19.4307  -48.9120 C.2       18 UNK         0.5000 
    103 O         -4.5199  -19.1133  -49.9894 O.2       18 UNK        -0.5000 
    104 N         -5.4300  -18.5284  -48.0053 N.am      19 UNK        -0.5000 
    105 CA        -5.3691  -17.0734  -48.1888 C.3       19 UNK         0.1400 
    106 CB        -5.7486  -16.3845  -46.8722 C.3       19 UNK        -0.1800 
    107 C         -6.2474  -16.5517  -49.3437 C.2       19 UNK         0.5000 
    108 O         -5.9653  -15.4814  -49.8803 O.2       19 UNK        -0.5000 
    109 N         -7.2621  -17.3338  -49.7388 N.am      20 UNK        -0.5000 
    110 CA        -8.1066  -17.0923  -50.9097 C.3       20 UNK         0.1400 
    111 CB        -9.2065  -18.1639  -50.9577 C.3       20 UNK        -0.1800 
    112 C         -7.3217  -17.0663  -52.2377 C.2       20 UNK         0.5000 
    113 O         -7.7273  -16.3570  -53.1596 O.2       20 UNK        -0.5000 
    114 N         -6.2149  -17.8186  -52.3031 N.am      21 UNK        -0.5000 
    115 CA        -5.2889  -17.8352  -53.4307 C.3       21 UNK         0.1400 
    116 CB        -4.9573  -19.2915  -53.7835 C.3       21 UNK        -0.1800 
    117 C         -4.0030  -17.0631  -53.0979 C.2       21 UNK         0.5000 
    118 O         -3.5643  -16.2452  -53.9077 O.2       21 UNK        -0.5000 
    119 N         -3.4091  -17.3516  -51.9326 N.am      22 UNK        -0.5000 
    120 CA        -2.0743  -16.8674  -51.5430 C.3       22 UNK         0.1400 
    121 C         -2.0631  -15.4707  -50.8621 C.2       22 UNK         0.5000 
    122 N         -3.1949  -14.8838  -50.4970 N.am      22 UNK        -0.7600 
    123 O         -0.9977  -14.8964  -50.6630 O.2       22 UNK        -0.5000 
    124 C124       -1.3026  -17.9076  -50.6854 C.3       23 UNK        -0.0398 
    125 S125       -1.3073  -19.5866  -51.4089 S.3       23 UNK        -0.2404 
    126 C126        0.0655  -19.5016  -52.5961 C.3       23 UNK        -0.0205 
    127 H127        5.4336  -12.3354  -46.2657 H         1 UNK         0.0600 
    128 H128        4.3553  -12.5102  -44.8779 H         1 UNK         0.0600 
    129 H129        3.8387  -11.5773  -46.2874 H         1 UNK         0.0600 
    130 H130        5.4980  -14.1520  -47.5577 H         1 UNK         0.3000 
    131 H131        3.5581  -16.2530  -47.3795 H         1 UNK         0.0600 
    132 H132        6.0858  -16.4826  -47.9048 H         1 UNK         0.0800 
    133 H133        5.7186  -16.0266  -49.5425 H         1 UNK         0.0800 
    134 H134        5.5660  -18.4333  -51.2252 H         1 UNK         0.0800 
    135 H135        4.2841  -17.2523  -51.0947 H         1 UNK         0.0800 
    136 H136        2.0858  -17.8732  -51.7314 H         1 UNK         0.1150 
    137 H137        0.9842  -21.9998  -52.0622 H         1 UNK         0.1150 
    138 H138        4.8952  -20.9221  -50.6623 H         1 UNK         0.1150 
    139 H139        2.3369  -23.6694  -50.9830 H         1 UNK         0.0800 
    140 H140        3.6972  -23.4992  -52.0556 H         1 UNK         0.0800 
    141 H141        3.3753  -21.6365  -48.6134 H         1 UNK         0.0800 
    142 H142        4.6090  -22.4149  -47.6897 H         1 UNK         0.0800 
    143 H143        2.9899  -24.4371  -47.4225 H         1 UNK         0.0600 
    144 H144        3.1650  -22.0379  -45.9229 H         1 UNK         0.3000 
    145 H145        0.8208  -22.7482  -43.3672 H         1 UNK         0.0600 
    146 H146        2.8161  -22.2152  -41.9790 H         1 UNK         0.0600 
    147 H147        2.8950  -23.8468  -42.6266 H         1 UNK         0.0600 
    148 H148        3.8791  -22.5784  -43.3379 H         1 UNK         0.0600 
    149 H149        0.7189  -20.6436  -43.8985 H         1 UNK         0.3000 
    150 H150        2.9792  -18.0792  -44.4100 H         1 UNK         0.0600 
    151 H151        2.6952  -18.6058  -46.8558 H         1 UNK         0.0600 
    152 H152        1.6542  -17.2867  -46.3478 H         1 UNK         0.0600 
    153 H153        0.9817  -18.8962  -46.5959 H         1 UNK         0.0600 
    154 H154        0.1110  -18.1507  -44.4664 H         1 UNK         0.3000 
    155 H155       -0.6432  -18.9694  -41.2642 H         1 UNK         0.0600 
    156 H156       -0.5150  -15.9883  -41.9603 H         1 UNK         0.0600 
    157 H157       -1.5877  -16.7230  -40.7690 H         1 UNK         0.0600 
    158 H158        0.1492  -16.7307  -40.5099 H         1 UNK         0.0600 
    159 H159       -2.2319  -17.4694  -43.0213 H         1 UNK         0.3000 
    160 H160       -2.9136  -18.9393  -45.5012 H         1 UNK         0.0600 
    161 H161       -4.1363  -21.1727  -43.8089 H         1 UNK         0.0600 
    162 H162       -3.2701  -21.3287  -45.3313 H         1 UNK         0.0600 
    163 H163       -4.8534  -20.5697  -45.2996 H         1 UNK         0.0600 
    164 H164       -4.3079  -17.4822  -44.6112 H         1 UNK         0.3000 
    165 H165       -6.6909  -17.2362  -42.7202 H         1 UNK         0.0600 
    166 H166       -6.1014  -15.7559  -40.7808 H         1 UNK         0.0600 
    167 H167       -5.9049  -17.4548  -40.3907 H         1 UNK         0.0600 
    168 H168       -4.4896  -16.4682  -40.7305 H         1 UNK         0.0600 
    169 H169       -6.1072  -15.3972  -43.7987 H         1 UNK         0.3000 
    170 H170       -4.8785  -14.0182  -45.0769 H         1 UNK         0.0600 
    171 H171       -3.3639  -12.6688  -42.7658 H         1 UNK         0.0600 
    172 H172       -4.1026  -11.8283  -44.1280 H         1 UNK         0.0600 
    173 H173       -5.1114  -12.6917  -42.9766 H         1 UNK         0.0600 
    174 H174       -1.9800  -14.2474  -44.4725 H         1 UNK         0.3000 
    175 H175       -0.4549  -13.6949  -46.1361 H         1 UNK         0.0600 
    176 H176        0.1446  -15.7426  -47.4547 H         1 UNK         0.0600 
    177 H177       -1.5579  -16.0267  -47.8078 H         1 UNK         0.0600 
    178 H178       -0.9678  -16.1353  -46.1528 H         1 UNK         0.0600 
    179 H179       -0.8079  -13.9664  -48.9667 H         1 UNK         0.3000 
    180 H180       -1.5854  -11.7353  -50.2664 H         1 UNK         0.0600 
    181 H181        0.5344   -9.7639  -49.2615 H         1 UNK         0.0600 
    182 H182       -1.1834   -9.4596  -49.4570 H         1 UNK         0.0600 
    183 H183       -0.1829   -9.7430  -50.8723 H         1 UNK         0.0600 
    184 H184       -0.0158  -13.0544  -51.0673 H         1 UNK         0.3000 
    185 H185        1.7639  -14.2822  -51.2861 H         1 UNK         0.0600 
    186 H186        2.5965  -12.4519  -52.7529 H         1 UNK         0.0600 
    187 H187        3.9579  -12.1681  -51.6746 H         1 UNK         0.0600 
    188 H188        3.8300  -13.6886  -52.5591 H         1 UNK         0.0600 
    189 H189        4.1708  -13.6248  -49.6617 H         1 UNK         0.3000 
    190 H190        0.9984  -21.4941  -47.4138 H         1 UNK         0.3000 
    191 H191       -0.7732  -22.0570  -49.5257 H         1 UNK         0.0600 
    192 H192       -0.5222  -19.8333  -48.4063 H         1 UNK         0.0600 
    193 H193       -2.1990  -20.3455  -48.4084 H         1 UNK         0.0600 
    194 H194       -1.2469  -20.4723  -46.9321 H         1 UNK         0.0600 
    195 H195       -0.8785  -23.0159  -46.0908 H         1 UNK         0.3000 
    196 H196       -3.4968  -24.2560  -46.2208 H         1 UNK         0.0600 
    197 H197       -2.9482  -25.0092  -43.9247 H         1 UNK         0.0600 
    198 H198       -2.5980  -23.2975  -44.0954 H         1 UNK         0.0600 
    199 H199       -1.2859  -24.4698  -44.1043 H         1 UNK         0.0600 
    200 H200       -0.0909  -25.4045  -46.2222 H         1 UNK         0.3000 
    201 H201       -0.5997  -28.1725  -46.3296 H         1 UNK         0.0600 
    202 H202        1.5998  -27.1756  -45.7393 H         1 UNK         0.0600 
    203 H203        1.8012  -26.5889  -47.3889 H         1 UNK         0.0600 
    204 H204        1.7786  -28.3175  -47.0635 H         1 UNK         0.0600 
    205 H205       -0.2169  -25.8111  -48.9935 H         1 UNK         0.3000 
    206 H206       -0.5609  -27.7211  -51.1318 H         1 UNK         0.0600 
    207 H207        0.6508  -25.5640  -51.4102 H         1 UNK         0.0600 
    208 H208       -0.7112  -25.6432  -52.5161 H         1 UNK         0.0600 
    209 H209       -0.8237  -24.6638  -51.0584 H         1 UNK         0.0600 
    210 H210       -2.7844  -26.3776  -48.9239 H         1 UNK         0.3000 
    211 H211       -4.9550  -26.1299  -48.7043 H         1 UNK         0.0600 
    212 H212       -5.3201  -28.1135  -51.0112 H         1 UNK         0.0600 
    213 H213       -6.5054  -27.7023  -49.7807 H         1 UNK         0.0600 
    214 H214       -5.0415  -28.5592  -49.3277 H         1 UNK         0.0600 
    215 H215       -3.5180  -24.2985  -50.3519 H         1 UNK         0.3000 
    216 H216       -5.3541  -23.3650  -52.4745 H         1 UNK         0.0600 
    217 H217       -3.4886  -21.8061  -52.9656 H         1 UNK         0.0600 
    218 H218       -2.8754  -23.4437  -52.8629 H         1 UNK         0.0600 
    219 H219       -2.6260  -22.3285  -51.5235 H         1 UNK         0.0600 
    220 H220       -4.0740  -22.4813  -49.3018 H         1 UNK         0.3000 
    221 H221       -4.5985  -21.1130  -47.6811 H         1 UNK         0.0600 
    222 H222       -7.4147  -20.9170  -48.8856 H         1 UNK         0.0600 
    223 H223       -6.8478  -22.2521  -47.8875 H         1 UNK         0.0600 
    224 H224       -6.9718  -20.6446  -47.2052 H         1 UNK         0.0600 
    225 H225       -5.8479  -18.8520  -47.1456 H         1 UNK         0.3000 
    226 H226       -4.3368  -16.8067  -48.4266 H         1 UNK         0.0600 
    227 H227       -6.7278  -16.7033  -46.5132 H         1 UNK         0.0600 
    228 H228       -5.0125  -16.6004  -46.1016 H         1 UNK         0.0600 
    229 H229       -5.7796  -15.3009  -46.9933 H         1 UNK         0.0600 
    230 H230       -7.4225  -18.1949  -49.2388 H         1 UNK         0.3000 
    231 H231       -8.5793  -16.1159  -50.7853 H         1 UNK         0.0600 
    232 H232       -8.7862  -19.1662  -51.0546 H         1 UNK         0.0600 
    233 H233       -9.8716  -18.0031  -51.8072 H         1 UNK         0.0600 
    234 H234       -9.8204  -18.1415  -50.0571 H         1 UNK         0.0600 
    235 H235       -5.9474  -18.3680  -51.4953 H         1 UNK         0.3000 
    236 H236       -5.7417  -17.3727  -54.3101 H         1 UNK         0.0600 
    237 H237       -5.8537  -19.8459  -54.0615 H         1 UNK         0.0600 
    238 H238       -4.2614  -19.3465  -54.6215 H         1 UNK         0.0600 
    239 H239       -4.4982  -19.8014  -52.9375 H         1 UNK         0.0600 
    240 H240       -3.8205  -18.0457  -51.3128 H         1 UNK         0.3000 
    241 H241       -1.4938  -16.7363  -52.4578 H         1 UNK         0.0600 
    242 H242       -3.1675  -13.9908  -50.0348 H         1 UNK         0.3800 
    243 H243       -4.0955  -15.3241  -50.6376 H         1 UNK         0.3800 
    244 H244       -0.2695  -17.5922  -50.5253 H         1 UNK         0.0800 
    245 H245       -1.7548  -17.9786  -49.6950 H         1 UNK         0.0800 
    246 H246       -0.1554  -20.1781  -53.4228 H         1 UNK         0.0800 
    247 H247        0.1204  -18.5042  -53.0341 H         1 UNK         0.0800 
@<TRIPOS>BOND
     1    1    2 1    
     2    1  127 1    
     3    1  128 1    
     4    1  129 1    
     5    2    3 2    
     6    2    4 am   BACKBONE|DICT|INTERRES
     7    4    5 1    
     8    4  130 1    
     9    5    6 1    
    10    5   65 1    
    11    5  131 1    
    12    6    7 1    
    13    6  132 1    
    14    6  133 1    
    15    7    8 1    
    16    8    9 1    
    17    8  134 1    
    18    8  135 1    
    19    9   10 ar   
    20    9   14 ar   
    21   10   11 ar   
    22   10  136 1    
    23   11   12 ar   
    24   11  126 1    
    25   12   13 ar   
    26   12  137 1    
    27   13   14 ar   
    28   13   15 1    
    29   14  138 1    
    30   15   16 1    
    31   15  139 1    
    32   15  140 1    
    33   16   17 1    
    34   17   18 1    
    35   17  141 1    
    36   17  142 1    
    37   18   19 1    
    38   18   67 1    
    39   18  143 1    
    40   19   20 am   BACKBONE|DICT|INTERRES
    41   19  144 1    
    42   20   21 2    
    43   20   22 1    
    44   22   23 1    
    45   22   24 1    
    46   22  145 1    
    47   23  146 1    
    48   23  147 1    
    49   23  148 1    
    50   24   25 am   BACKBONE|DICT|INTERRES
    51   24  149 1    
    52   25   26 2    
    53   25   27 1    
    54   27   28 1    
    55   27   29 1    
    56   27  150 1    
    57   28  151 1    
    58   28  152 1    
    59   28  153 1    
    60   29   30 am   BACKBONE|DICT|INTERRES
    61   29  154 1    
    62   30   31 2    
    63   30   32 1    
    64   32   33 1    
    65   32   34 1    
    66   32  155 1    
    67   33  156 1    
    68   33  157 1    
    69   33  158 1    
    70   34   35 am   BACKBONE|DICT|INTERRES
    71   34  159 1    
    72   35   36 2    
    73   35   37 1    
    74   37   38 1    
    75   37   39 1    
    76   37  160 1    
    77   38  161 1    
    78   38  162 1    
    79   38  163 1    
    80   39   40 am   BACKBONE|DICT|INTERRES
    81   39  164 1    
    82   40   41 2    
    83   40   42 1    
    84   42   43 1    
    85   42   44 1    
    86   42  165 1    
    87   43  166 1    
    88   43  167 1    
    89   43  168 1    
    90   44   45 am   BACKBONE|DICT|INTERRES
    91   44  169 1    
    92   45   46 2    
    93   45   47 1    
    94   47   48 1    
    95   47   49 1    
    96   47  170 1    
    97   48  171 1    
    98   48  172 1    
    99   48  173 1    
   100   49   50 am   BACKBONE|DICT|INTERRES
   101   49  174 1    
   102   50   51 2    
   103   50   52 1    
   104   52   53 1    
   105   52   54 1    
   106   52  175 1    
   107   53  176 1    
   108   53  177 1    
   109   53  178 1    
   110   54   55 am   BACKBONE|DICT|INTERRES
   111   54  179 1    
   112   55   56 2    
   113   55   57 1    
   114   57   58 1    
   115   57   59 1    
   116   57  180 1    
   117   58  181 1    
   118   58  182 1    
   119   58  183 1    
   120   59   60 am   BACKBONE|DICT|INTERRES
   121   59  184 1    
   122   60   61 2    
   123   60   62 1    
   124   62   63 1    
   125   62   64 1    
   126   62  185 1    
   127   63  186 1    
   128   63  187 1    
   129   63  188 1    
   130   64   65 am   BACKBONE|DICT|INTERRES
   131   64  189 1    
   132   65   66 2    
   133   67   68 2    
   134   67   69 am   BACKBONE|DICT|INTERRES
   135   69   70 1    
   136   69  190 1    
   137   70   71 1    
   138   70   72 1    
   139   70  191 1    
   140   71  192 1    
   141   71  193 1    
   142   71  194 1    
   143   72   73 2    
   144   72   74 am   BACKBONE|DICT|INTERRES
   145   74   75 1    
   146   74  195 1    
   147   75   76 1    
   148   75   77 1    
   149   75  196 1    
   150   76  197 1    
   151   76  198 1    
   152   76  199 1    
   153   77   78 2    
   154   77   79 am   BACKBONE|DICT|INTERRES
   155   79   80 1    
   156   79  200 1    
   157   80   81 1    
   158   80   82 1    
   159   80  201 1    
   160   81  202 1    
   161   81  203 1    
   162   81  204 1    
   163   82   83 2    
   164   82   84 am   BACKBONE|DICT|INTERRES
   165   84   85 1    
   166   84  205 1    
   167   85   86 1    
   168   85   87 1    
   169   85  206 1    
   170   86  207 1    
   171   86  208 1    
   172   86  209 1    
   173   87   88 2    
   174   87   89 am   BACKBONE|DICT|INTERRES
   175   89   90 1    
   176   89  210 1    
   177   90   91 1    
   178   90   92 1    
   179   90  211 1    
   180   91  212 1    
   181   91  213 1    
   182   91  214 1    
   183   92   93 2    
   184   92   94 am   BACKBONE|DICT|INTERRES
   185   94   95 1    
   186   94  215 1    
   187   95   96 1    
   188   95   97 1    
   189   95  216 1    
   190   96  217 1    
   191   96  218 1    
   192   96  219 1    
   193   97   98 2    
   194   97   99 am   BACKBONE|DICT|INTERRES
   195   99  100 1    
   196   99  220 1    
   197  100  101 1    
   198  100  102 1    
   199  100  221 1    
   200  101  222 1    
   201  101  223 1    
   202  101  224 1    
   203  102  103 2    
   204  102  104 am   BACKBONE|DICT|INTERRES
   205  104  105 1    
   206  104  225 1    
   207  105  106 1    
   208  105  107 1    
   209  105  226 1    
   210  106  227 1    
   211  106  228 1    
   212  106  229 1    
   213  107  108 2    
   214  107  109 am   BACKBONE|DICT|INTERRES
   215  109  110 1    
   216  109  230 1    
   217  110  111 1    
   218  110  112 1    
   219  110  231 1    
   220  111  232 1    
   221  111  233 1    
   222  111  234 1    
   223  112  113 2    
   224  112  114 am   BACKBONE|DICT|INTERRES
   225  114  115 1    
   226  114  235 1    
   227  115  116 1    
   228  115  117 1    
   229  115  236 1    
   230  116  237 1    
   231  116  238 1    
   232  116  239 1    
   233  117  118 2    
   234  117  119 am   BACKBONE|DICT|INTERRES
   235  119  120 1    
   236  119  240 1    
   237  120  121 1    
   238  120  124 1    
   239  120  241 1    
   240  121  122 am   BACKBONE|DICT|INTERRES
   241  121  123 2    
   242  122  242 1    
   243  122  243 1    
   244  124  125 1    
   245  124  244 1    
   246  124  245 1    
   247  125  126 1    
   248  126  246 1    
   249  126  247 1    
@<TRIPOS>SUBSTRUCTURE
     1 UNK         1 GROUP             0       ****    0 ROOT    
