@<TRIPOS>MOLECULE
3R540
247   249    1
SMALL
USER_CHARGES


@<TRIPOS>ATOM
      1 CA          4.2366  -15.0233  -45.9055 C.3       0 UNK        -0.1800 
      2 C           4.6046  -14.0852  -47.0515 C.2       0 UNK         0.5000 
      3 O           5.7640  -14.0570  -47.4593 O.2       0 UNK        -0.5000 
      4 N           3.6694  -13.3056  -47.6083 N.am      1 UNK        -0.5000 
      5 CA          2.2507  -13.2095  -47.2303 C.3       1 UNK         0.1400 
      6 C6          1.3248  -13.6744  -48.3808 C.3       23 UNK        -0.0398 
      7 S7          1.5083  -15.4584  -48.6952 S.3       23 UNK        -0.2404 
      8 C8          0.7277  -15.6268  -50.3279 C.3       23 UNK        -0.0205 
      9 C9          0.0931  -17.0004  -50.4625 C.ar      23 UNK        -0.0193 
     10 C10        -1.2954  -17.1446  -50.3963 C.ar      23 UNK        -0.1150 
     11 C11        -1.8877  -18.4093  -50.4560 C.ar      23 UNK        -0.0193 
     12 C12        -1.0634  -19.5374  -50.5494 C.ar      23 UNK        -0.1150 
     13 C13         0.3254  -19.4079  -50.6401 C.ar      23 UNK        -0.0193 
     14 C14         0.8965  -18.1332  -50.6142 C.ar      23 UNK        -0.1150 
     15 C15         1.2004  -20.6502  -50.7562 C.3       23 UNK        -0.0205 
     16 S16         2.4977  -20.7624  -49.4735 S.3       23 UNK        -0.2404 
     17 C17         1.5816  -20.4967  -47.9154 C.3       23 UNK        -0.0398 
     18 CA          1.0764  -21.8048  -47.2613 C.3       11 UNK         0.1400 
     19 N           0.8760  -21.6516  -45.8183 N.am      11 UNK        -0.5000 
     20 C           0.5668  -22.6443  -44.9719 C.2       10 UNK         0.5000 
     21 O           0.4886  -23.8275  -45.3023 O.2       10 UNK        -0.5000 
     22 CA          0.2308  -22.2389  -43.5246 C.3       10 UNK         0.1400 
     23 CB          1.5090  -22.0311  -42.6993 C.3       10 UNK        -0.1800 
     24 N          -0.6047  -21.0375  -43.4632 N.am      10 UNK        -0.5000 
     25 C          -1.8529  -20.9659  -43.9483 C.2       9 UNK         0.5000 
     26 O          -2.4500  -21.9283  -44.4299 O.2       9 UNK        -0.5000 
     27 CA         -2.5347  -19.5854  -43.9374 C.3       9 UNK         0.1400 
     28 CB         -3.1583  -19.2945  -42.5646 C.3       9 UNK        -0.1800 
     29 N          -1.6274  -18.4987  -44.3087 N.am      9 UNK        -0.5000 
     30 C          -1.0463  -18.3655  -45.5098 C.2       8 UNK         0.5000 
     31 O          -1.2473  -19.1309  -46.4512 O.2       8 UNK        -0.5000 
     32 CA         -0.0247  -17.2224  -45.6657 C.3       8 UNK         0.1400 
     33 CB         -0.7339  -15.8777  -45.8862 C.3       8 UNK        -0.1800 
     34 N           0.8790  -17.1284  -44.5163 N.am      8 UNK        -0.5000 
     35 C           1.7342  -18.0960  -44.1525 C.2       7 UNK         0.5000 
     36 O           1.9055  -19.1315  -44.7944 O.2       7 UNK        -0.5000 
     37 CA          2.4732  -17.9105  -42.8167 C.3       7 UNK         0.1400 
     38 CB          3.7567  -17.0889  -42.9955 C.3       7 UNK        -0.1800 
     39 N           1.6185  -17.2873  -41.8069 N.am      7 UNK        -0.5000 
     40 C           0.6000  -17.9133  -41.1999 C.2       6 UNK         0.5000 
     41 O           0.3104  -19.0929  -41.3982 O.2       6 UNK        -0.5000 
     42 CA         -0.2647  -17.0675  -40.2463 C.3       6 UNK         0.1400 
     43 CB          0.3703  -17.0072  -38.8493 C.3       6 UNK        -0.1800 
     44 N          -0.4805  -15.7064  -40.7408 N.am      6 UNK        -0.5000 
     45 C          -1.1753  -15.4039  -41.8468 C.2       5 UNK         0.5000 
     46 O          -1.7568  -16.2427  -42.5326 O.2       5 UNK        -0.5000 
     47 CA         -1.1846  -13.9278  -42.2884 C.3       5 UNK         0.1400 
     48 CB         -2.4010  -13.1970  -41.7023 C.3       5 UNK        -0.1800 
     49 N           0.0343  -13.2015  -41.9256 N.am      5 UNK        -0.5000 
     50 C           1.2675  -13.4911  -42.3578 C.2       4 UNK         0.5000 
     51 O           1.5134  -14.4140  -43.1380 O.2       4 UNK        -0.5000 
     52 CA          2.3992  -12.5986  -41.8096 C.3       4 UNK         0.1400 
     53 CB          3.7994  -13.1542  -42.1192 C.3       4 UNK        -0.1800 
     54 N           2.3133  -11.2364  -42.3293 N.am      4 UNK        -0.5000 
     55 C           1.4450  -10.2898  -41.9579 C.2       3 UNK         0.5000 
     56 O           0.5961  -10.4597  -41.0809 O.2       3 UNK        -0.5000 
     57 CA          1.5168   -8.9324  -42.6904 C.3       3 UNK         0.1400 
     58 CB          2.5511   -8.0023  -42.0284 C.3       3 UNK        -0.1800 
     59 N           1.7263   -9.0184  -44.1454 N.am      3 UNK        -0.5000 
     60 C           2.7935   -9.4673  -44.8202 C.2       2 UNK         0.5000 
     61 O           3.8172   -9.9041  -44.2894 O.2       2 UNK        -0.5000 
     62 CA          2.6867   -9.4708  -46.3537 C.3       2 UNK         0.1400 
     63 CB          3.7652   -8.5770  -46.9860 C.3       2 UNK        -0.1800 
     64 N           2.8352  -10.8354  -46.8546 N.am      2 UNK        -0.5000 
     65 C           1.8892  -11.7823  -46.7672 C.2       1 UNK         0.5000 
     66 O           0.7605  -11.5636  -46.3256 O.2       1 UNK        -0.5000 
     67 C          -0.1969  -22.3309  -47.9539 C.2       11 UNK         0.5000 
     68 O          -0.1143  -23.2914  -48.7183 O.2       11 UNK        -0.5000 
     69 N          -1.3538  -21.7300  -47.6374 N.am      12 UNK        -0.5000 
     70 CA         -2.6703  -22.1392  -48.1279 C.3       12 UNK         0.1400 
     71 CB         -3.7464  -21.1745  -47.6097 C.3       12 UNK        -0.1800 
     72 C          -3.0201  -23.5862  -47.7483 C.2       12 UNK         0.5000 
     73 O          -3.4767  -24.3375  -48.6082 O.2       12 UNK        -0.5000 
     74 N          -2.7633  -23.9603  -46.4875 N.am      13 UNK        -0.5000 
     75 CA         -2.9484  -25.3152  -45.9701 C.3       13 UNK         0.1400 
     76 CB         -2.7258  -25.3234  -44.4503 C.3       13 UNK        -0.1800 
     77 C          -2.0423  -26.3460  -46.6676 C.2       13 UNK         0.5000 
     78 O          -2.5272  -27.4091  -47.0561 O.2       13 UNK        -0.5000 
     79 N          -0.7597  -26.0006  -46.8505 N.am      14 UNK        -0.5000 
     80 CA          0.2329  -26.8221  -47.5476 C.3       14 UNK         0.1400 
     81 CB          1.6280  -26.2059  -47.3629 C.3       14 UNK        -0.1800 
     82 C          -0.0846  -27.0132  -49.0430 C.2       14 UNK         0.5000 
     83 O           0.0847  -28.1155  -49.5655 O.2       14 UNK        -0.5000 
     84 N          -0.5613  -25.9458  -49.6958 N.am      15 UNK        -0.5000 
     85 CA         -0.9717  -25.9346  -51.1004 C.3       15 UNK         0.1400 
     86 CB         -0.9539  -24.4829  -51.6067 C.3       15 UNK        -0.1800 
     87 C          -2.3597  -26.5565  -51.3485 C.2       15 UNK         0.5000 
     88 O          -2.7375  -26.7130  -52.5091 O.2       15 UNK        -0.5000 
     89 N          -3.1191  -26.8421  -50.2794 N.am      16 UNK        -0.5000 
     90 CA         -4.5257  -27.2673  -50.2845 C.3       16 UNK         0.1400 
     91 CB         -4.6647  -28.6946  -50.8525 C.3       16 UNK        -0.1800 
     92 C          -5.4404  -26.2393  -50.9896 C.2       16 UNK         0.5000 
     93 O          -6.3450  -26.6117  -51.7381 O.2       16 UNK        -0.5000 
     94 N          -5.1366  -24.9541  -50.7575 N.am      17 UNK        -0.5000 
     95 CA         -5.7320  -23.7395  -51.3204 C.3       17 UNK         0.1400 
     96 CB         -7.2170  -23.6192  -50.9223 C.3       17 UNK        -0.1800 
     97 C          -5.5258  -23.5389  -52.8378 C.2       17 UNK         0.5000 
     98 O          -6.0409  -22.5599  -53.3795 O.2       17 UNK        -0.5000 
     99 N          -4.7707  -24.4246  -53.5040 N.am      18 UNK        -0.5000 
    100 CA        -4.5800  -24.4265  -54.9581 C.3       18 UNK         0.1400 
    101 CB        -4.0946  -25.8159  -55.3983 C.3       18 UNK        -0.1800 
    102 C         -3.6222  -23.3350  -55.4744 C.2       18 UNK         0.5000 
    103 O         -3.5674  -23.1106  -56.6847 O.2       18 UNK        -0.5000 
    104 N         -2.8856  -22.6769  -54.5697 N.am      19 UNK        -0.5000 
    105 CA        -1.9460  -21.5908  -54.8509 C.3       19 UNK         0.1400 
    106 CB        -1.0271  -21.4073  -53.6322 C.3       19 UNK        -0.1800 
    107 C         -2.6738  -20.2886  -55.2456 C.2       19 UNK         0.5000 
    108 O         -2.7783  -19.3643  -54.4398 O.2       19 UNK        -0.5000 
    109 N         -3.1792  -20.2620  -56.4859 N.am      20 UNK        -0.5000 
    110 CA        -3.9377  -19.1776  -57.1187 C.3       20 UNK         0.1400 
    111 CB        -3.0790  -17.9019  -57.2572 C.3       20 UNK        -0.1800 
    112 C         -5.3082  -18.9240  -56.4536 C.2       20 UNK         0.5000 
    113 O         -5.7700  -17.7822  -56.4237 O.2       20 UNK        -0.5000 
    114 N         -5.9383  -20.0081  -55.9725 N.am      21 UNK        -0.5000 
    115 CA        -7.2621  -20.0775  -55.3455 C.3       21 UNK         0.1400 
    116 CB        -8.3679  -19.7177  -56.3603 C.3       21 UNK        -0.1800 
    117 C         -7.3456  -19.2413  -54.0529 C.2       21 UNK         0.5000 
    118 O         -7.8819  -18.1310  -54.0634 O.2       21 UNK        -0.5000 
    119 N         -6.8100  -19.7956  -52.9582 N.am      22 UNK        -0.5000 
    120 CA        -6.8251  -19.1745  -51.6194 C.3       22 UNK         0.1400 
    121 C         -8.2370  -19.0508  -50.9697 C.2       22 UNK         0.5000 
    122 N         -9.2522  -19.7706  -51.4329 N.am      22 UNK        -0.7600 
    123 O         -8.4125  -18.2858  -50.0255 O.2       22 UNK        -0.5000 
    124 C124       -5.8585  -19.8681  -50.6254 C.3       23 UNK        -0.0398 
    125 S125       -4.1326  -19.9694  -51.2061 S.3       23 UNK        -0.2404 
    126 C126       -3.4095  -18.5163  -50.3648 C.3       23 UNK        -0.0205 
    127 H127        5.1167  -15.5558  -45.5449 H         1 UNK         0.0600 
    128 H128        3.5064  -15.7646  -46.2312 H         1 UNK         0.0600 
    129 H129        3.8193  -14.4647  -45.0697 H         1 UNK         0.0600 
    130 H130        3.9380  -12.7346  -48.3970 H         1 UNK         0.3000 
    131 H131        2.0341  -13.8367  -46.3655 H         1 UNK         0.0600 
    132 H132        0.2754  -13.4932  -48.1401 H         1 UNK         0.0800 
    133 H133        1.5362  -13.1188  -49.2961 H         1 UNK         0.0800 
    134 H134        1.4760  -15.4804  -51.1081 H         1 UNK         0.0800 
    135 H135       -0.0237  -14.8475  -50.4641 H         1 UNK         0.0800 
    136 H136       -1.9182  -16.2684  -50.2822 H         1 UNK         0.1150 
    137 H137       -1.5008  -20.5236  -50.5527 H         1 UNK         0.1150 
    138 H138        1.9707  -18.0248  -50.6668 H         1 UNK         0.1150 
    139 H139        0.5928  -21.5552  -50.7232 H         1 UNK         0.0800 
    140 H140        1.6792  -20.6473  -51.7360 H         1 UNK         0.0800 
    141 H141        0.7776  -19.7728  -48.0494 H         1 UNK         0.0800 
    142 H142        2.2906  -20.0098  -47.2456 H         1 UNK         0.0800 
    143 H143        1.8508  -22.5656  -47.3811 H         1 UNK         0.0600 
    144 H144        0.9700  -20.7106  -45.4473 H         1 UNK         0.3000 
    145 H145       -0.3320  -23.0584  -43.0729 H         1 UNK         0.0600 
    146 H146        1.2741  -21.7927  -41.6618 H         1 UNK         0.0600 
    147 H147        2.1205  -22.9342  -42.6958 H         1 UNK         0.0600 
    148 H148        2.1216  -21.2229  -43.0979 H         1 UNK         0.0600 
    149 H149       -0.2017  -20.2190  -43.0197 H         1 UNK         0.3000 
    150 H150       -3.3394  -19.6095  -44.6750 H         1 UNK         0.0600 
    151 H151       -3.8594  -20.0800  -42.2799 H         1 UNK         0.0600 
    152 H152       -3.7094  -18.3539  -42.5740 H         1 UNK         0.0600 
    153 H153       -2.4015  -19.2301  -41.7828 H         1 UNK         0.0600 
    154 H154       -1.4612  -17.7854  -43.6039 H         1 UNK         0.3000 
    155 H155        0.5838  -17.4355  -46.5469 H         1 UNK         0.0600 
    156 H156       -1.4557  -15.6621  -45.0995 H         1 UNK         0.0600 
    157 H157       -1.2756  -15.8810  -46.8329 H         1 UNK         0.0600 
    158 H158       -0.0228  -15.0532  -45.9205 H         1 UNK         0.0600 
    159 H159        0.8282  -16.2885  -43.9522 H         1 UNK         0.3000 
    160 H160        2.7613  -18.9008  -42.4578 H         1 UNK         0.0600 
    161 H161        3.5419  -16.0730  -43.3209 H         1 UNK         0.0600 
    162 H162        4.4094  -17.5422  -43.7425 H         1 UNK         0.0600 
    163 H163        4.3195  -17.0294  -42.0639 H         1 UNK         0.0600 
    164 H164        1.7572  -16.3013  -41.6406 H         1 UNK         0.3000 
    165 H165       -1.2380  -17.5550  -40.1588 H         1 UNK         0.0600 
    166 H166       -0.2716  -16.4747  -38.1473 H         1 UNK         0.0600 
    167 H167        0.5264  -18.0098  -38.4488 H         1 UNK         0.0600 
    168 H168        1.3388  -16.5059  -38.8664 H         1 UNK         0.0600 
    169 H169       -0.0414  -14.9560  -40.2284 H         1 UNK         0.3000 
    170 H170       -1.2669  -13.9103  -43.3768 H         1 UNK         0.0600 
    171 H171       -3.3291  -13.6997  -41.9779 H         1 UNK         0.0600 
    172 H172       -2.3596  -13.1560  -40.6131 H         1 UNK         0.0600 
    173 H173       -2.4632  -12.1742  -42.0746 H         1 UNK         0.0600 
    174 H174       -0.0760  -12.3822  -41.3374 H         1 UNK         0.3000 
    175 H175        2.2906  -12.5658  -40.7236 H         1 UNK         0.0600 
    176 H176        4.0059  -13.1506  -43.1890 H         1 UNK         0.0600 
    177 H177        4.5724  -12.5598  -41.6320 H         1 UNK         0.0600 
    178 H178        3.9061  -14.1784  -41.7603 H         1 UNK         0.0600 
    179 H179        2.9768  -10.9842  -43.0576 H         1 UNK         0.3000 
    180 H180        0.5379   -8.4665  -42.5658 H         1 UNK         0.0600 
    181 H181        3.5622   -8.4058  -42.0876 H         1 UNK         0.0600 
    182 H182        2.3220   -7.8573  -40.9719 H         1 UNK         0.0600 
    183 H183        2.5542   -7.0186  -42.4978 H         1 UNK         0.0600 
    184 H184        0.9251   -8.7356  -44.6933 H         1 UNK         0.3000 
    185 H185        1.7090   -9.0865  -46.6527 H         1 UNK         0.0600 
    186 H186        3.6743   -7.5490  -46.6330 H         1 UNK         0.0600 
    187 H187        4.7712   -8.9203  -46.7411 H         1 UNK         0.0600 
    188 H188        3.6731   -8.5570  -48.0721 H         1 UNK         0.0600 
    189 H189        3.7605  -11.1042  -47.1546 H         1 UNK         0.3000 
    190 H190       -1.3291  -20.9080  -47.0383 H         1 UNK         0.3000 
    191 H191       -2.6488  -22.0754  -49.2170 H         1 UNK         0.0600 
    192 H192       -3.9095  -21.2819  -46.5379 H         1 UNK         0.0600 
    193 H193       -4.7005  -21.3562  -48.1051 H         1 UNK         0.0600 
    194 H194       -3.4701  -20.1387  -47.7944 H         1 UNK         0.0600 
    195 H195       -2.4323  -23.2602  -45.8290 H         1 UNK         0.3000 
    196 H196       -3.9845  -25.6024  -46.1611 H         1 UNK         0.0600 
    197 H197       -2.8827  -26.3208  -44.0377 H         1 UNK         0.0600 
    198 H198       -3.4200  -24.6498  -43.9476 H         1 UNK         0.0600 
    199 H199       -1.7137  -25.0145  -44.1883 H         1 UNK         0.0600 
    200 H200       -0.4311  -25.1167  -46.4716 H         1 UNK         0.3000 
    201 H201        0.2344  -27.8093  -47.0811 H         1 UNK         0.0600 
    202 H202        1.8948  -26.1450  -46.3076 H         1 UNK         0.0600 
    203 H203        1.6820  -25.1994  -47.7789 H         1 UNK         0.0600 
    204 H204        2.3908  -26.8083  -47.8576 H         1 UNK         0.0600 
    205 H205       -0.6034  -25.0540  -49.2073 H         1 UNK         0.3000 
    206 H206       -0.2475  -26.5082  -51.6822 H         1 UNK         0.0600 
    207 H207        0.0347  -24.0378  -51.4930 H         1 UNK         0.0600 
    208 H208       -1.2109  -24.4352  -52.6654 H         1 UNK         0.0600 
    209 H209       -1.6662  -23.8588  -51.0651 H         1 UNK         0.0600 
    210 H210       -2.7301  -26.6422  -49.3671 H         1 UNK         0.3000 
    211 H211       -4.8408  -27.2926  -49.2403 H         1 UNK         0.0600 
    212 H212       -4.4184  -28.7359  -51.9139 H         1 UNK         0.0600 
    213 H213       -5.6854  -29.0616  -50.7397 H         1 UNK         0.0600 
    214 H214       -4.0100  -29.3912  -50.3289 H         1 UNK         0.0600 
    215 H215       -4.3963  -24.7818  -50.0773 H         1 UNK         0.3000 
    216 H216       -5.1937  -22.9203  -50.8444 H         1 UNK         0.0600 
    217 H217       -7.6375  -22.6639  -51.2378 H         1 UNK         0.0600 
    218 H218       -7.3405  -23.6844  -49.8414 H         1 UNK         0.0600 
    219 H219       -7.8232  -24.4025  -51.3777 H         1 UNK         0.0600 
    220 H220       -4.3615  -25.2002  -52.9976 H         1 UNK         0.3000 
    221 H221       -5.5510  -24.2486  -55.4251 H         1 UNK         0.0600 
    222 H222       -3.0877  -26.0233  -55.0352 H         1 UNK         0.0600 
    223 H223       -4.7541  -26.6025  -55.0306 H         1 UNK         0.0600 
    224 H224       -4.0702  -25.8941  -56.4859 H         1 UNK         0.0600 
    225 H225       -3.0267  -22.9064  -53.5981 H         1 UNK         0.3000 
    226 H226       -1.3168  -21.8824  -55.6945 H         1 UNK         0.0600 
    227 H227       -0.3815  -22.2732  -53.4902 H         1 UNK         0.0600 
    228 H228       -0.3782  -20.5385  -53.7507 H         1 UNK         0.0600 
    229 H229       -1.6066  -21.2652  -52.7215 H         1 UNK         0.0600 
    230 H230       -3.1063  -21.1184  -57.0255 H         1 UNK         0.3000 
    231 H231       -4.1618  -19.5239  -58.1285 H         1 UNK         0.0600 
    232 H232       -2.1233  -18.1191  -57.7339 H         1 UNK         0.0600 
    233 H233       -2.8756  -17.4414  -56.2901 H         1 UNK         0.0600 
    234 H234       -3.5841  -17.1562  -57.8721 H         1 UNK         0.0600 
    235 H235       -5.4412  -20.8855  -56.0225 H         1 UNK         0.3000 
    236 H236       -7.4206  -21.1196  -55.0666 H         1 UNK         0.0600 
    237 H237       -9.3559  -19.8352  -55.9136 H         1 UNK         0.0600 
    238 H238       -8.2897  -18.6872  -56.7078 H         1 UNK         0.0600 
    239 H239       -8.3270  -20.3686  -57.2336 H         1 UNK         0.0600 
    240 H240       -6.3907  -20.7188  -53.0314 H         1 UNK         0.3000 
    241 H241       -6.4686  -18.1507  -51.7484 H         1 UNK         0.0600 
    242 H242      -10.1605  -19.6781  -51.0058 H         1 UNK         0.3800 
    243 H243       -9.1256  -20.3992  -52.2092 H         1 UNK         0.3800 
    244 H244       -5.8706  -19.3551  -49.6621 H         1 UNK         0.0800 
    245 H245       -6.2036  -20.8794  -50.4163 H         1 UNK         0.0800 
    246 H246       -3.8641  -17.6248  -50.7996 H         1 UNK         0.0800 
    247 H247       -3.6863  -18.5174  -49.3118 H         1 UNK         0.0800 
@<TRIPOS>BOND
     1    1    2 1    
     2    1  127 1    
     3    1  128 1    
     4    1  129 1    
     5    2    3 2    
     6    2    4 am   BACKBONE|DICT|INTERRES
     7    4    5 1    
     8    4  130 1    
     9    5    6 1    
    10    5   65 1    
    11    5  131 1    
    12    6    7 1    
    13    6  132 1    
    14    6  133 1    
    15    7    8 1    
    16    8    9 1    
    17    8  134 1    
    18    8  135 1    
    19    9   10 ar   
    20    9   14 ar   
    21   10   11 ar   
    22   10  136 1    
    23   11   12 ar   
    24   11  126 1    
    25   12   13 ar   
    26   12  137 1    
    27   13   14 ar   
    28   13   15 1    
    29   14  138 1    
    30   15   16 1    
    31   15  139 1    
    32   15  140 1    
    33   16   17 1    
    34   17   18 1    
    35   17  141 1    
    36   17  142 1    
    37   18   19 1    
    38   18   67 1    
    39   18  143 1    
    40   19   20 am   BACKBONE|DICT|INTERRES
    41   19  144 1    
    42   20   21 2    
    43   20   22 1    
    44   22   23 1    
    45   22   24 1    
    46   22  145 1    
    47   23  146 1    
    48   23  147 1    
    49   23  148 1    
    50   24   25 am   BACKBONE|DICT|INTERRES
    51   24  149 1    
    52   25   26 2    
    53   25   27 1    
    54   27   28 1    
    55   27   29 1    
    56   27  150 1    
    57   28  151 1    
    58   28  152 1    
    59   28  153 1    
    60   29   30 am   BACKBONE|DICT|INTERRES
    61   29  154 1    
    62   30   31 2    
    63   30   32 1    
    64   32   33 1    
    65   32   34 1    
    66   32  155 1    
    67   33  156 1    
    68   33  157 1    
    69   33  158 1    
    70   34   35 am   BACKBONE|DICT|INTERRES
    71   34  159 1    
    72   35   36 2    
    73   35   37 1    
    74   37   38 1    
    75   37   39 1    
    76   37  160 1    
    77   38  161 1    
    78   38  162 1    
    79   38  163 1    
    80   39   40 am   BACKBONE|DICT|INTERRES
    81   39  164 1    
    82   40   41 2    
    83   40   42 1    
    84   42   43 1    
    85   42   44 1    
    86   42  165 1    
    87   43  166 1    
    88   43  167 1    
    89   43  168 1    
    90   44   45 am   BACKBONE|DICT|INTERRES
    91   44  169 1    
    92   45   46 2    
    93   45   47 1    
    94   47   48 1    
    95   47   49 1    
    96   47  170 1    
    97   48  171 1    
    98   48  172 1    
    99   48  173 1    
   100   49   50 am   BACKBONE|DICT|INTERRES
   101   49  174 1    
   102   50   51 2    
   103   50   52 1    
   104   52   53 1    
   105   52   54 1    
   106   52  175 1    
   107   53  176 1    
   108   53  177 1    
   109   53  178 1    
   110   54   55 am   BACKBONE|DICT|INTERRES
   111   54  179 1    
   112   55   56 2    
   113   55   57 1    
   114   57   58 1    
   115   57   59 1    
   116   57  180 1    
   117   58  181 1    
   118   58  182 1    
   119   58  183 1    
   120   59   60 am   BACKBONE|DICT|INTERRES
   121   59  184 1    
   122   60   61 2    
   123   60   62 1    
   124   62   63 1    
   125   62   64 1    
   126   62  185 1    
   127   63  186 1    
   128   63  187 1    
   129   63  188 1    
   130   64   65 am   BACKBONE|DICT|INTERRES
   131   64  189 1    
   132   65   66 2    
   133   67   68 2    
   134   67   69 am   BACKBONE|DICT|INTERRES
   135   69   70 1    
   136   69  190 1    
   137   70   71 1    
   138   70   72 1    
   139   70  191 1    
   140   71  192 1    
   141   71  193 1    
   142   71  194 1    
   143   72   73 2    
   144   72   74 am   BACKBONE|DICT|INTERRES
   145   74   75 1    
   146   74  195 1    
   147   75   76 1    
   148   75   77 1    
   149   75  196 1    
   150   76  197 1    
   151   76  198 1    
   152   76  199 1    
   153   77   78 2    
   154   77   79 am   BACKBONE|DICT|INTERRES
   155   79   80 1    
   156   79  200 1    
   157   80   81 1    
   158   80   82 1    
   159   80  201 1    
   160   81  202 1    
   161   81  203 1    
   162   81  204 1    
   163   82   83 2    
   164   82   84 am   BACKBONE|DICT|INTERRES
   165   84   85 1    
   166   84  205 1    
   167   85   86 1    
   168   85   87 1    
   169   85  206 1    
   170   86  207 1    
   171   86  208 1    
   172   86  209 1    
   173   87   88 2    
   174   87   89 am   BACKBONE|DICT|INTERRES
   175   89   90 1    
   176   89  210 1    
   177   90   91 1    
   178   90   92 1    
   179   90  211 1    
   180   91  212 1    
   181   91  213 1    
   182   91  214 1    
   183   92   93 2    
   184   92   94 am   BACKBONE|DICT|INTERRES
   185   94   95 1    
   186   94  215 1    
   187   95   96 1    
   188   95   97 1    
   189   95  216 1    
   190   96  217 1    
   191   96  218 1    
   192   96  219 1    
   193   97   98 2    
   194   97   99 am   BACKBONE|DICT|INTERRES
   195   99  100 1    
   196   99  220 1    
   197  100  101 1    
   198  100  102 1    
   199  100  221 1    
   200  101  222 1    
   201  101  223 1    
   202  101  224 1    
   203  102  103 2    
   204  102  104 am   BACKBONE|DICT|INTERRES
   205  104  105 1    
   206  104  225 1    
   207  105  106 1    
   208  105  107 1    
   209  105  226 1    
   210  106  227 1    
   211  106  228 1    
   212  106  229 1    
   213  107  108 2    
   214  107  109 am   BACKBONE|DICT|INTERRES
   215  109  110 1    
   216  109  230 1    
   217  110  111 1    
   218  110  112 1    
   219  110  231 1    
   220  111  232 1    
   221  111  233 1    
   222  111  234 1    
   223  112  113 2    
   224  112  114 am   BACKBONE|DICT|INTERRES
   225  114  115 1    
   226  114  235 1    
   227  115  116 1    
   228  115  117 1    
   229  115  236 1    
   230  116  237 1    
   231  116  238 1    
   232  116  239 1    
   233  117  118 2    
   234  117  119 am   BACKBONE|DICT|INTERRES
   235  119  120 1    
   236  119  240 1    
   237  120  121 1    
   238  120  124 1    
   239  120  241 1    
   240  121  122 am   BACKBONE|DICT|INTERRES
   241  121  123 2    
   242  122  242 1    
   243  122  243 1    
   244  124  125 1    
   245  124  244 1    
   246  124  245 1    
   247  125  126 1    
   248  126  246 1    
   249  126  247 1    
@<TRIPOS>SUBSTRUCTURE
     1 UNK         1 GROUP             0       ****    0 ROOT    
