@<TRIPOS>MOLECULE
3R540
247   249    1
SMALL
USER_CHARGES


@<TRIPOS>ATOM
      1 CA          1.6650  -10.5854  -51.9957 C.3       0 UNK        -0.1800 
      2 C           2.2901  -10.6155  -50.6079 C.2       0 UNK         0.5000 
      3 O           2.7592   -9.5851  -50.1232 O.2       0 UNK        -0.5000 
      4 N           2.3051  -11.7928  -49.9736 N.am      1 UNK        -0.5000 
      5 CA          2.7796  -12.0058  -48.6037 C.3       1 UNK         0.1400 
      6 C6          3.1837  -13.4837  -48.3570 C.3       23 UNK        -0.0398 
      7 S7          1.8802  -14.7132  -48.7231 S.3       23 UNK        -0.2404 
      8 C8          2.4761  -15.3956  -50.3009 C.3       23 UNK        -0.0205 
      9 C9          1.5740  -16.5173  -50.7882 C.ar      23 UNK        -0.0193 
     10 C10         0.4595  -16.2365  -51.5852 C.ar      23 UNK        -0.1150 
     11 C11        -0.3694  -17.2699  -52.0342 C.ar      23 UNK        -0.0193 
     12 C12        -0.0726  -18.5898  -51.6820 C.ar      23 UNK        -0.1150 
     13 C13         1.0228  -18.8797  -50.8653 C.ar      23 UNK        -0.0193 
     14 C14         1.8524  -17.8403  -50.4352 C.ar      23 UNK        -0.1150 
     15 C15         1.2791  -20.3107  -50.4138 C.3       23 UNK        -0.0205 
     16 S16         1.2064  -20.4800  -48.6004 S.3       23 UNK        -0.2404 
     17 C17        -0.4381  -19.7939  -48.2013 C.3       23 UNK        -0.0398 
     18 CA         -1.3671  -20.8215  -47.5208 C.3       11 UNK         0.1400 
     19 N          -0.8231  -21.3195  -46.2587 N.am      11 UNK        -0.5000 
     20 C          -1.1227  -22.4915  -45.6896 C.2       10 UNK         0.5000 
     21 O          -1.8599  -23.3282  -46.2157 O.2       10 UNK        -0.5000 
     22 CA         -0.5177  -22.7487  -44.2924 C.3       10 UNK         0.1400 
     23 CB         -0.3570  -24.2504  -43.9791 C.3       10 UNK        -0.1800 
     24 N           0.7265  -22.0024  -44.0554 N.am      10 UNK        -0.5000 
     25 C           1.9138  -22.1733  -44.6598 C.2       9 UNK         0.5000 
     26 O           2.1543  -23.0813  -45.4533 O.2       9 UNK        -0.5000 
     27 CA          3.0277  -21.1515  -44.3506 C.3       9 UNK         0.1400 
     28 CB          3.2709  -20.2461  -45.5679 C.3       9 UNK        -0.1800 
     29 N           2.7502  -20.3044  -43.1909 N.am      9 UNK        -0.5000 
     30 C           2.8438  -20.6946  -41.9135 C.2       8 UNK         0.5000 
     31 O           3.2206  -21.8138  -41.5646 O.2       8 UNK        -0.5000 
     32 CA          2.4082  -19.6697  -40.8482 C.3       8 UNK         0.1400 
     33 CB          3.5711  -18.7331  -40.4878 C.3       8 UNK        -0.1800 
     34 N           1.2467  -18.8730  -41.2550 N.am      8 UNK        -0.5000 
     35 C           0.0302  -19.3771  -41.5086 C.2       7 UNK         0.5000 
     36 O          -0.2483  -20.5729  -41.4207 O.2       7 UNK        -0.5000 
     37 CA         -1.0458  -18.3927  -41.9926 C.3       7 UNK         0.1400 
     38 CB         -1.6099  -17.5678  -40.8268 C.3       7 UNK        -0.1800 
     39 N          -0.5521  -17.5034  -43.0437 N.am      7 UNK        -0.5000 
     40 C          -0.2134  -17.9041  -44.2765 C.2       6 UNK         0.5000 
     41 O          -0.3739  -19.0547  -44.6825 O.2       6 UNK        -0.5000 
     42 CA          0.4234  -16.8613  -45.2123 C.3       6 UNK         0.1400 
     43 CB         -0.6595  -16.0524  -45.9396 C.3       6 UNK        -0.1800 
     44 N           1.3301  -15.9528  -44.5133 N.am      6 UNK        -0.5000 
     45 C           2.4556  -16.3294  -43.8911 C.2       5 UNK         0.5000 
     46 O           2.8725  -17.4865  -43.8685 O.2       5 UNK        -0.5000 
     47 CA          3.2064  -15.2396  -43.1097 C.3       5 UNK         0.1400 
     48 CB          4.0481  -14.3613  -44.0488 C.3       5 UNK        -0.1800 
     49 N           2.2891  -14.4043  -42.3347 N.am      5 UNK        -0.5000 
     50 C           1.5995  -14.8300  -41.2667 C.2       4 UNK         0.5000 
     51 O           1.6934  -15.9651  -40.7992 O.2       4 UNK        -0.5000 
     52 CA          0.6087  -13.8302  -40.6428 C.3       4 UNK         0.1400 
     53 CB          1.3341  -12.8737  -39.6848 C.3       4 UNK        -0.1800 
     54 N          -0.1139  -13.0528  -41.6512 N.am      4 UNK        -0.5000 
     55 C          -1.0072  -13.5708  -42.5062 C.2       3 UNK         0.5000 
     56 O          -1.3413  -14.7542  -42.5106 O.2       3 UNK        -0.5000 
     57 CA         -1.5864  -12.6167  -43.5675 C.3       3 UNK         0.1400 
     58 CB         -2.8009  -11.8606  -43.0092 C.3       3 UNK        -0.1800 
     59 N          -0.6089  -11.6553  -44.0882 N.am      3 UNK        -0.5000 
     60 C           0.5226  -11.9923  -44.7207 C.2       2 UNK         0.5000 
     61 O           0.8920  -13.1570  -44.8835 O.2       2 UNK        -0.5000 
     62 CA          1.4179  -10.8342  -45.1973 C.3       2 UNK         0.1400 
     63 CB          2.3493  -10.3866  -44.0596 C.3       2 UNK        -0.1800 
     64 N           2.2356  -11.2164  -46.3495 N.am      2 UNK        -0.5000 
     65 C           1.7523  -11.4979  -47.5668 C.2       1 UNK         0.5000 
     66 O           0.5627  -11.3742  -47.8745 O.2       1 UNK        -0.5000 
     67 C          -2.7547  -20.2024  -47.2824 C.2       11 UNK         0.5000 
     68 O          -3.6652  -20.4401  -48.0736 O.2       11 UNK        -0.5000 
     69 N          -2.9143  -19.4701  -46.1672 N.am      12 UNK        -0.5000 
     70 CA         -4.1930  -18.8872  -45.7371 C.3       12 UNK         0.1400 
     71 CB         -3.9480  -17.8578  -44.6245 C.3       12 UNK        -0.1800 
     72 C          -5.2065  -19.9535  -45.2746 C.2       12 UNK         0.5000 
     73 O          -6.4128  -19.7172  -45.3303 O.2       12 UNK        -0.5000 
     74 N          -4.6929  -21.1246  -44.8729 N.am      13 UNK        -0.5000 
     75 CA         -5.4574  -22.3408  -44.5920 C.3       13 UNK         0.1400 
     76 CB         -4.6169  -23.2375  -43.6669 C.3       13 UNK        -0.1800 
     77 C          -5.8605  -23.1059  -45.8732 C.2       13 UNK         0.5000 
     78 O          -6.5038  -24.1493  -45.7678 O.2       13 UNK        -0.5000 
     79 N          -5.4443  -22.6031  -47.0468 N.am      14 UNK        -0.5000 
     80 CA         -5.6366  -23.1134  -48.4091 C.3       14 UNK         0.1400 
     81 CB         -7.1254  -23.3505  -48.7296 C.3       14 UNK        -0.1800 
     82 C          -4.7809  -24.3433  -48.7627 C.2       14 UNK         0.5000 
     83 O          -4.6550  -24.6463  -49.9481 O.2       14 UNK        -0.5000 
     84 N          -4.1961  -25.0135  -47.7617 N.am      15 UNK        -0.5000 
     85 CA         -3.4414  -26.2588  -47.8885 C.3       15 UNK         0.1400 
     86 CB         -3.0826  -26.7797  -46.4874 C.3       15 UNK        -0.1800 
     87 C          -2.1892  -26.1222  -48.7689 C.2       15 UNK         0.5000 
     88 O          -2.0683  -26.8292  -49.7700 O.2       15 UNK        -0.5000 
     89 N          -1.2983  -25.1890  -48.4087 N.am      16 UNK        -0.5000 
     90 CA         -0.0496  -24.9389  -49.1372 C.3       16 UNK         0.1400 
     91 CB          0.9439  -24.2229  -48.2176 C.3       16 UNK        -0.1800 
     92 C          -0.2597  -24.1509  -50.4436 C.2       16 UNK         0.5000 
     93 O           0.6074  -24.1810  -51.3167 O.2       16 UNK        -0.5000 
     94 N          -1.4167  -23.4878  -50.5682 N.am      17 UNK        -0.5000 
     95 CA         -1.8685  -22.8187  -51.7873 C.3       17 UNK         0.1400 
     96 CB         -2.7844  -21.6479  -51.3928 C.3       17 UNK        -0.1800 
     97 C          -2.5956  -23.7764  -52.7546 C.2       17 UNK         0.5000 
     98 O          -2.9977  -23.3398  -53.8344 O.2       17 UNK        -0.5000 
     99 N          -2.8142  -25.0371  -52.3431 N.am      18 UNK        -0.5000 
    100 CA        -3.5492  -26.0964  -53.0507 C.3       18 UNK         0.1400 
    101 CB        -2.7384  -26.5730  -54.2731 C.3       18 UNK        -0.1800 
    102 C         -4.9987  -25.7063  -53.4252 C.2       18 UNK         0.5000 
    103 O         -5.5547  -26.2482  -54.3819 O.2       18 UNK        -0.5000 
    104 N         -5.5601  -24.7396  -52.6828 N.am      19 UNK        -0.5000 
    105 CA        -6.8177  -24.0264  -52.9180 C.3       19 UNK         0.1400 
    106 CB        -8.0131  -24.9483  -52.6029 C.3       19 UNK        -0.1800 
    107 C         -6.9188  -23.3667  -54.3153 C.2       19 UNK         0.5000 
    108 O         -8.0298  -23.2166  -54.8287 O.2       19 UNK        -0.5000 
    109 N         -5.7764  -22.9970  -54.9178 N.am      20 UNK        -0.5000 
    110 CA        -5.7078  -22.5433  -56.3093 C.3       20 UNK         0.1400 
    111 CB        -5.4456  -23.7525  -57.2234 C.3       20 UNK        -0.1800 
    112 C         -4.6633  -21.4451  -56.5623 C.2       20 UNK         0.5000 
    113 O         -4.9063  -20.5893  -57.4151 O.2       20 UNK        -0.5000 
    114 N         -3.5266  -21.4689  -55.8486 N.am      21 UNK        -0.5000 
    115 CA        -2.3664  -20.6016  -56.1001 C.3       21 UNK         0.1400 
    116 CB        -1.2146  -20.9981  -55.1638 C.3       21 UNK        -0.1800 
    117 C         -2.6499  -19.0939  -55.9711 C.2       21 UNK         0.5000 
    118 O         -2.0230  -18.2976  -56.6711 O.2       21 UNK        -0.5000 
    119 N         -3.5887  -18.7360  -55.0884 N.am      22 UNK        -0.5000 
    120 CA        -4.0520  -17.3567  -54.8716 C.3       22 UNK         0.1400 
    121 C         -5.2100  -16.9271  -55.8222 C.2       22 UNK         0.5000 
    122 N         -5.6744  -17.7638  -56.7439 N.am      22 UNK        -0.7600 
    123 O         -5.6926  -15.8015  -55.7316 O.2       22 UNK        -0.5000 
    124 C124       -4.4101  -17.0964  -53.3827 C.3       23 UNK        -0.0398 
    125 S125       -3.1302  -17.5586  -52.1563 S.3       23 UNK        -0.2404 
    126 C126       -1.5756  -16.9707  -52.9117 C.3       23 UNK        -0.0205 
    127 H127        1.3064  -11.5690  -52.3005 H         1 UNK         0.0600 
    128 H128        0.8209   -9.8959  -52.0118 H         1 UNK         0.0600 
    129 H129        2.3966  -10.2480  -52.7300 H         1 UNK         0.0600 
    130 H130        1.8525  -12.5900  -50.3956 H         1 UNK         0.3000 
    131 H131        3.6817  -11.4040  -48.4723 H         1 UNK         0.0600 
    132 H132        3.4972  -13.6266  -47.3218 H         1 UNK         0.0800 
    133 H133        4.0670  -13.7152  -48.9534 H         1 UNK         0.0800 
    134 H134        3.4940  -15.7680  -50.1747 H         1 UNK         0.0800 
    135 H135        2.5275  -14.6055  -51.0510 H         1 UNK         0.0800 
    136 H136        0.2387  -15.2128  -51.8534 H         1 UNK         0.1150 
    137 H137       -0.7166  -19.3876  -52.0238 H         1 UNK         0.1150 
    138 H138        2.6999  -18.0609  -49.8013 H         1 UNK         0.1150 
    139 H139        0.5587  -20.9977  -50.8597 H         1 UNK         0.0800 
    140 H140        2.2634  -20.6263  -50.7617 H         1 UNK         0.0800 
    141 H141       -0.9114  -19.4192  -49.1092 H         1 UNK         0.0800 
    142 H142       -0.2864  -18.9232  -47.5620 H         1 UNK         0.0800 
    143 H143       -1.4948  -21.6636  -48.2042 H         1 UNK         0.0600 
    144 H144       -0.2627  -20.6611  -45.7266 H         1 UNK         0.3000 
    145 H145       -1.2389  -22.3460  -43.5801 H         1 UNK         0.0600 
    146 H146        0.0948  -24.4028  -42.9990 H         1 UNK         0.0600 
    147 H147       -1.3253  -24.7518  -43.9705 H         1 UNK         0.0600 
    148 H148        0.2622  -24.7577  -44.7192 H         1 UNK         0.0600 
    149 H149        0.6454  -21.2347  -43.4006 H         1 UNK         0.3000 
    150 H150        3.9428  -21.7150  -44.1576 H         1 UNK         0.0600 
    151 H151        3.5110  -20.8342  -46.4546 H         1 UNK         0.0600 
    152 H152        4.1050  -19.5661  -45.3946 H         1 UNK         0.0600 
    153 H153        2.3915  -19.6443  -45.8005 H         1 UNK         0.0600 
    154 H154        2.5120  -19.3357  -43.3863 H         1 UNK         0.3000 
    155 H155        2.1299  -20.2258  -39.9507 H         1 UNK         0.0600 
    156 H156        3.8743  -18.1223  -41.3386 H         1 UNK         0.0600 
    157 H157        4.4439  -19.3001  -40.1617 H         1 UNK         0.0600 
    158 H158        3.2977  -18.0605  -39.6746 H         1 UNK         0.0600 
    159 H159        1.3875  -17.8695  -41.3224 H         1 UNK         0.3000 
    160 H160       -1.8600  -18.9900  -42.4044 H         1 UNK         0.0600 
    161 H161       -2.4425  -16.9452  -41.1547 H         1 UNK         0.0600 
    162 H162       -0.8550  -16.9134  -40.3910 H         1 UNK         0.0600 
    163 H163       -1.9821  -18.2162  -40.0327 H         1 UNK         0.0600 
    164 H164       -0.4805  -16.5181  -42.8102 H         1 UNK         0.3000 
    165 H165        1.0083  -17.3989  -45.9614 H         1 UNK         0.0600 
    166 H166       -0.2185  -15.3302  -46.6262 H         1 UNK         0.0600 
    167 H167       -1.3083  -16.7039  -46.5262 H         1 UNK         0.0600 
    168 H168       -1.2877  -15.5017  -45.2394 H         1 UNK         0.0600 
    169 H169        1.0857  -14.9648  -44.5232 H         1 UNK         0.3000 
    170 H170        3.8854  -15.7357  -42.4129 H         1 UNK         0.0600 
    171 H171        4.7616  -14.9666  -44.6094 H         1 UNK         0.0600 
    172 H172        3.4314  -13.8306  -44.7734 H         1 UNK         0.0600 
    173 H173        4.6194  -13.6208  -43.4889 H         1 UNK         0.0600 
    174 H174        2.1037  -13.4803  -42.6942 H         1 UNK         0.3000 
    175 H175       -0.1218  -14.4016  -40.0661 H         1 UNK         0.0600 
    176 H176        0.6296  -12.2131  -39.1793 H         1 UNK         0.0600 
    177 H177        1.8697  -13.4277  -38.9127 H         1 UNK         0.0600 
    178 H178        2.0620  -12.2520  -40.2078 H         1 UNK         0.0600 
    179 H179        0.1030  -12.0694  -41.7165 H         1 UNK         0.3000 
    180 H180       -1.9245  -13.2284  -44.4064 H         1 UNK         0.0600 
    181 H181       -2.5223  -11.1998  -42.1874 H         1 UNK         0.0600 
    182 H182       -3.5530  -12.5550  -42.6318 H         1 UNK         0.0600 
    183 H183       -3.2780  -11.2557  -43.7805 H         1 UNK         0.0600 
    184 H184       -0.8375  -10.6778  -43.9779 H         1 UNK         0.3000 
    185 H185        0.7829   -9.9948  -45.4883 H         1 UNK         0.0600 
    186 H186        3.0117  -11.1922  -43.7396 H         1 UNK         0.0600 
    187 H187        2.9701   -9.5447  -44.3667 H         1 UNK         0.0600 
    188 H188        1.7791  -10.0646  -43.1873 H         1 UNK         0.0600 
    189 H189        3.2188  -11.3526  -46.1681 H         1 UNK         0.3000 
    190 H190       -2.1138  -19.3313  -45.5587 H         1 UNK         0.3000 
    191 H191       -4.6307  -18.3655  -46.5909 H         1 UNK         0.0600 
    192 H192       -3.2466  -17.0865  -44.9395 H         1 UNK         0.0600 
    193 H193       -3.5568  -18.3258  -43.7233 H         1 UNK         0.0600 
    194 H194       -4.8765  -17.3552  -44.3504 H         1 UNK         0.0600 
    195 H195       -3.6890  -21.2161  -44.8611 H         1 UNK         0.3000 
    196 H196       -6.3761  -22.0696  -44.0678 H         1 UNK         0.0600 
    197 H197       -5.1799  -24.1197  -43.3596 H         1 UNK         0.0600 
    198 H198       -4.3269  -22.7086  -42.7587 H         1 UNK         0.0600 
    199 H199       -3.7084  -23.5862  -44.1582 H         1 UNK         0.0600 
    200 H200       -4.8966  -21.7516  -47.0168 H         1 UNK         0.3000 
    201 H201       -5.2946  -22.3148  -49.0676 H         1 UNK         0.0600 
    202 H202       -7.7232  -22.4669  -48.5063 H         1 UNK         0.0600 
    203 H203       -7.5376  -24.1885  -48.1675 H         1 UNK         0.0600 
    204 H204       -7.2636  -23.5765  -49.7869 H         1 UNK         0.0600 
    205 H205       -4.3367  -24.6686  -46.8239 H         1 UNK         0.3000 
    206 H206       -4.0970  -26.9921  -48.3626 H         1 UNK         0.0600 
    207 H207       -3.9798  -26.9826  -45.9022 H         1 UNK         0.0600 
    208 H208       -2.5178  -27.7108  -46.5487 H         1 UNK         0.0600 
    209 H209       -2.4770  -26.0638  -45.9305 H         1 UNK         0.0600 
    210 H210       -1.4852  -24.6150  -47.5895 H         1 UNK         0.3000 
    211 H211        0.3894  -25.9012  -49.4095 H         1 UNK         0.0600 
    212 H212        0.5715  -23.2495  -47.9064 H         1 UNK         0.0600 
    213 H213        1.8993  -24.0607  -48.7178 H         1 UNK         0.0600 
    214 H214        1.1413  -24.8092  -47.3202 H         1 UNK         0.0600 
    215 H215       -2.0802  -23.5475  -49.8099 H         1 UNK         0.3000 
    216 H216       -1.0059  -22.4129  -52.3187 H         1 UNK         0.0600 
    217 H217       -3.1069  -21.0838  -52.2688 H         1 UNK         0.0600 
    218 H218       -2.2717  -20.9487  -50.7324 H         1 UNK         0.0600 
    219 H219       -3.6817  -21.9940  -50.8800 H         1 UNK         0.0600 
    220 H220       -2.4934  -25.2944  -51.4186 H         1 UNK         0.3000 
    221 H221       -3.6289  -26.9310  -52.3529 H         1 UNK         0.0600 
    222 H222       -2.6754  -25.8011  -55.0409 H         1 UNK         0.0600 
    223 H223       -1.7225  -26.8474  -53.9889 H         1 UNK         0.0600 
    224 H224       -3.1944  -27.4523  -54.7293 H         1 UNK         0.0600 
    225 H225       -5.0461  -24.4529  -51.8547 H         1 UNK         0.3000 
    226 H226       -6.8354  -23.2047  -52.2012 H         1 UNK         0.0600 
    227 H227       -7.9221  -25.3846  -51.6081 H         1 UNK         0.0600 
    228 H228       -8.0910  -25.7651  -53.3211 H         1 UNK         0.0600 
    229 H229       -8.9538  -24.3972  -52.6280 H         1 UNK         0.0600 
    230 H230       -4.8950  -23.1520  -54.4395 H         1 UNK         0.3000 
    231 H231       -6.6663  -22.1065  -56.5977 H         1 UNK         0.0600 
    232 H232       -6.2502  -24.4844  -57.1491 H         1 UNK         0.0600 
    233 H233       -4.5134  -24.2553  -56.9621 H         1 UNK         0.0600 
    234 H234       -5.3772  -23.4496  -58.2690 H         1 UNK         0.0600 
    235 H235       -3.3823  -22.2024  -55.1581 H         1 UNK         0.3000 
    236 H236       -2.0444  -20.7837  -57.1274 H         1 UNK         0.0600 
    237 H237       -0.3177  -20.4155  -55.3785 H         1 UNK         0.0600 
    238 H238       -1.4728  -20.8237  -54.1196 H         1 UNK         0.0600 
    239 H239       -0.9528  -22.0501  -55.2781 H         1 UNK         0.0600 
    240 H240       -4.0593  -19.4579  -54.5638 H         1 UNK         0.3000 
    241 H241       -3.2374  -16.6768  -55.1244 H         1 UNK         0.0600 
    242 H242       -6.4194  -17.4607  -57.3510 H         1 UNK         0.3800 
    243 H243       -5.2806  -18.6906  -56.8664 H         1 UNK         0.3800 
    244 H244       -4.6354  -16.0392  -53.2322 H         1 UNK         0.0800 
    245 H245       -5.3215  -17.6359  -53.1203 H         1 UNK         0.0800 
    246 H246       -1.6577  -15.9010  -53.1097 H         1 UNK         0.0800 
    247 H247       -1.4127  -17.4581  -53.8718 H         1 UNK         0.0800 
@<TRIPOS>BOND
     1    1    2 1    
     2    1  127 1    
     3    1  128 1    
     4    1  129 1    
     5    2    3 2    
     6    2    4 am   BACKBONE|DICT|INTERRES
     7    4    5 1    
     8    4  130 1    
     9    5    6 1    
    10    5   65 1    
    11    5  131 1    
    12    6    7 1    
    13    6  132 1    
    14    6  133 1    
    15    7    8 1    
    16    8    9 1    
    17    8  134 1    
    18    8  135 1    
    19    9   10 ar   
    20    9   14 ar   
    21   10   11 ar   
    22   10  136 1    
    23   11   12 ar   
    24   11  126 1    
    25   12   13 ar   
    26   12  137 1    
    27   13   14 ar   
    28   13   15 1    
    29   14  138 1    
    30   15   16 1    
    31   15  139 1    
    32   15  140 1    
    33   16   17 1    
    34   17   18 1    
    35   17  141 1    
    36   17  142 1    
    37   18   19 1    
    38   18   67 1    
    39   18  143 1    
    40   19   20 am   BACKBONE|DICT|INTERRES
    41   19  144 1    
    42   20   21 2    
    43   20   22 1    
    44   22   23 1    
    45   22   24 1    
    46   22  145 1    
    47   23  146 1    
    48   23  147 1    
    49   23  148 1    
    50   24   25 am   BACKBONE|DICT|INTERRES
    51   24  149 1    
    52   25   26 2    
    53   25   27 1    
    54   27   28 1    
    55   27   29 1    
    56   27  150 1    
    57   28  151 1    
    58   28  152 1    
    59   28  153 1    
    60   29   30 am   BACKBONE|DICT|INTERRES
    61   29  154 1    
    62   30   31 2    
    63   30   32 1    
    64   32   33 1    
    65   32   34 1    
    66   32  155 1    
    67   33  156 1    
    68   33  157 1    
    69   33  158 1    
    70   34   35 am   BACKBONE|DICT|INTERRES
    71   34  159 1    
    72   35   36 2    
    73   35   37 1    
    74   37   38 1    
    75   37   39 1    
    76   37  160 1    
    77   38  161 1    
    78   38  162 1    
    79   38  163 1    
    80   39   40 am   BACKBONE|DICT|INTERRES
    81   39  164 1    
    82   40   41 2    
    83   40   42 1    
    84   42   43 1    
    85   42   44 1    
    86   42  165 1    
    87   43  166 1    
    88   43  167 1    
    89   43  168 1    
    90   44   45 am   BACKBONE|DICT|INTERRES
    91   44  169 1    
    92   45   46 2    
    93   45   47 1    
    94   47   48 1    
    95   47   49 1    
    96   47  170 1    
    97   48  171 1    
    98   48  172 1    
    99   48  173 1    
   100   49   50 am   BACKBONE|DICT|INTERRES
   101   49  174 1    
   102   50   51 2    
   103   50   52 1    
   104   52   53 1    
   105   52   54 1    
   106   52  175 1    
   107   53  176 1    
   108   53  177 1    
   109   53  178 1    
   110   54   55 am   BACKBONE|DICT|INTERRES
   111   54  179 1    
   112   55   56 2    
   113   55   57 1    
   114   57   58 1    
   115   57   59 1    
   116   57  180 1    
   117   58  181 1    
   118   58  182 1    
   119   58  183 1    
   120   59   60 am   BACKBONE|DICT|INTERRES
   121   59  184 1    
   122   60   61 2    
   123   60   62 1    
   124   62   63 1    
   125   62   64 1    
   126   62  185 1    
   127   63  186 1    
   128   63  187 1    
   129   63  188 1    
   130   64   65 am   BACKBONE|DICT|INTERRES
   131   64  189 1    
   132   65   66 2    
   133   67   68 2    
   134   67   69 am   BACKBONE|DICT|INTERRES
   135   69   70 1    
   136   69  190 1    
   137   70   71 1    
   138   70   72 1    
   139   70  191 1    
   140   71  192 1    
   141   71  193 1    
   142   71  194 1    
   143   72   73 2    
   144   72   74 am   BACKBONE|DICT|INTERRES
   145   74   75 1    
   146   74  195 1    
   147   75   76 1    
   148   75   77 1    
   149   75  196 1    
   150   76  197 1    
   151   76  198 1    
   152   76  199 1    
   153   77   78 2    
   154   77   79 am   BACKBONE|DICT|INTERRES
   155   79   80 1    
   156   79  200 1    
   157   80   81 1    
   158   80   82 1    
   159   80  201 1    
   160   81  202 1    
   161   81  203 1    
   162   81  204 1    
   163   82   83 2    
   164   82   84 am   BACKBONE|DICT|INTERRES
   165   84   85 1    
   166   84  205 1    
   167   85   86 1    
   168   85   87 1    
   169   85  206 1    
   170   86  207 1    
   171   86  208 1    
   172   86  209 1    
   173   87   88 2    
   174   87   89 am   BACKBONE|DICT|INTERRES
   175   89   90 1    
   176   89  210 1    
   177   90   91 1    
   178   90   92 1    
   179   90  211 1    
   180   91  212 1    
   181   91  213 1    
   182   91  214 1    
   183   92   93 2    
   184   92   94 am   BACKBONE|DICT|INTERRES
   185   94   95 1    
   186   94  215 1    
   187   95   96 1    
   188   95   97 1    
   189   95  216 1    
   190   96  217 1    
   191   96  218 1    
   192   96  219 1    
   193   97   98 2    
   194   97   99 am   BACKBONE|DICT|INTERRES
   195   99  100 1    
   196   99  220 1    
   197  100  101 1    
   198  100  102 1    
   199  100  221 1    
   200  101  222 1    
   201  101  223 1    
   202  101  224 1    
   203  102  103 2    
   204  102  104 am   BACKBONE|DICT|INTERRES
   205  104  105 1    
   206  104  225 1    
   207  105  106 1    
   208  105  107 1    
   209  105  226 1    
   210  106  227 1    
   211  106  228 1    
   212  106  229 1    
   213  107  108 2    
   214  107  109 am   BACKBONE|DICT|INTERRES
   215  109  110 1    
   216  109  230 1    
   217  110  111 1    
   218  110  112 1    
   219  110  231 1    
   220  111  232 1    
   221  111  233 1    
   222  111  234 1    
   223  112  113 2    
   224  112  114 am   BACKBONE|DICT|INTERRES
   225  114  115 1    
   226  114  235 1    
   227  115  116 1    
   228  115  117 1    
   229  115  236 1    
   230  116  237 1    
   231  116  238 1    
   232  116  239 1    
   233  117  118 2    
   234  117  119 am   BACKBONE|DICT|INTERRES
   235  119  120 1    
   236  119  240 1    
   237  120  121 1    
   238  120  124 1    
   239  120  241 1    
   240  121  122 am   BACKBONE|DICT|INTERRES
   241  121  123 2    
   242  122  242 1    
   243  122  243 1    
   244  124  125 1    
   245  124  244 1    
   246  124  245 1    
   247  125  126 1    
   248  126  246 1    
   249  126  247 1    
@<TRIPOS>SUBSTRUCTURE
     1 UNK         1 GROUP             0       ****    0 ROOT    
