@<TRIPOS>MOLECULE
3R540
247   249    1
SMALL
USER_CHARGES


@<TRIPOS>ATOM
      1 CA         -6.5316  -15.3562  -50.1100 C.3       0 UNK        -0.1800 
      2 C          -5.3205  -14.5676  -49.6359 C.2       0 UNK         0.5000 
      3 O          -5.4187  -13.3571  -49.4382 O.2       0 UNK        -0.5000 
      4 N          -4.1830  -15.2443  -49.4316 N.am      1 UNK        -0.5000 
      5 CA         -2.9175  -14.6504  -48.9719 C.3       1 UNK         0.1400 
      6 C6         -1.7057  -15.5559  -49.3105 C.3       23 UNK        -0.0398 
      7 S7         -1.5006  -15.8984  -51.0875 S.3       23 UNK        -0.2404 
      8 C8          0.2861  -15.6065  -51.3071 C.3       23 UNK        -0.0205 
      9 C9          1.1452  -16.7879  -50.8646 C.ar      23 UNK        -0.0193 
     10 C10         1.4841  -17.7769  -51.7900 C.ar      23 UNK        -0.1150 
     11 C11         2.3462  -18.8185  -51.4410 C.ar      23 UNK        -0.0193 
     12 C12         2.8597  -18.8809  -50.1418 C.ar      23 UNK        -0.1150 
     13 C13         2.5354  -17.8981  -49.1968 C.ar      23 UNK        -0.0193 
     14 C14         1.6730  -16.8573  -49.5695 C.ar      23 UNK        -0.1150 
     15 C15         3.2065  -17.8613  -47.8205 C.3       23 UNK        -0.0205 
     16 S16         3.5526  -19.4927  -47.0628 S.3       23 UNK        -0.2404 
     17 C17         2.0688  -19.7839  -46.0433 C.3       23 UNK        -0.0398 
     18 CA          1.0661  -20.7140  -46.7549 C.3       11 UNK         0.1400 
     19 N           1.5777  -22.0790  -46.8686 N.am      11 UNK        -0.5000 
     20 C           1.0874  -23.0051  -47.6985 C.2       10 UNK         0.5000 
     21 O           0.1316  -22.8098  -48.4495 O.2       10 UNK        -0.5000 
     22 CA          1.7583  -24.3881  -47.6333 C.3       10 UNK         0.1400 
     23 CB          3.1330  -24.3620  -48.3206 C.3       10 UNK        -0.1800 
     24 N           1.9279  -24.8457  -46.2535 N.am      10 UNK        -0.5000 
     25 C           0.9210  -25.1505  -45.4238 C.2       9 UNK         0.5000 
     26 O          -0.2652  -25.1343  -45.7523 O.2       9 UNK        -0.5000 
     27 CA          1.3058  -25.4913  -43.9707 C.3       9 UNK         0.1400 
     28 CB          1.6425  -26.9841  -43.8387 C.3       9 UNK        -0.1800 
     29 N           2.4196  -24.6931  -43.4417 N.am      9 UNK        -0.5000 
     30 C           2.4047  -23.3602  -43.3095 C.2       8 UNK         0.5000 
     31 O           1.4849  -22.6470  -43.7114 O.2       8 UNK        -0.5000 
     32 CA          3.6302  -22.7036  -42.6550 C.3       8 UNK         0.1400 
     33 CB          4.6435  -22.2689  -43.7248 C.3       8 UNK        -0.1800 
     34 N           3.2140  -21.5318  -41.8854 N.am      8 UNK        -0.5000 
     35 C           2.7035  -21.5764  -40.6499 C.2       7 UNK         0.5000 
     36 O           2.6356  -22.6067  -39.9780 O.2       7 UNK        -0.5000 
     37 CA          2.1586  -20.2578  -40.0662 C.3       7 UNK         0.1400 
     38 CB          3.2751  -19.2162  -39.8509 C.3       7 UNK        -0.1800 
     39 N           1.0258  -19.7046  -40.8214 N.am      7 UNK        -0.5000 
     40 C           1.0168  -19.1816  -42.0557 C.2       6 UNK         0.5000 
     41 O           2.0234  -19.0761  -42.7608 O.2       6 UNK        -0.5000 
     42 CA         -0.3588  -18.7536  -42.6163 C.3       6 UNK         0.1400 
     43 CB         -1.3444  -18.2347  -41.5462 C.3       6 UNK        -0.1800 
     44 N          -0.2374  -17.8120  -43.7347 N.am      6 UNK        -0.5000 
     45 C           0.2349  -16.5560  -43.6968 C.2       5 UNK         0.5000 
     46 O           0.4918  -15.9493  -42.6553 O.2       5 UNK        -0.5000 
     47 CA          0.5007  -15.8894  -45.0642 C.3       5 UNK         0.1400 
     48 CB         -0.2893  -16.5189  -46.2223 C.3       5 UNK        -0.1800 
     49 N           0.2330  -14.4520  -45.0729 N.am      5 UNK        -0.5000 
     50 C           1.1019  -13.5011  -44.7078 C.2       4 UNK         0.5000 
     51 O           2.2198  -13.7414  -44.2488 O.2       4 UNK        -0.5000 
     52 CA          0.6892  -12.0322  -44.9209 C.3       4 UNK         0.1400 
     53 CB          1.4145  -11.4431  -46.1426 C.3       4 UNK        -0.1800 
     54 N          -0.7547  -11.8481  -45.1012 N.am      4 UNK        -0.5000 
     55 C          -1.4839  -10.9149  -44.4716 C.2       3 UNK         0.5000 
     56 O          -1.0196  -10.1264  -43.6465 O.2       3 UNK        -0.5000 
     57 CA         -2.9860  -10.8256  -44.8183 C.3       3 UNK         0.1400 
     58 CB         -3.2263   -9.7363  -45.8749 C.3       3 UNK        -0.1800 
     59 N          -3.5596  -12.0822  -45.2996 N.am      3 UNK        -0.5000 
     60 C          -3.6864  -13.1968  -44.5691 C.2       2 UNK         0.5000 
     61 O          -3.4093  -13.2595  -43.3712 O.2       2 UNK        -0.5000 
     62 CA         -4.1904  -14.4645  -45.2888 C.3       2 UNK         0.1400 
     63 CB         -5.6715  -14.6961  -44.9514 C.3       2 UNK        -0.1800 
     64 N          -4.0292  -14.5083  -46.7503 N.am      2 UNK        -0.5000 
     65 C          -2.9088  -14.2968  -47.4602 C.2       1 UNK         0.5000 
     66 O          -1.8715  -13.8656  -46.9535 O.2       1 UNK        -0.5000 
     67 C          -0.3293  -20.6716  -46.0987 C.2       11 UNK         0.5000 
     68 O          -1.1274  -19.8056  -46.4466 O.2       11 UNK        -0.5000 
     69 N          -0.6320  -21.6136  -45.1971 N.am      12 UNK        -0.5000 
     70 CA         -1.9603  -21.8071  -44.6114 C.3       12 UNK         0.1400 
     71 CB         -1.8606  -22.7721  -43.4216 C.3       12 UNK        -0.1800 
     72 C          -3.0067  -22.2904  -45.6327 C.2       12 UNK         0.5000 
     73 O          -4.1842  -21.9652  -45.4820 O.2       12 UNK        -0.5000 
     74 N          -2.5679  -23.0188  -46.6692 N.am      13 UNK        -0.5000 
     75 CA         -3.4025  -23.3779  -47.8138 C.3       13 UNK         0.1400 
     76 CB         -2.7798  -24.5592  -48.5724 C.3       13 UNK        -0.1800 
     77 C          -3.6211  -22.1600  -48.7288 C.2       13 UNK         0.5000 
     78 O          -4.7651  -21.8508  -49.0633 O.2       13 UNK        -0.5000 
     79 N          -2.5320  -21.4481  -49.0614 N.am      14 UNK        -0.5000 
     80 CA         -2.5439  -20.2149  -49.8588 C.3       14 UNK         0.1400 
     81 CB         -1.1088  -19.7359  -50.0897 C.3       14 UNK        -0.1800 
     82 C          -3.3716  -19.0716  -49.2463 C.2       14 UNK         0.5000 
     83 O          -3.9326  -18.2642  -49.9900 O.2       14 UNK        -0.5000 
     84 N          -3.4531  -19.0330  -47.9102 N.am      15 UNK        -0.5000 
     85 CA         -4.2822  -18.1118  -47.1368 C.3       15 UNK         0.1400 
     86 CB         -4.0336  -18.3268  -45.6361 C.3       15 UNK        -0.1800 
     87 C          -5.7841  -18.2141  -47.4618 C.2       15 UNK         0.5000 
     88 O          -6.4748  -17.1977  -47.4118 O.2       15 UNK        -0.5000 
     89 N          -6.2483  -19.4199  -47.8129 N.am      16 UNK        -0.5000 
     90 CA         -7.6188  -19.6827  -48.2435 C.3       16 UNK         0.1400 
     91 CB         -8.0822  -21.0202  -47.6448 C.3       16 UNK        -0.1800 
     92 C          -7.7308  -19.7125  -49.7771 C.2       16 UNK         0.5000 
     93 O          -8.6830  -19.1583  -50.3266 O.2       16 UNK        -0.5000 
     94 N          -6.7735  -20.3765  -50.4390 N.am      17 UNK        -0.5000 
     95 CA         -6.8060  -20.6680  -51.8733 C.3       17 UNK         0.1400 
     96 CB         -5.8753  -21.8572  -52.1498 C.3       17 UNK        -0.1800 
     97 C          -6.4411  -19.4810  -52.7849 C.2       17 UNK         0.5000 
     98 O          -6.7683  -19.5335  -53.9710 O.2       17 UNK        -0.5000 
     99 N          -5.7755  -18.4548  -52.2315 N.am      18 UNK        -0.5000 
    100 CA        -5.1806  -17.3067  -52.9268 C.3       18 UNK         0.1400 
    101 CB        -6.2436  -16.4773  -53.6802 C.3       18 UNK        -0.1800 
    102 C         -4.0138  -17.7702  -53.8183 C.2       18 UNK         0.5000 
    103 O         -4.0913  -17.6916  -55.0462 O.2       18 UNK        -0.5000 
    104 N         -2.9690  -18.2822  -53.1526 N.am      19 UNK        -0.5000 
    105 CA        -1.8023  -18.9660  -53.7213 C.3       19 UNK         0.1400 
    106 CB        -1.0127  -18.0437  -54.6772 C.3       19 UNK        -0.1800 
    107 C         -2.1877  -20.3273  -54.3384 C.2       19 UNK         0.5000 
    108 O         -3.2001  -20.9085  -53.9416 O.2       19 UNK        -0.5000 
    109 N         -1.3517  -20.8353  -55.2557 N.am      20 UNK        -0.5000 
    110 CA        -1.4580  -22.0937  -56.0098 C.3       20 UNK         0.1400 
    111 CB        -2.7280  -22.1230  -56.8818 C.3       20 UNK        -0.1800 
    112 C         -1.3394  -23.3686  -55.1513 C.2       20 UNK         0.5000 
    113 O         -0.4930  -24.2166  -55.4377 O.2       20 UNK        -0.5000 
    114 N         -2.1556  -23.4721  -54.0952 N.am      21 UNK        -0.5000 
    115 CA        -2.1992  -24.5889  -53.1453 C.3       21 UNK         0.1400 
    116 CB        -3.4215  -24.4184  -52.2341 C.3       21 UNK        -0.1800 
    117 C         -0.9122  -24.7434  -52.3097 C.2       21 UNK         0.5000 
    118 O         -0.6568  -25.8245  -51.7787 O.2       21 UNK        -0.5000 
    119 N         -0.1150  -23.6717  -52.2412 N.am      22 UNK        -0.5000 
    120 CA         1.2621  -23.6592  -51.7339 C.3       22 UNK         0.1400 
    121 C          2.2935  -24.4284  -52.6151 C.2       22 UNK         0.5000 
    122 N          1.9797  -24.8086  -53.8493 N.am      22 UNK        -0.7600 
    123 O          3.4021  -24.6963  -52.1611 O.2       22 UNK        -0.5000 
    124 C124        1.7406  -22.2136  -51.4340 C.3       23 UNK        -0.0398 
    125 S125        1.4972  -21.0640  -52.8353 S.3       23 UNK        -0.2404 
    126 C126        2.7792  -19.8215  -52.5003 C.3       23 UNK        -0.0205 
    127 H127       -6.8808  -14.9667  -51.0651 H         1 UNK         0.0600 
    128 H128       -7.3427  -15.2635  -49.3879 H         1 UNK         0.0600 
    129 H129       -6.3077  -16.4164  -50.2259 H         1 UNK         0.0600 
    130 H130       -4.1479  -16.2378  -49.6358 H         1 UNK         0.3000 
    131 H131       -2.7786  -13.7066  -49.5032 H         1 UNK         0.0600 
    132 H132       -0.7918  -15.0699  -48.9716 H         1 UNK         0.0800 
    133 H133       -1.7701  -16.5100  -48.7857 H         1 UNK         0.0800 
    134 H134        0.4673  -15.4065  -52.3642 H         1 UNK         0.0800 
    135 H135        0.5882  -14.6981  -50.7841 H         1 UNK         0.0800 
    136 H136        1.1064  -17.7159  -52.7996 H         1 UNK         0.1150 
    137 H137        3.5527  -19.6689  -49.8843 H         1 UNK         0.1150 
    138 H138        1.4535  -16.0680  -48.8662 H         1 UNK         0.1150 
    139 H139        4.1604  -17.3466  -47.9412 H         1 UNK         0.0800 
    140 H140        2.6276  -17.2498  -47.1287 H         1 UNK         0.0800 
    141 H141        1.6291  -18.8257  -45.7801 H         1 UNK         0.0800 
    142 H142        2.3810  -20.2262  -45.0973 H         1 UNK         0.0800 
    143 H143        0.9398  -20.3338  -47.7689 H         1 UNK         0.0600 
    144 H144        2.3396  -22.3267  -46.2561 H         1 UNK         0.3000 
    145 H145        1.1174  -25.0978  -48.1610 H         1 UNK         0.0600 
    146 H146        3.5635  -25.3621  -48.3744 H         1 UNK         0.0600 
    147 H147        3.0636  -23.9869  -49.3405 H         1 UNK         0.0600 
    148 H148        3.8396  -23.7225  -47.7900 H         1 UNK         0.0600 
    149 H149        2.8713  -24.8927  -45.8981 H         1 UNK         0.3000 
    150 H150        0.4328  -25.2864  -43.3478 H         1 UNK         0.0600 
    151 H151        2.5345  -27.2484  -44.4080 H         1 UNK         0.0600 
    152 H152        0.8230  -27.6034  -44.2062 H         1 UNK         0.0600 
    153 H153        1.8137  -27.2597  -42.7980 H         1 UNK         0.0600 
    154 H154        3.2184  -25.2095  -43.1021 H         1 UNK         0.3000 
    155 H155        4.1111  -23.4237  -41.9897 H         1 UNK         0.0600 
    156 H156        4.2187  -21.5425  -44.4174 H         1 UNK         0.0600 
    157 H157        4.9845  -23.1224  -44.3120 H         1 UNK         0.0600 
    158 H158        5.5245  -21.8169  -43.2690 H         1 UNK         0.0600 
    159 H159        3.1168  -20.6576  -42.3927 H         1 UNK         0.3000 
    160 H160        1.7583  -20.4990  -39.0801 H         1 UNK         0.0600 
    161 H161        3.7516  -18.9180  -40.7848 H         1 UNK         0.0600 
    162 H162        4.0565  -19.6159  -39.2034 H         1 UNK         0.0600 
    163 H163        2.8860  -18.3171  -39.3732 H         1 UNK         0.0600 
    164 H164        0.1378  -19.7692  -40.3439 H         1 UNK         0.3000 
    165 H165       -0.7894  -19.6587  -43.0388 H         1 UNK         0.0600 
    166 H166       -2.2622  -17.8667  -42.0054 H         1 UNK         0.0600 
    167 H167       -1.6331  -19.0258  -40.8538 H         1 UNK         0.0600 
    168 H168       -0.9178  -17.4216  -40.9581 H         1 UNK         0.0600 
    169 H169       -0.4384  -18.2054  -44.6431 H         1 UNK         0.3000 
    170 H170        1.5607  -16.0443  -45.2744 H         1 UNK         0.0600 
    171 H171       -0.0182  -17.5530  -46.4035 H         1 UNK         0.0600 
    172 H172       -1.3659  -16.4740  -46.0580 H         1 UNK         0.0600 
    173 H173       -0.0614  -15.9903  -47.1410 H         1 UNK         0.0600 
    174 H174       -0.6480  -14.1741  -45.4881 H         1 UNK         0.3000 
    175 H175        1.0295  -11.4957  -44.0328 H         1 UNK         0.0600 
    176 H176        1.1124  -11.9410  -47.0649 H         1 UNK         0.0600 
    177 H177        1.2027  -10.3793  -46.2509 H         1 UNK         0.0600 
    178 H178        2.4960  -11.5503  -46.0486 H         1 UNK         0.0600 
    179 H179       -1.2129  -12.4490  -45.7792 H         1 UNK         0.3000 
    180 H180       -3.5163  -10.5413  -43.9071 H         1 UNK         0.0600 
    181 H181       -2.8379   -8.7737  -45.5395 H         1 UNK         0.0600 
    182 H182       -4.2904   -9.6048  -46.0720 H         1 UNK         0.0600 
    183 H183       -2.7358   -9.9773  -46.8189 H         1 UNK         0.0600 
    184 H184       -3.8053  -12.1256  -46.2777 H         1 UNK         0.3000 
    185 H185       -3.6141  -15.2986  -44.8843 H         1 UNK         0.0600 
    186 H186       -6.0205  -15.6589  -45.3205 H         1 UNK         0.0600 
    187 H187       -5.8365  -14.6899  -43.8730 H         1 UNK         0.0600 
    188 H188       -6.3057  -13.9220  -45.3851 H         1 UNK         0.0600 
    189 H189       -4.8417  -14.8163  -47.2654 H         1 UNK         0.3000 
    190 H190        0.1069  -22.2304  -44.8674 H         1 UNK         0.3000 
    191 H191       -2.3116  -20.8441  -44.2375 H         1 UNK         0.0600 
    192 H192       -1.1634  -22.4018  -42.6697 H         1 UNK         0.0600 
    193 H193       -2.8295  -22.8946  -42.9360 H         1 UNK         0.0600 
    194 H194       -1.5231  -23.7601  -43.7340 H         1 UNK         0.0600 
    195 H195       -1.5890  -23.2699  -46.7155 H         1 UNK         0.3000 
    196 H196       -4.3769  -23.7017  -47.4416 H         1 UNK         0.0600 
    197 H197       -3.4928  -24.9672  -49.2876 H         1 UNK         0.0600 
    198 H198       -2.5083  -25.3674  -47.8929 H         1 UNK         0.0600 
    199 H199       -1.8857  -24.2753  -49.1269 H         1 UNK         0.0600 
    200 H200       -1.6249  -21.7881  -48.7587 H         1 UNK         0.3000 
    201 H201       -2.9854  -20.4524  -50.8284 H         1 UNK         0.0600 
    202 H202       -1.0896  -18.7989  -50.6434 H         1 UNK         0.0600 
    203 H203       -0.5435  -20.4635  -50.6653 H         1 UNK         0.0600 
    204 H204       -0.5883  -19.5525  -49.1526 H         1 UNK         0.0600 
    205 H205       -2.8561  -19.6578  -47.3782 H         1 UNK         0.3000 
    206 H206       -3.9583  -17.1054  -47.3894 H         1 UNK         0.0600 
    207 H207       -2.9883  -18.1638  -45.3767 H         1 UNK         0.0600 
    208 H208       -4.6265  -17.6371  -45.0358 H         1 UNK         0.0600 
    209 H209       -4.3023  -19.3359  -45.3265 H         1 UNK         0.0600 
    210 H210       -5.6008  -20.1968  -47.8595 H         1 UNK         0.3000 
    211 H211       -8.2873  -18.9023  -47.8734 H         1 UNK         0.0600 
    212 H212       -7.4490  -21.8489  -47.9646 H         1 UNK         0.0600 
    213 H213       -9.1045  -21.2507  -47.9472 H         1 UNK         0.0600 
    214 H214       -8.0644  -20.9890  -46.5552 H         1 UNK         0.0600 
    215 H215       -6.0377  -20.8374  -49.9087 H         1 UNK         0.3000 
    216 H216       -7.8214  -20.9727  -52.1354 H         1 UNK         0.0600 
    217 H217       -5.8872  -22.1317  -53.2054 H         1 UNK         0.0600 
    218 H218       -6.1752  -22.7367  -51.5799 H         1 UNK         0.0600 
    219 H219       -4.8445  -21.6226  -51.8859 H         1 UNK         0.0600 
    220 H220       -5.5149  -18.5415  -51.2559 H         1 UNK         0.3000 
    221 H221       -4.7519  -16.6632  -52.1576 H         1 UNK         0.0600 
    222 H222       -6.6331  -16.9988  -54.5546 H         1 UNK         0.0600 
    223 H223       -7.0897  -16.2374  -53.0376 H         1 UNK         0.0600 
    224 H224       -5.8185  -15.5360  -54.0296 H         1 UNK         0.0600 
    225 H225       -3.0323  -18.2961  -52.1438 H         1 UNK         0.3000 
    226 H226       -1.1452  -19.1956  -52.8846 H         1 UNK         0.0600 
    227 H227       -0.0252  -18.4514  -54.8952 H         1 UNK         0.0600 
    228 H228       -1.5268  -17.9023  -55.6283 H         1 UNK         0.0600 
    229 H229       -0.8595  -17.0599  -54.2332 H         1 UNK         0.0600 
    230 H230       -0.5274  -20.2924  -55.4712 H         1 UNK         0.3000 
    231 H231       -0.6033  -22.0987  -56.6882 H         1 UNK         0.0600 
    232 H232       -3.6388  -22.1252  -56.2825 H         1 UNK         0.0600 
    233 H233       -2.7490  -23.0163  -57.5072 H         1 UNK         0.0600 
    234 H234       -2.7681  -21.2601  -57.5465 H         1 UNK         0.0600 
    235 H235       -2.7826  -22.6889  -53.9215 H         1 UNK         0.3000 
    236 H236       -2.3265  -25.5076  -53.7212 H         1 UNK         0.0600 
    237 H237       -4.3370  -24.3161  -52.8165 H         1 UNK         0.0600 
    238 H238       -3.5465  -25.2897  -51.5912 H         1 UNK         0.0600 
    239 H239       -3.3260  -23.5406  -51.5941 H         1 UNK         0.0600 
    240 H240       -0.4062  -22.8322  -52.7186 H         1 UNK         0.3000 
    241 H241        1.2400  -24.1943  -50.7838 H         1 UNK         0.0600 
    242 H242        1.0782  -24.5909  -54.2599 H         1 UNK         0.3800 
    243 H243        2.6622  -25.3088  -54.3960 H         1 UNK         0.3800 
    244 H244        1.2009  -21.8174  -50.5772 H         1 UNK         0.0800 
    245 H245        2.7893  -22.2105  -51.1325 H         1 UNK         0.0800 
    246 H246        3.7123  -20.3110  -52.2177 H         1 UNK         0.0800 
    247 H247        2.9926  -19.2879  -53.4276 H         1 UNK         0.0800 
@<TRIPOS>BOND
     1    1    2 1    
     2    1  127 1    
     3    1  128 1    
     4    1  129 1    
     5    2    3 2    
     6    2    4 am   BACKBONE|DICT|INTERRES
     7    4    5 1    
     8    4  130 1    
     9    5    6 1    
    10    5   65 1    
    11    5  131 1    
    12    6    7 1    
    13    6  132 1    
    14    6  133 1    
    15    7    8 1    
    16    8    9 1    
    17    8  134 1    
    18    8  135 1    
    19    9   10 ar   
    20    9   14 ar   
    21   10   11 ar   
    22   10  136 1    
    23   11   12 ar   
    24   11  126 1    
    25   12   13 ar   
    26   12  137 1    
    27   13   14 ar   
    28   13   15 1    
    29   14  138 1    
    30   15   16 1    
    31   15  139 1    
    32   15  140 1    
    33   16   17 1    
    34   17   18 1    
    35   17  141 1    
    36   17  142 1    
    37   18   19 1    
    38   18   67 1    
    39   18  143 1    
    40   19   20 am   BACKBONE|DICT|INTERRES
    41   19  144 1    
    42   20   21 2    
    43   20   22 1    
    44   22   23 1    
    45   22   24 1    
    46   22  145 1    
    47   23  146 1    
    48   23  147 1    
    49   23  148 1    
    50   24   25 am   BACKBONE|DICT|INTERRES
    51   24  149 1    
    52   25   26 2    
    53   25   27 1    
    54   27   28 1    
    55   27   29 1    
    56   27  150 1    
    57   28  151 1    
    58   28  152 1    
    59   28  153 1    
    60   29   30 am   BACKBONE|DICT|INTERRES
    61   29  154 1    
    62   30   31 2    
    63   30   32 1    
    64   32   33 1    
    65   32   34 1    
    66   32  155 1    
    67   33  156 1    
    68   33  157 1    
    69   33  158 1    
    70   34   35 am   BACKBONE|DICT|INTERRES
    71   34  159 1    
    72   35   36 2    
    73   35   37 1    
    74   37   38 1    
    75   37   39 1    
    76   37  160 1    
    77   38  161 1    
    78   38  162 1    
    79   38  163 1    
    80   39   40 am   BACKBONE|DICT|INTERRES
    81   39  164 1    
    82   40   41 2    
    83   40   42 1    
    84   42   43 1    
    85   42   44 1    
    86   42  165 1    
    87   43  166 1    
    88   43  167 1    
    89   43  168 1    
    90   44   45 am   BACKBONE|DICT|INTERRES
    91   44  169 1    
    92   45   46 2    
    93   45   47 1    
    94   47   48 1    
    95   47   49 1    
    96   47  170 1    
    97   48  171 1    
    98   48  172 1    
    99   48  173 1    
   100   49   50 am   BACKBONE|DICT|INTERRES
   101   49  174 1    
   102   50   51 2    
   103   50   52 1    
   104   52   53 1    
   105   52   54 1    
   106   52  175 1    
   107   53  176 1    
   108   53  177 1    
   109   53  178 1    
   110   54   55 am   BACKBONE|DICT|INTERRES
   111   54  179 1    
   112   55   56 2    
   113   55   57 1    
   114   57   58 1    
   115   57   59 1    
   116   57  180 1    
   117   58  181 1    
   118   58  182 1    
   119   58  183 1    
   120   59   60 am   BACKBONE|DICT|INTERRES
   121   59  184 1    
   122   60   61 2    
   123   60   62 1    
   124   62   63 1    
   125   62   64 1    
   126   62  185 1    
   127   63  186 1    
   128   63  187 1    
   129   63  188 1    
   130   64   65 am   BACKBONE|DICT|INTERRES
   131   64  189 1    
   132   65   66 2    
   133   67   68 2    
   134   67   69 am   BACKBONE|DICT|INTERRES
   135   69   70 1    
   136   69  190 1    
   137   70   71 1    
   138   70   72 1    
   139   70  191 1    
   140   71  192 1    
   141   71  193 1    
   142   71  194 1    
   143   72   73 2    
   144   72   74 am   BACKBONE|DICT|INTERRES
   145   74   75 1    
   146   74  195 1    
   147   75   76 1    
   148   75   77 1    
   149   75  196 1    
   150   76  197 1    
   151   76  198 1    
   152   76  199 1    
   153   77   78 2    
   154   77   79 am   BACKBONE|DICT|INTERRES
   155   79   80 1    
   156   79  200 1    
   157   80   81 1    
   158   80   82 1    
   159   80  201 1    
   160   81  202 1    
   161   81  203 1    
   162   81  204 1    
   163   82   83 2    
   164   82   84 am   BACKBONE|DICT|INTERRES
   165   84   85 1    
   166   84  205 1    
   167   85   86 1    
   168   85   87 1    
   169   85  206 1    
   170   86  207 1    
   171   86  208 1    
   172   86  209 1    
   173   87   88 2    
   174   87   89 am   BACKBONE|DICT|INTERRES
   175   89   90 1    
   176   89  210 1    
   177   90   91 1    
   178   90   92 1    
   179   90  211 1    
   180   91  212 1    
   181   91  213 1    
   182   91  214 1    
   183   92   93 2    
   184   92   94 am   BACKBONE|DICT|INTERRES
   185   94   95 1    
   186   94  215 1    
   187   95   96 1    
   188   95   97 1    
   189   95  216 1    
   190   96  217 1    
   191   96  218 1    
   192   96  219 1    
   193   97   98 2    
   194   97   99 am   BACKBONE|DICT|INTERRES
   195   99  100 1    
   196   99  220 1    
   197  100  101 1    
   198  100  102 1    
   199  100  221 1    
   200  101  222 1    
   201  101  223 1    
   202  101  224 1    
   203  102  103 2    
   204  102  104 am   BACKBONE|DICT|INTERRES
   205  104  105 1    
   206  104  225 1    
   207  105  106 1    
   208  105  107 1    
   209  105  226 1    
   210  106  227 1    
   211  106  228 1    
   212  106  229 1    
   213  107  108 2    
   214  107  109 am   BACKBONE|DICT|INTERRES
   215  109  110 1    
   216  109  230 1    
   217  110  111 1    
   218  110  112 1    
   219  110  231 1    
   220  111  232 1    
   221  111  233 1    
   222  111  234 1    
   223  112  113 2    
   224  112  114 am   BACKBONE|DICT|INTERRES
   225  114  115 1    
   226  114  235 1    
   227  115  116 1    
   228  115  117 1    
   229  115  236 1    
   230  116  237 1    
   231  116  238 1    
   232  116  239 1    
   233  117  118 2    
   234  117  119 am   BACKBONE|DICT|INTERRES
   235  119  120 1    
   236  119  240 1    
   237  120  121 1    
   238  120  124 1    
   239  120  241 1    
   240  121  122 am   BACKBONE|DICT|INTERRES
   241  121  123 2    
   242  122  242 1    
   243  122  243 1    
   244  124  125 1    
   245  124  244 1    
   246  124  245 1    
   247  125  126 1    
   248  126  246 1    
   249  126  247 1    
@<TRIPOS>SUBSTRUCTURE
     1 UNK         1 GROUP             0       ****    0 ROOT    
