@<TRIPOS>MOLECULE
3R540
247   249    1
SMALL
USER_CHARGES


@<TRIPOS>ATOM
      1 CA          3.8430  -15.6036  -47.7636 C.3       0 UNK        -0.1800 
      2 C           2.8801  -14.6237  -47.1099 C.2       0 UNK         0.5000 
      3 O           2.6462  -14.7043  -45.9066 O.2       0 UNK        -0.5000 
      4 N           2.3329  -13.6829  -47.8883 N.am      1 UNK        -0.5000 
      5 CA          1.2882  -12.7253  -47.4915 C.3       1 UNK         0.1400 
      6 C6          0.4516  -12.2547  -48.7114 C.3       23 UNK        -0.0398 
      7 S7         -0.4980  -13.6258  -49.4467 S.3       23 UNK        -0.2404 
      8 C8          0.5265  -14.0682  -50.8832 C.3       23 UNK        -0.0205 
      9 C9          0.2101  -15.4860  -51.3231 C.ar      23 UNK        -0.0193 
     10 C10        -0.7125  -15.7263  -52.3446 C.ar      23 UNK        -0.1150 
     11 C11        -1.0475  -17.0363  -52.6980 C.ar      23 UNK        -0.0193 
     12 C12        -0.4578  -18.1069  -52.0194 C.ar      23 UNK        -0.1150 
     13 C13         0.4691  -17.8787  -50.9982 C.ar      23 UNK        -0.0193 
     14 C14         0.8129  -16.5637  -50.6696 C.ar      23 UNK        -0.1150 
     15 C15         1.0745  -19.0606  -50.2492 C.3       23 UNK        -0.0205 
     16 S16         1.1211  -18.8447  -48.4357 S.3       23 UNK        -0.2404 
     17 C17        -0.6323  -18.5447  -48.0252 C.3       23 UNK        -0.0398 
     18 CA         -1.3971  -19.8304  -47.6339 C.3       11 UNK         0.1400 
     19 N          -0.7827  -20.5325  -46.5076 N.am      11 UNK        -0.5000 
     20 C          -0.9628  -21.8213  -46.1982 C.2       10 UNK         0.5000 
     21 O          -1.6142  -22.6032  -46.8956 O.2       10 UNK        -0.5000 
     22 CA         -0.3422  -22.2916  -44.8654 C.3       10 UNK         0.1400 
     23 CB         -0.0513  -23.8048  -44.8349 C.3       10 UNK        -0.1800 
     24 N           0.8347  -21.5092  -44.4698 N.am      10 UNK        -0.5000 
     25 C           2.0335  -21.4657  -45.0725 C.2       9 UNK         0.5000 
     26 O           2.3359  -22.1449  -46.0522 O.2       9 UNK        -0.5000 
     27 CA          3.0770  -20.4891  -44.4933 C.3       9 UNK         0.1400 
     28 CB          3.2562  -19.2840  -45.4307 C.3       9 UNK        -0.1800 
     29 N           2.7364  -19.9944  -43.1589 N.am      9 UNK        -0.5000 
     30 C           2.8131  -20.7029  -42.0249 C.2       8 UNK         0.5000 
     31 O           3.2343  -21.8582  -41.9643 O.2       8 UNK        -0.5000 
     32 CA          2.2940  -20.0100  -40.7511 C.3       8 UNK         0.1400 
     33 CB          3.3744  -19.1033  -40.1414 C.3       8 UNK        -0.1800 
     34 N           1.0802  -19.2256  -40.9934 N.am      8 UNK        -0.5000 
     35 C          -0.1172  -19.7467  -41.2980 C.2       7 UNK         0.5000 
     36 O          -0.3331  -20.9536  -41.4026 O.2       7 UNK        -0.5000 
     37 CA         -1.2548  -18.7498  -41.5735 C.3       7 UNK         0.1400 
     38 CB         -1.8845  -18.2545  -40.2635 C.3       7 UNK        -0.1800 
     39 N          -0.7906  -17.6076  -42.3591 N.am      7 UNK        -0.5000 
     40 C          -0.5526  -17.6551  -43.6777 C.2       6 UNK         0.5000 
     41 O          -0.7868  -18.6423  -44.3756 O.2       6 UNK        -0.5000 
     42 CA          0.0611  -16.4042  -44.3328 C.3       6 UNK         0.1400 
     43 CB         -1.0461  -15.5105  -44.9079 C.3       6 UNK        -0.1800 
     44 N           0.8932  -15.6217  -43.4187 N.am      6 UNK        -0.5000 
     45 C           2.0205  -16.0720  -42.8460 C.2       5 UNK         0.5000 
     46 O           2.4783  -17.1961  -43.0422 O.2       5 UNK        -0.5000 
     47 CA          2.7318  -15.1486  -41.8388 C.3       5 UNK         0.1400 
     48 CB          3.9046  -14.4377  -42.5231 C.3       5 UNK        -0.1800 
     49 N           1.8493  -14.1555  -41.2220 N.am      5 UNK        -0.5000 
     50 C           0.7612  -14.4465  -40.4920 C.2       4 UNK         0.5000 
     51 O           0.4180  -15.5985  -40.2200 O.2       4 UNK        -0.5000 
     52 CA         -0.1215  -13.2714  -40.0258 C.3       4 UNK         0.1400 
     53 CB          0.1144  -12.9844  -38.5354 C.3       4 UNK        -0.1800 
     54 N           0.0612  -12.0288  -40.7823 N.am      4 UNK        -0.5000 
     55 C          -0.1543  -11.8636  -42.0952 C.2       3 UNK         0.5000 
     56 O          -0.5125  -12.7726  -42.8471 O.2       3 UNK        -0.5000 
     57 CA          0.0986  -10.4575  -42.6811 C.3       3 UNK         0.1400 
     58 CB          0.3695   -9.3641  -41.6224 C.3       3 UNK        -0.1800 
     59 N           1.1702  -10.4749  -43.6802 N.am      3 UNK        -0.5000 
     60 C           2.4344  -10.8890  -43.5124 C.2       2 UNK         0.5000 
     61 O           2.8833  -11.3128  -42.4452 O.2       2 UNK        -0.5000 
     62 CA          3.3168  -10.8592  -44.7766 C.3       2 UNK         0.1400 
     63 CB          4.7963  -11.1798  -44.4977 C.3       2 UNK        -0.1800 
     64 N           2.7973  -11.8018  -45.7670 N.am      2 UNK        -0.5000 
     65 C           1.8196  -11.5431  -46.6434 C.2       1 UNK         0.5000 
     66 O           1.3176  -10.4234  -46.7609 O.2       1 UNK        -0.5000 
     67 C          -2.8616  -19.4974  -47.3012 C.2       11 UNK         0.5000 
     68 O          -3.7379  -19.7072  -48.1382 O.2       11 UNK        -0.5000 
     69 N          -3.1092  -19.0442  -46.0618 N.am      12 UNK        -0.5000 
     70 CA         -4.4447  -18.7480  -45.5320 C.3       12 UNK         0.1400 
     71 CB         -4.3064  -17.9665  -44.2172 C.3       12 UNK        -0.1800 
     72 C          -5.2978  -20.0154  -45.3248 C.2       12 UNK         0.5000 
     73 O          -6.5244  -19.9464  -45.3972 O.2       12 UNK        -0.5000 
     74 N          -4.6251  -21.1546  -45.1102 N.am      13 UNK        -0.5000 
     75 CA         -5.2178  -22.4926  -45.0581 C.3       13 UNK         0.1400 
     76 CB         -4.2627  -23.4156  -44.2835 C.3       13 UNK        -0.1800 
     77 C          -5.5098  -23.0762  -46.4580 C.2       13 UNK         0.5000 
     78 O          -6.1292  -24.1359  -46.5474 O.2       13 UNK        -0.5000 
     79 N          -5.0325  -22.3977  -47.5136 N.am      14 UNK        -0.5000 
     80 CA         -5.1134  -22.7355  -48.9385 C.3       14 UNK         0.1400 
     81 CB         -6.5757  -22.8559  -49.4119 C.3       14 UNK        -0.1800 
     82 C          -4.2670  -23.9528  -49.3621 C.2       14 UNK         0.5000 
     83 O          -4.3152  -24.3330  -50.5322 O.2       14 UNK        -0.5000 
     84 N          -3.4745  -24.5193  -48.4428 N.am      15 UNK        -0.5000 
     85 CA         -2.6086  -25.6721  -48.6861 C.3       15 UNK         0.1400 
     86 CB         -2.1388  -26.2547  -47.3460 C.3       15 UNK        -0.1800 
     87 C          -1.4130  -25.3045  -49.5776 C.2       15 UNK         0.5000 
     88 O          -1.1385  -26.0064  -50.5508 O.2       15 UNK        -0.5000 
     89 N          -0.7675  -24.1689  -49.2763 N.am      16 UNK        -0.5000 
     90 CA          0.3201  -23.6078  -50.0852 C.3       16 UNK         0.1400 
     91 CB          1.1263  -22.6186  -49.2365 C.3       16 UNK        -0.1800 
     92 C          -0.1767  -22.9565  -51.3928 C.2       16 UNK         0.5000 
     93 O           0.6182  -22.7509  -52.3090 O.2       16 UNK        -0.5000 
     94 N          -1.4867  -22.6848  -51.4705 N.am      17 UNK        -0.5000 
     95 CA         -2.2000  -22.2706  -52.6802 C.3       17 UNK         0.1400 
     96 CB         -3.3585  -21.3484  -52.2725 C.3       17 UNK        -0.1800 
     97 C          -2.7148  -23.4746  -53.5024 C.2       17 UNK         0.5000 
     98 O          -3.4311  -23.2683  -54.4861 O.2       17 UNK        -0.5000 
     99 N          -2.3703  -24.7028  -53.0782 N.am      18 UNK        -0.5000 
    100 CA        -2.6764  -25.9996  -53.6950 C.3       18 UNK         0.1400 
    101 CB        -1.9583  -26.1198  -55.0554 C.3       18 UNK        -0.1800 
    102 C         -4.1836  -26.3155  -53.8023 C.2       18 UNK         0.5000 
    103 O         -4.5717  -27.1416  -54.6302 O.2       18 UNK        -0.5000 
    104 N         -5.0073  -25.6350  -52.9888 N.am      19 UNK        -0.5000 
    105 CA        -6.4743  -25.6059  -53.0247 C.3       19 UNK         0.1400 
    106 CB        -7.0544  -26.9540  -52.5513 C.3       19 UNK        -0.1800 
    107 C         -7.0448  -25.1500  -54.3898 C.2       19 UNK         0.5000 
    108 O         -8.1638  -25.5247  -54.7448 O.2       19 UNK        -0.5000 
    109 N         -6.2617  -24.3554  -55.1320 N.am      20 UNK        -0.5000 
    110 CA        -6.5255  -23.9388  -56.5090 C.3       20 UNK         0.1400 
    111 CB        -5.5403  -24.6717  -57.4382 C.3       20 UNK        -0.1800 
    112 C         -6.4286  -22.4091  -56.6396 C.2       20 UNK         0.5000 
    113 O         -5.9809  -21.9041  -57.6705 O.2       20 UNK        -0.5000 
    114 N         -6.8175  -21.6981  -55.5712 N.am      21 UNK        -0.5000 
    115 CA        -6.7870  -20.2437  -55.3610 C.3       21 UNK         0.1400 
    116 CB        -7.6117  -19.4904  -56.4225 C.3       21 UNK        -0.1800 
    117 C         -5.3683  -19.6567  -55.2303 C.2       21 UNK         0.5000 
    118 O         -5.1379  -18.8534  -54.3270 O.2       21 UNK        -0.5000 
    119 N         -4.4446  -20.0826  -56.0968 N.am      22 UNK        -0.5000 
    120 CA        -3.0142  -19.7608  -56.0800 C.3       22 UNK         0.1400 
    121 C         -2.2248  -20.7382  -56.9951 C.2       22 UNK         0.5000 
    122 N         -2.3988  -22.0432  -56.8303 N.am      22 UNK        -0.7600 
    123 O         -1.4680  -20.3320  -57.8729 O.2       22 UNK        -0.5000 
    124 C124       -2.7157  -18.2511  -56.3293 C.3       23 UNK        -0.0398 
    125 S125       -1.2678  -17.6865  -55.3751 S.3       23 UNK        -0.2404 
    126 C126       -2.0702  -17.3025  -53.7882 C.3       23 UNK        -0.0205 
    127 H127        3.4819  -16.6238  -47.6312 H         1 UNK         0.0600 
    128 H128        3.9490  -15.4168  -48.8325 H         1 UNK         0.0600 
    129 H129        4.8275  -15.5268  -47.3025 H         1 UNK         0.0600 
    130 H130        2.6151  -13.6316  -48.8553 H         1 UNK         0.3000 
    131 H131        0.6026  -13.2517  -46.8256 H         1 UNK         0.0600 
    132 H132        1.0839  -11.7814  -49.4642 H         1 UNK         0.0800 
    133 H133       -0.2822  -11.5032  -48.4152 H         1 UNK         0.0800 
    134 H134        1.5854  -13.9929  -50.6354 H         1 UNK         0.0800 
    135 H135        0.3450  -13.3602  -51.6934 H         1 UNK         0.0800 
    136 H136       -1.1830  -14.8949  -52.8507 H         1 UNK         0.1150 
    137 H137       -0.7281  -19.1193  -52.2860 H         1 UNK         0.1150 
    138 H138        1.5212  -16.3762  -49.8750 H         1 UNK         0.1150 
    139 H139        0.5211  -19.9728  -50.4738 H         1 UNK         0.0800 
    140 H140        2.0913  -19.2198  -50.6097 H         1 UNK         0.0800 
    141 H141       -1.1262  -18.0480  -48.8613 H         1 UNK         0.0800 
    142 H142       -0.6493  -17.8264  -47.2042 H         1 UNK         0.0800 
    143 H143       -1.4037  -20.4959  -48.4995 H         1 UNK         0.0600 
    144 H144       -0.2865  -19.9517  -45.8417 H         1 UNK         0.3000 
    145 H145       -1.0936  -22.0914  -44.1005 H         1 UNK         0.0600 
    146 H146        0.4673  -24.0892  -43.9194 H         1 UNK         0.0600 
    147 H147       -0.9779  -24.3768  -44.8680 H         1 UNK         0.0600 
    148 H148        0.5607  -24.1192  -45.6810 H         1 UNK         0.0600 
    149 H149        0.7044  -20.9143  -43.6632 H         1 UNK         0.3000 
    150 H150        4.0281  -21.0218  -44.4327 H         1 UNK         0.0600 
    151 H151        3.5410  -19.6039  -46.4338 H         1 UNK         0.0600 
    152 H152        4.0365  -18.6139  -45.0696 H         1 UNK         0.0600 
    153 H153        2.3358  -18.7056  -45.5196 H         1 UNK         0.0600 
    154 H154        2.4583  -19.0162  -43.1014 H         1 UNK         0.3000 
    155 H155        2.0533  -20.7878  -40.0232 H         1 UNK         0.0600 
    156 H156        3.6648  -18.3038  -40.8233 H         1 UNK         0.0600 
    157 H157        4.2733  -19.6745  -39.9061 H         1 UNK         0.0600 
    158 H158        3.0288  -18.6451  -39.2146 H         1 UNK         0.0600 
    159 H159        1.1733  -18.2209  -40.9562 H         1 UNK         0.3000 
    160 H160       -2.0254  -19.2779  -42.1377 H         1 UNK         0.0600 
    161 H161       -2.7144  -17.5751  -40.4584 H         1 UNK         0.0600 
    162 H162       -1.1614  -17.7300  -39.6382 H         1 UNK         0.0600 
    163 H163       -2.2769  -19.0889  -39.6809 H         1 UNK         0.0600 
    164 H164       -0.5465  -16.7697  -41.8454 H         1 UNK         0.3000 
    165 H165        0.6954  -16.7391  -45.1562 H         1 UNK         0.0600 
    166 H166       -0.6263  -14.6484  -45.4241 H         1 UNK         0.0600 
    167 H167       -1.6575  -16.0548  -45.6287 H         1 UNK         0.0600 
    168 H168       -1.7094  -15.1390  -44.1256 H         1 UNK         0.0600 
    169 H169        0.5769  -14.6833  -43.2054 H         1 UNK         0.3000 
    170 H170        3.1296  -15.7760  -41.0389 H         1 UNK         0.0600 
    171 H171        4.6312  -15.1577  -42.9015 H         1 UNK         0.0600 
    172 H172        3.5576  -13.8494  -43.3718 H         1 UNK         0.0600 
    173 H173        4.4276  -13.7717  -41.8366 H         1 UNK         0.0600 
    174 H174        2.0559  -13.1837  -41.4197 H         1 UNK         0.3000 
    175 H175       -1.1600  -13.5829  -40.1539 H         1 UNK         0.0600 
    176 H176       -0.5726  -12.2230  -38.1657 H         1 UNK         0.0600 
    177 H177       -0.0435  -13.8809  -37.9340 H         1 UNK         0.0600 
    178 H178        1.1322  -12.6393  -38.3493 H         1 UNK         0.0600 
    179 H179        0.3870  -11.2317  -40.2550 H         1 UNK         0.3000 
    180 H180       -0.8146  -10.1833  -43.2111 H         1 UNK         0.0600 
    181 H181        1.2847   -9.5490  -41.0588 H         1 UNK         0.0600 
    182 H182       -0.4541   -9.2901  -40.9111 H         1 UNK         0.0600 
    183 H183        0.4693   -8.3864  -42.0941 H         1 UNK         0.0600 
    184 H184        0.8984  -10.2006  -44.6169 H         1 UNK         0.3000 
    185 H185        3.2761   -9.8442  -45.1774 H         1 UNK         0.0600 
    186 H186        4.9373  -12.1964  -44.1340 H         1 UNK         0.0600 
    187 H187        5.3965  -11.0658  -45.4004 H         1 UNK         0.0600 
    188 H188        5.2075  -10.5026  -43.7481 H         1 UNK         0.0600 
    189 H189        3.0845  -12.7705  -45.6729 H         1 UNK         0.3000 
    190 H190       -2.3262  -18.9175  -45.4256 H         1 UNK         0.3000 
    191 H191       -4.9638  -18.1140  -46.2540 H         1 UNK         0.0600 
    192 H192       -3.7377  -17.0477  -44.3595 H         1 UNK         0.0600 
    193 H193       -3.8068  -18.5567  -43.4500 H         1 UNK         0.0600 
    194 H194       -5.2851  -17.6845  -43.8268 H         1 UNK         0.0600 
    195 H195       -3.6197  -21.1044  -45.0584 H         1 UNK         0.3000 
    196 H196       -6.1643  -22.4413  -44.5160 H         1 UNK         0.0600 
    197 H197       -4.6966  -24.4081  -44.1551 H         1 UNK         0.0600 
    198 H198       -4.0529  -23.0239  -43.2879 H         1 UNK         0.0600 
    199 H199       -3.3133  -23.5404  -44.8039 H         1 UNK         0.0600 
    200 H200       -4.5460  -21.5298  -47.3276 H         1 UNK         0.3000 
    201 H201       -4.6779  -21.8813  -49.4562 H         1 UNK         0.0600 
    202 H202       -7.1593  -21.9845  -49.1149 H         1 UNK         0.0600 
    203 H203       -7.0634  -23.7427  -49.0069 H         1 UNK         0.0600 
    204 H204       -6.6293  -22.9248  -50.4990 H         1 UNK         0.0600 
    205 H205       -3.4292  -24.1000  -47.5251 H         1 UNK         0.3000 
    206 H206       -3.1934  -26.4359  -49.2033 H         1 UNK         0.0600 
    207 H207       -2.9848  -26.5396  -46.7204 H         1 UNK         0.0600 
    208 H208       -1.5316  -27.1474  -47.5007 H         1 UNK         0.0600 
    209 H209       -1.5344  -25.5401  -46.7891 H         1 UNK         0.0600 
    210 H210       -1.0596  -23.6396  -48.4587 H         1 UNK         0.3000 
    211 H211        0.9917  -24.4204  -50.3704 H         1 UNK         0.0600 
    212 H212        0.5042  -21.8110  -48.8576 H         1 UNK         0.0600 
    213 H213        1.9374  -22.1701  -49.8113 H         1 UNK         0.0600 
    214 H214        1.5756  -23.1218  -48.3812 H         1 UNK         0.0600 
    215 H215       -2.0596  -22.9107  -50.6713 H         1 UNK         0.3000 
    216 H216       -1.5253  -21.7021  -53.3235 H         1 UNK         0.0600 
    217 H217       -3.8337  -20.9158  -53.1499 H         1 UNK         0.0600 
    218 H218       -3.0143  -20.5217  -51.6505 H         1 UNK         0.0600 
    219 H219       -4.1319  -21.8871  -51.7275 H         1 UNK         0.0600 
    220 H220       -1.8262  -24.7699  -52.2277 H         1 UNK         0.3000 
    221 H221       -2.2582  -26.7570  -53.0310 H         1 UNK         0.0600 
    222 H222       -2.3794  -25.4389  -55.7958 H         1 UNK         0.0600 
    223 H223       -0.8953  -25.8976  -54.9612 H         1 UNK         0.0600 
    224 H224       -2.0413  -27.1304  -55.4567 H         1 UNK         0.0600 
    225 H225       -4.5865  -25.0330  -52.2848 H         1 UNK         0.3000 
    226 H226       -6.7771  -24.8461  -52.3032 H         1 UNK         0.0600 
    227 H227       -6.6415  -27.2409  -51.5841 H         1 UNK         0.0600 
    228 H228       -6.8428  -27.7564  -53.2585 H         1 UNK         0.0600 
    229 H229       -8.1372  -26.8965  -52.4357 H         1 UNK         0.0600 
    230 H230       -5.3578  -24.0803  -54.7605 H         1 UNK         0.3000 
    231 H231       -7.5406  -24.2092  -56.8053 H         1 UNK         0.0600 
    232 H232       -5.6259  -25.7529  -57.3268 H         1 UNK         0.0600 
    233 H233       -4.5073  -24.3960  -57.2221 H         1 UNK         0.0600 
    234 H234       -5.7344  -24.4375  -58.4855 H         1 UNK         0.0600 
    235 H235       -7.1334  -22.2323  -54.7741 H         1 UNK         0.3000 
    236 H236       -7.2772  -20.0816  -54.3997 H         1 UNK         0.0600 
    237 H237       -7.6803  -18.4300  -56.1769 H         1 UNK         0.0600 
    238 H238       -7.1685  -19.5630  -57.4158 H         1 UNK         0.0600 
    239 H239       -8.6290  -19.8774  -56.4791 H         1 UNK         0.0600 
    240 H240       -4.7362  -20.7480  -56.8090 H         1 UNK         0.3000 
    241 H241       -2.6775  -20.0042  -55.0715 H         1 UNK         0.0600 
    242 H242       -1.9008  -22.6782  -57.4328 H         1 UNK         0.3800 
    243 H243       -2.9597  -22.4162  -56.0687 H         1 UNK         0.3800 
    244 H244       -2.5559  -18.0419  -57.3879 H         1 UNK         0.0800 
    245 H245       -3.5611  -17.6239  -56.0466 H         1 UNK         0.0800 
    246 H246       -2.7045  -18.1360  -53.4840 H         1 UNK         0.0800 
    247 H247       -2.7316  -16.4437  -53.9133 H         1 UNK         0.0800 
@<TRIPOS>BOND
     1    1    2 1    
     2    1  127 1    
     3    1  128 1    
     4    1  129 1    
     5    2    3 2    
     6    2    4 am   BACKBONE|DICT|INTERRES
     7    4    5 1    
     8    4  130 1    
     9    5    6 1    
    10    5   65 1    
    11    5  131 1    
    12    6    7 1    
    13    6  132 1    
    14    6  133 1    
    15    7    8 1    
    16    8    9 1    
    17    8  134 1    
    18    8  135 1    
    19    9   10 ar   
    20    9   14 ar   
    21   10   11 ar   
    22   10  136 1    
    23   11   12 ar   
    24   11  126 1    
    25   12   13 ar   
    26   12  137 1    
    27   13   14 ar   
    28   13   15 1    
    29   14  138 1    
    30   15   16 1    
    31   15  139 1    
    32   15  140 1    
    33   16   17 1    
    34   17   18 1    
    35   17  141 1    
    36   17  142 1    
    37   18   19 1    
    38   18   67 1    
    39   18  143 1    
    40   19   20 am   BACKBONE|DICT|INTERRES
    41   19  144 1    
    42   20   21 2    
    43   20   22 1    
    44   22   23 1    
    45   22   24 1    
    46   22  145 1    
    47   23  146 1    
    48   23  147 1    
    49   23  148 1    
    50   24   25 am   BACKBONE|DICT|INTERRES
    51   24  149 1    
    52   25   26 2    
    53   25   27 1    
    54   27   28 1    
    55   27   29 1    
    56   27  150 1    
    57   28  151 1    
    58   28  152 1    
    59   28  153 1    
    60   29   30 am   BACKBONE|DICT|INTERRES
    61   29  154 1    
    62   30   31 2    
    63   30   32 1    
    64   32   33 1    
    65   32   34 1    
    66   32  155 1    
    67   33  156 1    
    68   33  157 1    
    69   33  158 1    
    70   34   35 am   BACKBONE|DICT|INTERRES
    71   34  159 1    
    72   35   36 2    
    73   35   37 1    
    74   37   38 1    
    75   37   39 1    
    76   37  160 1    
    77   38  161 1    
    78   38  162 1    
    79   38  163 1    
    80   39   40 am   BACKBONE|DICT|INTERRES
    81   39  164 1    
    82   40   41 2    
    83   40   42 1    
    84   42   43 1    
    85   42   44 1    
    86   42  165 1    
    87   43  166 1    
    88   43  167 1    
    89   43  168 1    
    90   44   45 am   BACKBONE|DICT|INTERRES
    91   44  169 1    
    92   45   46 2    
    93   45   47 1    
    94   47   48 1    
    95   47   49 1    
    96   47  170 1    
    97   48  171 1    
    98   48  172 1    
    99   48  173 1    
   100   49   50 am   BACKBONE|DICT|INTERRES
   101   49  174 1    
   102   50   51 2    
   103   50   52 1    
   104   52   53 1    
   105   52   54 1    
   106   52  175 1    
   107   53  176 1    
   108   53  177 1    
   109   53  178 1    
   110   54   55 am   BACKBONE|DICT|INTERRES
   111   54  179 1    
   112   55   56 2    
   113   55   57 1    
   114   57   58 1    
   115   57   59 1    
   116   57  180 1    
   117   58  181 1    
   118   58  182 1    
   119   58  183 1    
   120   59   60 am   BACKBONE|DICT|INTERRES
   121   59  184 1    
   122   60   61 2    
   123   60   62 1    
   124   62   63 1    
   125   62   64 1    
   126   62  185 1    
   127   63  186 1    
   128   63  187 1    
   129   63  188 1    
   130   64   65 am   BACKBONE|DICT|INTERRES
   131   64  189 1    
   132   65   66 2    
   133   67   68 2    
   134   67   69 am   BACKBONE|DICT|INTERRES
   135   69   70 1    
   136   69  190 1    
   137   70   71 1    
   138   70   72 1    
   139   70  191 1    
   140   71  192 1    
   141   71  193 1    
   142   71  194 1    
   143   72   73 2    
   144   72   74 am   BACKBONE|DICT|INTERRES
   145   74   75 1    
   146   74  195 1    
   147   75   76 1    
   148   75   77 1    
   149   75  196 1    
   150   76  197 1    
   151   76  198 1    
   152   76  199 1    
   153   77   78 2    
   154   77   79 am   BACKBONE|DICT|INTERRES
   155   79   80 1    
   156   79  200 1    
   157   80   81 1    
   158   80   82 1    
   159   80  201 1    
   160   81  202 1    
   161   81  203 1    
   162   81  204 1    
   163   82   83 2    
   164   82   84 am   BACKBONE|DICT|INTERRES
   165   84   85 1    
   166   84  205 1    
   167   85   86 1    
   168   85   87 1    
   169   85  206 1    
   170   86  207 1    
   171   86  208 1    
   172   86  209 1    
   173   87   88 2    
   174   87   89 am   BACKBONE|DICT|INTERRES
   175   89   90 1    
   176   89  210 1    
   177   90   91 1    
   178   90   92 1    
   179   90  211 1    
   180   91  212 1    
   181   91  213 1    
   182   91  214 1    
   183   92   93 2    
   184   92   94 am   BACKBONE|DICT|INTERRES
   185   94   95 1    
   186   94  215 1    
   187   95   96 1    
   188   95   97 1    
   189   95  216 1    
   190   96  217 1    
   191   96  218 1    
   192   96  219 1    
   193   97   98 2    
   194   97   99 am   BACKBONE|DICT|INTERRES
   195   99  100 1    
   196   99  220 1    
   197  100  101 1    
   198  100  102 1    
   199  100  221 1    
   200  101  222 1    
   201  101  223 1    
   202  101  224 1    
   203  102  103 2    
   204  102  104 am   BACKBONE|DICT|INTERRES
   205  104  105 1    
   206  104  225 1    
   207  105  106 1    
   208  105  107 1    
   209  105  226 1    
   210  106  227 1    
   211  106  228 1    
   212  106  229 1    
   213  107  108 2    
   214  107  109 am   BACKBONE|DICT|INTERRES
   215  109  110 1    
   216  109  230 1    
   217  110  111 1    
   218  110  112 1    
   219  110  231 1    
   220  111  232 1    
   221  111  233 1    
   222  111  234 1    
   223  112  113 2    
   224  112  114 am   BACKBONE|DICT|INTERRES
   225  114  115 1    
   226  114  235 1    
   227  115  116 1    
   228  115  117 1    
   229  115  236 1    
   230  116  237 1    
   231  116  238 1    
   232  116  239 1    
   233  117  118 2    
   234  117  119 am   BACKBONE|DICT|INTERRES
   235  119  120 1    
   236  119  240 1    
   237  120  121 1    
   238  120  124 1    
   239  120  241 1    
   240  121  122 am   BACKBONE|DICT|INTERRES
   241  121  123 2    
   242  122  242 1    
   243  122  243 1    
   244  124  125 1    
   245  124  244 1    
   246  124  245 1    
   247  125  126 1    
   248  126  246 1    
   249  126  247 1    
@<TRIPOS>SUBSTRUCTURE
     1 UNK         1 GROUP             0       ****    0 ROOT    
