@<TRIPOS>MOLECULE
3R540
247   249    1
SMALL
USER_CHARGES


@<TRIPOS>ATOM
      1 CA         -6.0229  -16.5015  -47.9029 C.3       0 UNK        -0.1800 
      2 C          -5.1638  -15.2993  -47.5349 C.2       0 UNK         0.5000 
      3 O          -5.6841  -14.1936  -47.3848 O.2       0 UNK        -0.5000 
      4 N          -3.8525  -15.5160  -47.3875 N.am      1 UNK        -0.5000 
      5 CA         -2.8855  -14.5224  -46.9128 C.3       1 UNK         0.1400 
      6 C6         -1.4481  -14.8325  -47.4111 C.3       23 UNK        -0.0398 
      7 S7         -1.1904  -14.3769  -49.1623 S.3       23 UNK        -0.2404 
      8 C8         -1.8312  -15.8354  -50.0394 C.3       23 UNK        -0.0205 
      9 C9         -0.7476  -16.7115  -50.6506 C.ar      23 UNK        -0.0193 
     10 C10        -0.6833  -16.8742  -52.0373 C.ar      23 UNK        -0.1150 
     11 C11         0.2314  -17.7620  -52.6113 C.ar      23 UNK        -0.0193 
     12 C12         1.0874  -18.4931  -51.7807 C.ar      23 UNK        -0.1150 
     13 C13         1.0483  -18.3263  -50.3944 C.ar      23 UNK        -0.0193 
     14 C14         0.1343  -17.4262  -49.8357 C.ar      23 UNK        -0.1150 
     15 C15         1.9683  -19.1484  -49.5014 C.3       23 UNK        -0.0205 
     16 S16         1.3067  -20.8206  -49.2003 S.3       23 UNK        -0.2404 
     17 C17        -0.3154  -20.4069  -48.4870 C.3       23 UNK        -0.0398 
     18 CA         -0.9052  -21.5137  -47.5899 C.3       11 UNK         0.1400 
     19 N          -0.1898  -21.6626  -46.3178 N.am      11 UNK        -0.5000 
     20 C          -0.4463  -22.6224  -45.4172 C.2       10 UNK         0.5000 
     21 O          -1.2924  -23.4995  -45.5801 O.2       10 UNK        -0.5000 
     22 CA          0.3239  -22.5721  -44.0881 C.3       10 UNK         0.1400 
     23 CB          1.7324  -23.1619  -44.2498 C.3       10 UNK        -0.1800 
     24 N           0.3992  -21.2242  -43.5242 N.am      10 UNK        -0.5000 
     25 C          -0.6611  -20.4979  -43.1398 C.2       9 UNK         0.5000 
     26 O          -1.8233  -20.8979  -43.2075 O.2       9 UNK        -0.5000 
     27 CA         -0.3810  -19.0707  -42.6324 C.3       9 UNK         0.1400 
     28 CB          0.1512  -19.0993  -41.1914 C.3       9 UNK        -0.1800 
     29 N           0.5616  -18.3502  -43.4866 N.am      9 UNK        -0.5000 
     30 C           0.3448  -18.0458  -44.7748 C.2       8 UNK         0.5000 
     31 O          -0.7013  -18.2870  -45.3798 O.2       8 UNK        -0.5000 
     32 CA          1.5345  -17.4331  -45.5335 C.3       8 UNK         0.1400 
     33 CB          1.6752  -15.9337  -45.2391 C.3       8 UNK        -0.1800 
     34 N           2.7945  -18.1114  -45.2271 N.am      8 UNK        -0.5000 
     35 C           3.0584  -19.3908  -45.5275 C.2       7 UNK         0.5000 
     36 O           2.2687  -20.1321  -46.1083 O.2       7 UNK        -0.5000 
     37 CA          4.4136  -19.9451  -45.0558 C.3       7 UNK         0.1400 
     38 CB          5.5391  -19.5087  -46.0056 C.3       7 UNK        -0.1800 
     39 N           4.7373  -19.5322  -43.6897 N.am      7 UNK        -0.5000 
     40 C           4.0492  -19.9090  -42.6022 C.2       6 UNK         0.5000 
     41 O           3.0909  -20.6786  -42.6319 O.2       6 UNK        -0.5000 
     42 CA          4.4709  -19.2803  -41.2624 C.3       6 UNK         0.1400 
     43 CB          5.5922  -20.1009  -40.6082 C.3       6 UNK        -0.1800 
     44 N           4.8995  -17.8856  -41.3950 N.am      6 UNK        -0.5000 
     45 C           4.1062  -16.8870  -41.8012 C.2       5 UNK         0.5000 
     46 O           2.9216  -17.0344  -42.1218 O.2       5 UNK        -0.5000 
     47 CA          4.7577  -15.5031  -41.9068 C.3       5 UNK         0.1400 
     48 CB          5.4591  -15.3309  -43.2643 C.3       5 UNK        -0.1800 
     49 N           3.7075  -14.5060  -41.7756 N.am      5 UNK        -0.5000 
     50 C           3.7987  -13.3338  -41.1393 C.2       4 UNK         0.5000 
     51 O           4.8429  -12.8956  -40.6548 O.2       4 UNK        -0.5000 
     52 CA          2.4978  -12.5159  -41.0142 C.3       4 UNK         0.1400 
     53 CB          2.4775  -11.3732  -42.0410 C.3       4 UNK        -0.1800 
     54 N           1.3018  -13.3376  -41.2065 N.am      4 UNK        -0.5000 
     55 C           0.7872  -14.1914  -40.3141 C.2       3 UNK         0.5000 
     56 O           1.2249  -14.3139  -39.1690 O.2       3 UNK        -0.5000 
     57 CA         -0.4068  -15.0509  -40.7930 C.3       3 UNK         0.1400 
     58 CB         -1.0938  -15.8083  -39.6421 C.3       3 UNK        -0.1800 
     59 N          -1.4239  -14.2886  -41.5252 N.am      3 UNK        -0.5000 
     60 C          -1.3119  -13.8448  -42.7824 C.2       2 UNK         0.5000 
     61 O          -0.2890  -13.9701  -43.4598 O.2       2 UNK        -0.5000 
     62 CA         -2.5213  -13.0893  -43.3609 C.3       2 UNK         0.1400 
     63 CB         -2.3921  -11.5840  -43.0817 C.3       2 UNK        -0.1800 
     64 N          -2.6390  -13.2971  -44.8045 N.am      2 UNK        -0.5000 
     65 C          -2.9354  -14.4727  -45.3724 C.2       1 UNK         0.5000 
     66 O          -3.2230  -15.4861  -44.7300 O.2       1 UNK        -0.5000 
     67 C          -2.4094  -21.2452  -47.3944 C.2       11 UNK         0.5000 
     68 O          -3.2155  -21.7644  -48.1680 O.2       11 UNK        -0.5000 
     69 N          -2.7635  -20.4429  -46.3815 N.am      12 UNK        -0.5000 
     70 CA         -4.1506  -20.1694  -46.0128 C.3       12 UNK         0.1400 
     71 CB         -4.2055  -18.9695  -45.0564 C.3       12 UNK        -0.1800 
     72 C          -4.8391  -21.4065  -45.4082 C.2       12 UNK         0.5000 
     73 O          -5.9636  -21.7214  -45.7973 O.2       12 UNK        -0.5000 
     74 N          -4.1404  -22.1039  -44.5010 N.am      13 UNK        -0.5000 
     75 CA         -4.6117  -23.3188  -43.8322 C.3       13 UNK         0.1400 
     76 CB         -3.6427  -23.6846  -42.6976 C.3       13 UNK        -0.1800 
     77 C          -4.8006  -24.5098  -44.7908 C.2       13 UNK         0.5000 
     78 O          -5.8049  -25.2157  -44.6923 O.2       13 UNK        -0.5000 
     79 N          -3.8452  -24.7014  -45.7102 N.am      14 UNK        -0.5000 
     80 CA         -3.8655  -25.7514  -46.7324 C.3       14 UNK         0.1400 
     81 CB         -2.4318  -25.9751  -47.2407 C.3       14 UNK        -0.1800 
     82 C          -4.8003  -25.4375  -47.9169 C.2       14 UNK         0.5000 
     83 O          -5.0559  -26.3275  -48.7284 O.2       14 UNK        -0.5000 
     84 N          -5.2582  -24.1803  -48.0139 N.am      15 UNK        -0.5000 
     85 CA         -6.0643  -23.5962  -49.0914 C.3       15 UNK         0.1400 
     86 CB         -7.4242  -24.3093  -49.2366 C.3       15 UNK        -0.1800 
     87 C          -5.3081  -23.4720  -50.4316 C.2       15 UNK         0.5000 
     88 O          -5.9350  -23.2640  -51.4703 O.2       15 UNK        -0.5000 
     89 N          -3.9695  -23.5255  -50.3845 N.am      16 UNK        -0.5000 
     90 CA         -3.0683  -23.2669  -51.5099 C.3       16 UNK         0.1400 
     91 CB         -1.6344  -23.6285  -51.0975 C.3       16 UNK        -0.1800 
     92 C          -3.1419  -21.8041  -51.9867 C.2       16 UNK         0.5000 
     93 O          -2.9770  -21.5375  -53.1781 O.2       16 UNK        -0.5000 
     94 N          -3.4382  -20.8943  -51.0473 N.am      17 UNK        -0.5000 
     95 CA         -3.7411  -19.4884  -51.3006 C.3       17 UNK         0.1400 
     96 CB         -3.8929  -18.7661  -49.9541 C.3       17 UNK        -0.1800 
     97 C          -5.0167  -19.3103  -52.1445 C.2       17 UNK         0.5000 
     98 O          -5.0073  -18.5521  -53.1136 O.2       17 UNK        -0.5000 
     99 N          -6.0807  -20.0351  -51.7693 N.am      18 UNK        -0.5000 
    100 CA        -7.3808  -20.0241  -52.4433 C.3       18 UNK         0.1400 
    101 CB        -8.4348  -20.6620  -51.5256 C.3       18 UNK        -0.1800 
    102 C         -7.3417  -20.7329  -53.8087 C.2       18 UNK         0.5000 
    103 O         -7.9807  -20.2699  -54.7539 O.2       18 UNK        -0.5000 
    104 N         -6.5648  -21.8216  -53.8950 N.am      19 UNK        -0.5000 
    105 CA        -6.2945  -22.5684  -55.1257 C.3       19 UNK         0.1400 
    106 CB        -5.6642  -23.9197  -54.7558 C.3       19 UNK        -0.1800 
    107 C         -5.3876  -21.8133  -56.1197 C.2       19 UNK         0.5000 
    108 O         -5.3267  -22.2046  -57.2859 O.2       19 UNK        -0.5000 
    109 N         -4.7030  -20.7628  -55.6413 N.am      20 UNK        -0.5000 
    110 CA        -3.7422  -19.9176  -56.3518 C.3       20 UNK         0.1400 
    111 CB        -4.4293  -19.1198  -57.4793 C.3       20 UNK        -0.1800 
    112 C         -2.5169  -20.7212  -56.8273 C.2       20 UNK         0.5000 
    113 O         -2.1482  -20.6684  -58.0031 O.2       20 UNK        -0.5000 
    114 N         -1.8964  -21.4466  -55.8847 N.am      21 UNK        -0.5000 
    115 CA        -0.7383  -22.3270  -56.0925 C.3       21 UNK         0.1400 
    116 CB        -0.4064  -23.0213  -54.7637 C.3       21 UNK        -0.1800 
    117 C          0.5181  -21.6372  -56.6691 C.2       21 UNK         0.5000 
    118 O          1.3923  -22.3197  -57.2049 O.2       21 UNK        -0.5000 
    119 N          0.5734  -20.3042  -56.5698 N.am      22 UNK        -0.5000 
    120 CA         1.5645  -19.4349  -57.2202 C.3       22 UNK         0.1400 
    121 C          1.4325  -19.3694  -58.7724 C.2       22 UNK         0.5000 
    122 N          0.3179  -19.7761  -59.3710 N.am      22 UNK        -0.7600 
    123 O          2.3648  -18.9413  -59.4473 O.2       22 UNK        -0.5000 
    124 C124        1.5383  -18.0026  -56.6261 C.3       23 UNK        -0.0398 
    125 S125        1.9140  -17.9447  -54.8406 S.3       23 UNK        -0.2404 
    126 C126        0.2378  -17.9680  -54.1208 C.3       23 UNK        -0.0205 
    127 H127       -6.3181  -16.4473  -48.9507 H         1 UNK         0.0600 
    128 H128       -5.4923  -17.4398  -47.7417 H         1 UNK         0.0600 
    129 H129       -6.9262  -16.5198  -47.2929 H         1 UNK         0.0600 
    130 H130       -3.5033  -16.4598  -47.4497 H         1 UNK         0.3000 
    131 H131       -3.1756  -13.5377  -47.2866 H         1 UNK         0.0600 
    132 H132       -0.7200  -14.2481  -46.8462 H         1 UNK         0.0800 
    133 H133       -1.1865  -15.8791  -47.2463 H         1 UNK         0.0800 
    134 H134       -2.5280  -15.4942  -50.8064 H         1 UNK         0.0800 
    135 H135       -2.4135  -16.4468  -49.3570 H         1 UNK         0.0800 
    136 H136       -1.3711  -16.3315  -52.6707 H         1 UNK         0.1150 
    137 H137        1.7786  -19.2035  -52.2120 H         1 UNK         0.1150 
    138 H138        0.0844  -17.3048  -48.7637 H         1 UNK         0.1150 
    139 H139        2.1284  -18.6448  -48.5481 H         1 UNK         0.0800 
    140 H140        2.9513  -19.2352  -49.9662 H         1 UNK         0.0800 
    141 H141       -0.9726  -20.1954  -49.3331 H         1 UNK         0.0800 
    142 H142       -0.2346  -19.4818  -47.9147 H         1 UNK         0.0800 
    143 H143       -0.8205  -22.4669  -48.1138 H         1 UNK         0.0600 
    144 H144        0.5695  -21.0089  -46.1413 H         1 UNK         0.3000 
    145 H145       -0.2170  -23.1944  -43.3725 H         1 UNK         0.0600 
    146 H146        2.2465  -23.2224  -43.2906 H         1 UNK         0.0600 
    147 H147        1.6878  -24.1723  -44.6580 H         1 UNK         0.0600 
    148 H148        2.3467  -22.5636  -44.9223 H         1 UNK         0.0600 
    149 H149        1.3319  -20.8442  -43.3901 H         1 UNK         0.3000 
    150 H150       -1.3233  -18.5185  -42.6399 H         1 UNK         0.0600 
    151 H151        1.0687  -19.6821  -41.1101 H         1 UNK         0.0600 
    152 H152       -0.5805  -19.5437  -40.5158 H         1 UNK         0.0600 
    153 H153        0.3670  -18.0966  -40.8263 H         1 UNK         0.0600 
    154 H154        1.4507  -18.0920  -43.0713 H         1 UNK         0.3000 
    155 H155        1.3386  -17.5493  -46.6004 H         1 UNK         0.0600 
    156 H156        1.8931  -15.7415  -44.1889 H         1 UNK         0.0600 
    157 H157        0.7531  -15.4064  -45.4769 H         1 UNK         0.0600 
    158 H158        2.4695  -15.4849  -45.8354 H         1 UNK         0.0600 
    159 H159        3.4769  -17.5870  -44.7018 H         1 UNK         0.3000 
    160 H160        4.3541  -21.0353  -45.0760 H         1 UNK         0.0600 
    161 H161        5.6724  -18.4261  -46.0062 H         1 UNK         0.0600 
    162 H162        5.3233  -19.8137  -47.0306 H         1 UNK         0.0600 
    163 H163        6.4892  -19.9638  -45.7256 H         1 UNK         0.0600 
    164 H164        5.5139  -18.8987  -43.5731 H         1 UNK         0.3000 
    165 H165        3.6021  -19.3017  -40.6010 H         1 UNK         0.0600 
    166 H166        5.8398  -19.7130  -39.6199 H         1 UNK         0.0600 
    167 H167        6.5018  -20.0941  -41.2100 H         1 UNK         0.0600 
    168 H168        5.2904  -21.1415  -40.4810 H         1 UNK         0.0600 
    169 H169        5.8601  -17.6853  -41.1555 H         1 UNK         0.3000 
    170 H170        5.4827  -15.3952  -41.0972 H         1 UNK         0.0600 
    171 H171        6.2491  -16.0710  -43.3968 H         1 UNK         0.0600 
    172 H172        4.7609  -15.4395  -44.0954 H         1 UNK         0.0600 
    173 H173        5.9209  -14.3466  -43.3445 H         1 UNK         0.0600 
    174 H174        2.7984  -14.8196  -42.0886 H         1 UNK         0.3000 
    175 H175        2.4704  -12.0823  -40.0124 H         1 UNK         0.0600 
    176 H176        2.4948  -11.7519  -43.0640 H         1 UNK         0.0600 
    177 H177        1.5855  -10.7567  -41.9269 H         1 UNK         0.0600 
    178 H178        3.3421  -10.7199  -41.9168 H         1 UNK         0.0600 
    179 H179        0.8811  -13.3282  -42.1321 H         1 UNK         0.3000 
    180 H180        0.0086  -15.7965  -41.4745 H         1 UNK         0.0600 
    181 H181       -1.5422  -15.1230  -38.9218 H         1 UNK         0.0600 
    182 H182       -0.3836  -16.4350  -39.1013 H         1 UNK         0.0600 
    183 H183       -1.8792  -16.4651  -40.0166 H         1 UNK         0.0600 
    184 H184       -2.2782  -14.1004  -41.0207 H         1 UNK         0.3000 
    185 H185       -3.4315  -13.4597  -42.8844 H         1 UNK         0.0600 
    186 H186       -3.2556  -11.0363  -43.4598 H         1 UNK         0.0600 
    187 H187       -2.3287  -11.3884  -42.0104 H         1 UNK         0.0600 
    188 H188       -1.4979  -11.1637  -43.5444 H         1 UNK         0.0600 
    189 H189       -2.3873  -12.5140  -45.3898 H         1 UNK         0.3000 
    190 H190       -2.0431  -20.0207  -45.8070 H         1 UNK         0.3000 
    191 H191       -4.6956  -19.8972  -46.9189 H         1 UNK         0.0600 
    192 H192       -5.2358  -18.7188  -44.8020 H         1 UNK         0.0600 
    193 H193       -3.7582  -18.0856  -45.5107 H         1 UNK         0.0600 
    194 H194       -3.6747  -19.1663  -44.1250 H         1 UNK         0.0600 
    195 H195       -3.2318  -21.7517  -44.2107 H         1 UNK         0.3000 
    196 H196       -5.5836  -23.0959  -43.3871 H         1 UNK         0.0600 
    197 H197       -2.6403  -23.8884  -43.0752 H         1 UNK         0.0600 
    198 H198       -3.5667  -22.8773  -41.9689 H         1 UNK         0.0600 
    199 H199       -3.9813  -24.5739  -42.1647 H         1 UNK         0.0600 
    200 H200       -3.0136  -24.1133  -45.6862 H         1 UNK         0.3000 
    201 H201       -4.2143  -26.6792  -46.2743 H         1 UNK         0.0600 
    202 H202       -2.0356  -25.0842  -47.7299 H         1 UNK         0.0600 
    203 H203       -2.3932  -26.7909  -47.9636 H         1 UNK         0.0600 
    204 H204       -1.7594  -26.2349  -46.4229 H         1 UNK         0.0600 
    205 H205       -4.9728  -23.5299  -47.2938 H         1 UNK         0.3000 
    206 H206       -6.2690  -22.5723  -48.7756 H         1 UNK         0.0600 
    207 H207       -7.9331  -24.3866  -48.2758 H         1 UNK         0.0600 
    208 H208       -8.0844  -23.7598  -49.9082 H         1 UNK         0.0600 
    209 H209       -7.3161  -25.3150  -49.6430 H         1 UNK         0.0600 
    210 H210       -3.5431  -23.6096  -49.4721 H         1 UNK         0.3000 
    211 H211       -3.3635  -23.9120  -52.3387 H         1 UNK         0.0600 
    212 H212       -0.9469  -23.5253  -51.9365 H         1 UNK         0.0600 
    213 H213       -1.5695  -24.6597  -50.7500 H         1 UNK         0.0600 
    214 H214       -1.2701  -22.9806  -50.3016 H         1 UNK         0.0600 
    215 H215       -3.5265  -21.2161  -50.0892 H         1 UNK         0.3000 
    216 H216       -2.9044  -19.0464  -51.8459 H         1 UNK         0.0600 
    217 H217       -4.6526  -19.2363  -49.3290 H         1 UNK         0.0600 
    218 H218       -4.1916  -17.7283  -50.1032 H         1 UNK         0.0600 
    219 H219       -2.9569  -18.7679  -49.3969 H         1 UNK         0.0600 
    220 H220       -5.9853  -20.6636  -50.9869 H         1 UNK         0.3000 
    221 H221       -7.6661  -18.9841  -52.6159 H         1 UNK         0.0600 
    222 H222       -8.5030  -20.1335  -50.5746 H         1 UNK         0.0600 
    223 H223       -8.2074  -21.7070  -51.3142 H         1 UNK         0.0600 
    224 H224       -9.4227  -20.6295  -51.9868 H         1 UNK         0.0600 
    225 H225       -6.1471  -22.1879  -53.0439 H         1 UNK         0.3000 
    226 H226       -7.2463  -22.7585  -55.6258 H         1 UNK         0.0600 
    227 H227       -4.6908  -23.7886  -54.2835 H         1 UNK         0.0600 
    228 H228       -6.2994  -24.4794  -54.0689 H         1 UNK         0.0600 
    229 H229       -5.5176  -24.5391  -55.6414 H         1 UNK         0.0600 
    230 H230       -4.8078  -20.5578  -54.6569 H         1 UNK         0.3000 
    231 H231       -3.3726  -19.1971  -55.6205 H         1 UNK         0.0600 
    232 H232       -4.7910  -19.7681  -58.2777 H         1 UNK         0.0600 
    233 H233       -3.7369  -18.4066  -57.9279 H         1 UNK         0.0600 
    234 H234       -5.2781  -18.5523  -57.0975 H         1 UNK         0.0600 
    235 H235       -2.2846  -21.4406  -54.9436 H         1 UNK         0.3000 
    236 H236       -1.0384  -23.0916  -56.8115 H         1 UNK         0.0600 
    237 H237       -1.2532  -23.6075  -54.4064 H         1 UNK         0.0600 
    238 H238        0.4367  -23.7045  -54.8743 H         1 UNK         0.0600 
    239 H239       -0.1459  -22.2976  -53.9902 H         1 UNK         0.0600 
    240 H240       -0.1980  -19.8391  -56.1198 H         1 UNK         0.3000 
    241 H241        2.5492  -19.8605  -57.0180 H         1 UNK         0.0600 
    242 H242        0.2531  -19.7290  -60.3754 H         1 UNK         0.3800 
    243 H243       -0.4741  -20.1230  -58.8373 H         1 UNK         0.3800 
    244 H244        0.5756  -17.5246  -56.8151 H         1 UNK         0.0800 
    245 H245        2.2825  -17.3771  -57.1226 H         1 UNK         0.0800 
    246 H246       -0.3640  -17.1995  -54.6083 H         1 UNK         0.0800 
    247 H247       -0.2405  -18.9241  -54.3320 H         1 UNK         0.0800 
@<TRIPOS>BOND
     1    1    2 1    
     2    1  127 1    
     3    1  128 1    
     4    1  129 1    
     5    2    3 2    
     6    2    4 am   BACKBONE|DICT|INTERRES
     7    4    5 1    
     8    4  130 1    
     9    5    6 1    
    10    5   65 1    
    11    5  131 1    
    12    6    7 1    
    13    6  132 1    
    14    6  133 1    
    15    7    8 1    
    16    8    9 1    
    17    8  134 1    
    18    8  135 1    
    19    9   10 ar   
    20    9   14 ar   
    21   10   11 ar   
    22   10  136 1    
    23   11   12 ar   
    24   11  126 1    
    25   12   13 ar   
    26   12  137 1    
    27   13   14 ar   
    28   13   15 1    
    29   14  138 1    
    30   15   16 1    
    31   15  139 1    
    32   15  140 1    
    33   16   17 1    
    34   17   18 1    
    35   17  141 1    
    36   17  142 1    
    37   18   19 1    
    38   18   67 1    
    39   18  143 1    
    40   19   20 am   BACKBONE|DICT|INTERRES
    41   19  144 1    
    42   20   21 2    
    43   20   22 1    
    44   22   23 1    
    45   22   24 1    
    46   22  145 1    
    47   23  146 1    
    48   23  147 1    
    49   23  148 1    
    50   24   25 am   BACKBONE|DICT|INTERRES
    51   24  149 1    
    52   25   26 2    
    53   25   27 1    
    54   27   28 1    
    55   27   29 1    
    56   27  150 1    
    57   28  151 1    
    58   28  152 1    
    59   28  153 1    
    60   29   30 am   BACKBONE|DICT|INTERRES
    61   29  154 1    
    62   30   31 2    
    63   30   32 1    
    64   32   33 1    
    65   32   34 1    
    66   32  155 1    
    67   33  156 1    
    68   33  157 1    
    69   33  158 1    
    70   34   35 am   BACKBONE|DICT|INTERRES
    71   34  159 1    
    72   35   36 2    
    73   35   37 1    
    74   37   38 1    
    75   37   39 1    
    76   37  160 1    
    77   38  161 1    
    78   38  162 1    
    79   38  163 1    
    80   39   40 am   BACKBONE|DICT|INTERRES
    81   39  164 1    
    82   40   41 2    
    83   40   42 1    
    84   42   43 1    
    85   42   44 1    
    86   42  165 1    
    87   43  166 1    
    88   43  167 1    
    89   43  168 1    
    90   44   45 am   BACKBONE|DICT|INTERRES
    91   44  169 1    
    92   45   46 2    
    93   45   47 1    
    94   47   48 1    
    95   47   49 1    
    96   47  170 1    
    97   48  171 1    
    98   48  172 1    
    99   48  173 1    
   100   49   50 am   BACKBONE|DICT|INTERRES
   101   49  174 1    
   102   50   51 2    
   103   50   52 1    
   104   52   53 1    
   105   52   54 1    
   106   52  175 1    
   107   53  176 1    
   108   53  177 1    
   109   53  178 1    
   110   54   55 am   BACKBONE|DICT|INTERRES
   111   54  179 1    
   112   55   56 2    
   113   55   57 1    
   114   57   58 1    
   115   57   59 1    
   116   57  180 1    
   117   58  181 1    
   118   58  182 1    
   119   58  183 1    
   120   59   60 am   BACKBONE|DICT|INTERRES
   121   59  184 1    
   122   60   61 2    
   123   60   62 1    
   124   62   63 1    
   125   62   64 1    
   126   62  185 1    
   127   63  186 1    
   128   63  187 1    
   129   63  188 1    
   130   64   65 am   BACKBONE|DICT|INTERRES
   131   64  189 1    
   132   65   66 2    
   133   67   68 2    
   134   67   69 am   BACKBONE|DICT|INTERRES
   135   69   70 1    
   136   69  190 1    
   137   70   71 1    
   138   70   72 1    
   139   70  191 1    
   140   71  192 1    
   141   71  193 1    
   142   71  194 1    
   143   72   73 2    
   144   72   74 am   BACKBONE|DICT|INTERRES
   145   74   75 1    
   146   74  195 1    
   147   75   76 1    
   148   75   77 1    
   149   75  196 1    
   150   76  197 1    
   151   76  198 1    
   152   76  199 1    
   153   77   78 2    
   154   77   79 am   BACKBONE|DICT|INTERRES
   155   79   80 1    
   156   79  200 1    
   157   80   81 1    
   158   80   82 1    
   159   80  201 1    
   160   81  202 1    
   161   81  203 1    
   162   81  204 1    
   163   82   83 2    
   164   82   84 am   BACKBONE|DICT|INTERRES
   165   84   85 1    
   166   84  205 1    
   167   85   86 1    
   168   85   87 1    
   169   85  206 1    
   170   86  207 1    
   171   86  208 1    
   172   86  209 1    
   173   87   88 2    
   174   87   89 am   BACKBONE|DICT|INTERRES
   175   89   90 1    
   176   89  210 1    
   177   90   91 1    
   178   90   92 1    
   179   90  211 1    
   180   91  212 1    
   181   91  213 1    
   182   91  214 1    
   183   92   93 2    
   184   92   94 am   BACKBONE|DICT|INTERRES
   185   94   95 1    
   186   94  215 1    
   187   95   96 1    
   188   95   97 1    
   189   95  216 1    
   190   96  217 1    
   191   96  218 1    
   192   96  219 1    
   193   97   98 2    
   194   97   99 am   BACKBONE|DICT|INTERRES
   195   99  100 1    
   196   99  220 1    
   197  100  101 1    
   198  100  102 1    
   199  100  221 1    
   200  101  222 1    
   201  101  223 1    
   202  101  224 1    
   203  102  103 2    
   204  102  104 am   BACKBONE|DICT|INTERRES
   205  104  105 1    
   206  104  225 1    
   207  105  106 1    
   208  105  107 1    
   209  105  226 1    
   210  106  227 1    
   211  106  228 1    
   212  106  229 1    
   213  107  108 2    
   214  107  109 am   BACKBONE|DICT|INTERRES
   215  109  110 1    
   216  109  230 1    
   217  110  111 1    
   218  110  112 1    
   219  110  231 1    
   220  111  232 1    
   221  111  233 1    
   222  111  234 1    
   223  112  113 2    
   224  112  114 am   BACKBONE|DICT|INTERRES
   225  114  115 1    
   226  114  235 1    
   227  115  116 1    
   228  115  117 1    
   229  115  236 1    
   230  116  237 1    
   231  116  238 1    
   232  116  239 1    
   233  117  118 2    
   234  117  119 am   BACKBONE|DICT|INTERRES
   235  119  120 1    
   236  119  240 1    
   237  120  121 1    
   238  120  124 1    
   239  120  241 1    
   240  121  122 am   BACKBONE|DICT|INTERRES
   241  121  123 2    
   242  122  242 1    
   243  122  243 1    
   244  124  125 1    
   245  124  244 1    
   246  124  245 1    
   247  125  126 1    
   248  126  246 1    
   249  126  247 1    
@<TRIPOS>SUBSTRUCTURE
     1 UNK         1 GROUP             0       ****    0 ROOT    
