@<TRIPOS>MOLECULE
3R540
247   249    1
SMALL
USER_CHARGES


@<TRIPOS>ATOM
      1 CA          1.6858   -8.8309  -50.0697 C.3       0 UNK        -0.1800 
      2 C           1.7974   -9.9557  -49.0515 C.2       0 UNK         0.5000 
      3 O           2.3312   -9.7422  -47.9645 O.2       0 UNK        -0.5000 
      4 N           1.2810  -11.1447  -49.3907 N.am      1 UNK        -0.5000 
      5 CA          1.2898  -12.3588  -48.5623 C.3       1 UNK         0.1400 
      6 C6          0.6723  -13.5483  -49.3402 C.3       23 UNK        -0.0398 
      7 S7          0.8619  -15.1751  -48.5307 S.3       23 UNK        -0.2404 
      8 C8          2.1035  -16.0023  -49.5730 C.3       23 UNK        -0.0205 
      9 C9          1.8383  -17.4973  -49.6406 C.ar      23 UNK        -0.0193 
     10 C10         0.9051  -17.9917  -50.5572 C.ar      23 UNK        -0.1150 
     11 C11         0.6422  -19.3614  -50.6331 C.ar      23 UNK        -0.0193 
     12 C12         1.3361  -20.2403  -49.7993 C.ar      23 UNK        -0.1150 
     13 C13         2.2677  -19.7604  -48.8750 C.ar      23 UNK        -0.0193 
     14 C14         2.5155  -18.3856  -48.7977 C.ar      23 UNK        -0.1150 
     15 C15         3.0064  -20.7378  -47.9715 C.3       23 UNK        -0.0205 
     16 S16         2.3769  -20.7391  -46.2627 S.3       23 UNK        -0.2404 
     17 C17         0.6295  -21.2270  -46.4663 C.3       23 UNK        -0.0398 
     18 CA          0.3821  -22.7451  -46.2915 C.3       11 UNK         0.1400 
     19 N           0.9240  -23.2830  -45.0417 N.am      11 UNK        -0.5000 
     20 C           1.1300  -24.5844  -44.7961 C.2       10 UNK         0.5000 
     21 O           0.9439  -25.4742  -45.6257 O.2       10 UNK        -0.5000 
     22 CA          1.5977  -24.9597  -43.3760 C.3       10 UNK         0.1400 
     23 CB          3.1317  -24.9574  -43.2986 C.3       10 UNK        -0.1800 
     24 N           1.0652  -24.0678  -42.3442 N.am      10 UNK        -0.5000 
     25 C          -0.2292  -23.9796  -42.0053 C.2       9 UNK         0.5000 
     26 O          -1.1099  -24.6906  -42.4868 O.2       9 UNK        -0.5000 
     27 CA         -0.6088  -22.8645  -41.0093 C.3       9 UNK         0.1400 
     28 CB         -0.4982  -23.3713  -39.5640 C.3       9 UNK        -0.1800 
     29 N           0.1993  -21.6486  -41.1628 N.am      9 UNK        -0.5000 
     30 C           0.2695  -20.9212  -42.2861 C.2       8 UNK         0.5000 
     31 O          -0.3703  -21.1957  -43.3044 O.2       8 UNK        -0.5000 
     32 CA          1.2736  -19.7511  -42.2823 C.3       8 UNK         0.1400 
     33 CB          2.7158  -20.2807  -42.2050 C.3       8 UNK        -0.1800 
     34 N           1.1665  -18.9160  -43.4771 N.am      8 UNK        -0.5000 
     35 C           0.1603  -18.0854  -43.7662 C.2       7 UNK         0.5000 
     36 O          -0.7787  -17.8556  -43.0012 O.2       7 UNK        -0.5000 
     37 CA          0.2562  -17.3641  -45.1266 C.3       7 UNK         0.1400 
     38 CB         -1.0907  -16.7614  -45.5645 C.3       7 UNK        -0.1800 
     39 N           1.2609  -16.3027  -45.0879 N.am      7 UNK        -0.5000 
     40 C           2.5894  -16.4810  -45.1084 C.2       6 UNK         0.5000 
     41 O           3.1294  -17.5810  -45.2200 O.2       6 UNK        -0.5000 
     42 CA          3.4716  -15.2283  -44.9639 C.3       6 UNK         0.1400 
     43 CB          4.0638  -14.8103  -46.3182 C.3       6 UNK        -0.1800 
     44 N           2.7562  -14.0895  -44.3922 N.am      6 UNK        -0.5000 
     45 C           2.5019  -13.9107  -43.0896 C.2       5 UNK         0.5000 
     46 O           2.8170  -14.7179  -42.2135 O.2       5 UNK        -0.5000 
     47 CA          1.7928  -12.5885  -42.7265 C.3       5 UNK         0.1400 
     48 CB          1.8149  -12.2719  -41.2170 C.3       5 UNK        -0.1800 
     49 N           2.3101  -11.4640  -43.5136 N.am      5 UNK        -0.5000 
     50 C           3.5639  -10.9845  -43.5333 C.2       4 UNK         0.5000 
     51 O           4.4602  -11.3589  -42.7762 O.2       4 UNK        -0.5000 
     52 CA          3.8853   -9.9276  -44.6084 C.3       4 UNK         0.1400 
     53 CB          4.6723  -10.5742  -45.7597 C.3       4 UNK        -0.1800 
     54 N           2.6912   -9.2887  -45.1625 N.am      4 UNK        -0.5000 
     55 C           1.9450   -8.3747  -44.5286 C.2       3 UNK         0.5000 
     56 O           2.2201   -7.9113  -43.4214 O.2       3 UNK        -0.5000 
     57 CA          0.6535   -7.9370  -45.2412 C.3       3 UNK         0.1400 
     58 CB          0.9471   -6.8657  -46.3030 C.3       3 UNK        -0.1800 
     59 N          -0.0418   -9.0664  -45.8631 N.am      3 UNK        -0.5000 
     60 C          -0.7013  -10.0187  -45.1878 C.2       2 UNK         0.5000 
     61 O          -0.8040  -10.0407  -43.9616 O.2       2 UNK        -0.5000 
     62 CA         -1.3396  -11.1479  -46.0174 C.3       2 UNK         0.1400 
     63 CB         -2.7692  -10.7697  -46.4326 C.3       2 UNK        -0.1800 
     64 N          -0.5652  -11.4843  -47.2124 N.am      2 UNK        -0.5000 
     65 C           0.6033  -12.1410  -47.1948 C.2       1 UNK         0.5000 
     66 O           1.1558  -12.5259  -46.1627 O.2       1 UNK        -0.5000 
     67 C          -1.1236  -23.0472  -46.3855 C.2       11 UNK         0.5000 
     68 O          -1.5858  -23.5174  -47.4223 O.2       11 UNK        -0.5000 
     69 N          -1.8495  -22.8072  -45.2832 N.am      12 UNK        -0.5000 
     70 CA         -3.2859  -23.0601  -45.1475 C.3       12 UNK         0.1400 
     71 CB         -3.7677  -22.5017  -43.8004 C.3       12 UNK        -0.1800 
     72 C          -3.6663  -24.5477  -45.2880 C.2       12 UNK         0.5000 
     73 O          -4.7545  -24.8536  -45.7751 O.2       12 UNK        -0.5000 
     74 N          -2.7622  -25.4415  -44.8673 N.am      13 UNK        -0.5000 
     75 CA         -2.8980  -26.8919  -44.9899 C.3       13 UNK         0.1400 
     76 CB         -1.9223  -27.5620  -44.0098 C.3       13 UNK        -0.1800 
     77 C          -2.6650  -27.4208  -46.4201 C.2       13 UNK         0.5000 
     78 O          -3.0825  -28.5427  -46.7131 O.2       13 UNK        -0.5000 
     79 N          -1.9909  -26.6413  -47.2770 N.am      14 UNK        -0.5000 
     80 CA         -1.6884  -27.0115  -48.6586 C.3       14 UNK         0.1400 
     81 CB         -0.4880  -26.1869  -49.1518 C.3       14 UNK        -0.1800 
     82 C          -2.9003  -26.7951  -49.5810 C.2       14 UNK         0.5000 
     83 O          -3.7428  -25.9355  -49.3136 O.2       14 UNK        -0.5000 
     84 N          -2.9307  -27.5367  -50.6972 N.am      15 UNK        -0.5000 
     85 CA         -3.9621  -27.4464  -51.7387 C.3       15 UNK         0.1400 
     86 CB         -3.7335  -28.5580  -52.7731 C.3       15 UNK        -0.1800 
     87 C          -4.0274  -26.0711  -52.4329 C.2       15 UNK         0.5000 
     88 O          -5.0851  -25.6931  -52.9361 O.2       15 UNK        -0.5000 
     89 N          -2.9163  -25.3221  -52.4010 N.am      16 UNK        -0.5000 
     90 CA         -2.8047  -23.9477  -52.8899 C.3       16 UNK         0.1400 
     91 CB         -1.3506  -23.4818  -52.7347 C.3       16 UNK        -0.1800 
     92 C          -3.7662  -22.9598  -52.1971 C.2       16 UNK         0.5000 
     93 O          -4.1770  -21.9862  -52.8283 O.2       16 UNK        -0.5000 
     94 N          -4.1256  -23.2410  -50.9348 N.am      17 UNK        -0.5000 
     95 CA         -5.0802  -22.4532  -50.1558 C.3       17 UNK         0.1400 
     96 CB         -4.8530  -22.7130  -48.6617 C.3       17 UNK        -0.1800 
     97 C          -6.5471  -22.7263  -50.5413 C.2       17 UNK         0.5000 
     98 O          -7.4020  -21.8745  -50.2935 O.2       17 UNK        -0.5000 
     99 N          -6.8211  -23.8960  -51.1361 N.am      18 UNK        -0.5000 
    100 CA        -8.1211  -24.2325  -51.7181 C.3       18 UNK         0.1400 
    101 CB        -8.3257  -25.7550  -51.6722 C.3       18 UNK        -0.1800 
    102 C         -8.2318  -23.7043  -53.1599 C.2       18 UNK         0.5000 
    103 O         -9.3131  -23.2858  -53.5763 O.2       18 UNK        -0.5000 
    104 N         -7.1084  -23.7282  -53.8885 N.am      19 UNK        -0.5000 
    105 CA        -6.9497  -23.1701  -55.2284 C.3       19 UNK         0.1400 
    106 CB        -5.6708  -23.7594  -55.8472 C.3       19 UNK        -0.1800 
    107 C         -6.8896  -21.6285  -55.2237 C.2       19 UNK         0.5000 
    108 O         -6.8114  -20.9947  -54.1690 O.2       19 UNK        -0.5000 
    109 N         -6.8813  -21.0462  -56.4286 N.am      20 UNK        -0.5000 
    110 CA        -6.8096  -19.6014  -56.6682 C.3       20 UNK         0.1400 
    111 CB        -7.1560  -19.3355  -58.1425 C.3       20 UNK        -0.1800 
    112 C         -5.4563  -18.9505  -56.3025 C.2       20 UNK         0.5000 
    113 O         -5.3647  -17.7222  -56.3194 O.2       20 UNK        -0.5000 
    114 N         -4.4329  -19.7638  -55.9989 N.am      21 UNK        -0.5000 
    115 CA        -3.0925  -19.3256  -55.6046 C.3       21 UNK         0.1400 
    116 CB        -2.1613  -20.5441  -55.5094 C.3       21 UNK        -0.1800 
    117 C         -3.0822  -18.5150  -54.2947 C.2       21 UNK         0.5000 
    118 O         -2.4483  -17.4599  -54.2440 O.2       21 UNK        -0.5000 
    119 N         -3.8028  -18.9999  -53.2777 N.am      22 UNK        -0.5000 
    120 CA        -3.9757  -18.3209  -51.9840 C.3       22 UNK         0.1400 
    121 C         -5.2801  -18.7043  -51.2285 C.2       22 UNK         0.5000 
    122 N         -6.2068  -19.4587  -51.8059 N.am      22 UNK        -0.7600 
    123 O         -5.4779  -18.2861  -50.0911 O.2       22 UNK        -0.5000 
    124 C124       -2.7018  -18.3595  -51.0888 C.3       23 UNK        -0.0398 
    125 S125       -2.0277  -20.0368  -50.8180 S.3       23 UNK        -0.2404 
    126 C126       -0.3917  -19.9040  -51.6055 C.3       23 UNK        -0.0205 
    127 H127        1.1107   -8.0041  -49.6528 H         1 UNK         0.0600 
    128 H128        1.1955   -9.1596  -50.9863 H         1 UNK         0.0600 
    129 H129        2.6780   -8.4610  -50.3278 H         1 UNK         0.0600 
    130 H130        0.8542  -11.2416  -50.3012 H         1 UNK         0.3000 
    131 H131        2.3375  -12.5927  -48.3629 H         1 UNK         0.0600 
    132 H132       -0.3939  -13.3818  -49.5036 H         1 UNK         0.0800 
    133 H133        1.1105  -13.5966  -50.3373 H         1 UNK         0.0800 
    134 H134        2.0911  -15.5975  -50.5856 H         1 UNK         0.0800 
    135 H135        3.0999  -15.8050  -49.1756 H         1 UNK         0.0800 
    136 H136        0.3764  -17.3056  -51.2034 H         1 UNK         0.1150 
    137 H137        1.1351  -21.3009  -49.8589 H         1 UNK         0.1150 
    138 H138        3.2300  -18.0099  -48.0783 H         1 UNK         0.1150 
    139 H139        2.9503  -21.7514  -48.3713 H         1 UNK         0.0800 
    140 H140        4.0656  -20.4776  -47.9529 H         1 UNK         0.0800 
    141 H141        0.2590  -20.8968  -47.4356 H         1 UNK         0.0800 
    142 H142        0.0537  -20.6552  -45.7393 H         1 UNK         0.0800 
    143 H143        0.8750  -23.2580  -47.1205 H         1 UNK         0.0600 
    144 H144        1.0498  -22.6160  -44.2939 H         1 UNK         0.3000 
    145 H145        1.2440  -25.9715  -43.1664 H         1 UNK         0.0600 
    146 H146        3.4782  -25.2910  -42.3204 H         1 UNK         0.0600 
    147 H147        3.5607  -25.6314  -44.0414 H         1 UNK         0.0600 
    148 H148        3.5429  -23.9635  -43.4809 H         1 UNK         0.0600 
    149 H149        1.7223  -23.4480  -41.8945 H         1 UNK         0.3000 
    150 H150       -1.6499  -22.5956  -41.1975 H         1 UNK         0.0600 
    151 H151        0.5295  -23.6274  -39.3036 H         1 UNK         0.0600 
    152 H152       -1.1068  -24.2646  -39.4164 H         1 UNK         0.0600 
    153 H153       -0.8482  -22.6210  -38.8547 H         1 UNK         0.0600 
    154 H154        0.7522  -21.3731  -40.3639 H         1 UNK         0.3000 
    155 H155        1.0735  -19.1304  -41.4068 H         1 UNK         0.0600 
    156 H156        2.9510  -20.9312  -43.0488 H         1 UNK         0.0600 
    157 H157        2.8852  -20.8515  -41.2914 H         1 UNK         0.0600 
    158 H158        3.4353  -19.4614  -42.2074 H         1 UNK         0.0600 
    159 H159        1.9164  -18.9953  -44.1551 H         1 UNK         0.3000 
    160 H160        0.5511  -18.0988  -45.8792 H         1 UNK         0.0600 
    161 H161       -1.4198  -15.9702  -44.8898 H         1 UNK         0.0600 
    162 H162       -1.8702  -17.5242  -45.5839 H         1 UNK         0.0600 
    163 H163       -1.0289  -16.3412  -46.5676 H         1 UNK         0.0600 
    164 H164        0.9161  -15.3598  -44.9883 H         1 UNK         0.3000 
    165 H165        4.2990  -15.4903  -44.3011 H         1 UNK         0.0600 
    166 H166        4.7864  -14.0031  -46.1977 H         1 UNK         0.0600 
    167 H167        4.5814  -15.6429  -46.7963 H         1 UNK         0.0600 
    168 H168        3.2911  -14.4646  -47.0032 H         1 UNK         0.0600 
    169 H169        2.3920  -13.4040  -45.0498 H         1 UNK         0.3000 
    170 H170        0.7497  -12.7108  -43.0219 H         1 UNK         0.0600 
    171 H171        1.3048  -13.0506  -40.6489 H         1 UNK         0.0600 
    172 H172        2.8315  -12.1995  -40.8297 H         1 UNK         0.0600 
    173 H173        1.3070  -11.3308  -41.0057 H         1 UNK         0.0600 
    174 H174        1.6730  -11.0968  -44.2067 H         1 UNK         0.3000 
    175 H175        4.5117   -9.1611  -44.1475 H         1 UNK         0.0600 
    176 H176        4.9561   -9.8340  -46.5080 H         1 UNK         0.0600 
    177 H177        5.5897  -11.0394  -45.3972 H         1 UNK         0.0600 
    178 H178        4.0867  -11.3472  -46.2600 H         1 UNK         0.0600 
    179 H179        2.4297   -9.5646  -46.1068 H         1 UNK         0.3000 
    180 H180       -0.0090   -7.4974  -44.4924 H         1 UNK         0.0600 
    181 H181        1.6071   -7.2398  -47.0861 H         1 UNK         0.0600 
    182 H182        1.4316   -5.9974  -45.8549 H         1 UNK         0.0600 
    183 H183        0.0290   -6.5170  -46.7760 H         1 UNK         0.0600 
    184 H184        0.0314   -9.1480  -46.8660 H         1 UNK         0.3000 
    185 H185       -1.3939  -12.0354  -45.3828 H         1 UNK         0.0600 
    186 H186       -3.3799  -10.5350  -45.5597 H         1 UNK         0.0600 
    187 H187       -2.7825   -9.8971  -47.0868 H         1 UNK         0.0600 
    188 H188       -3.2575  -11.5911  -46.9575 H         1 UNK         0.0600 
    189 H189       -0.9417  -11.1849  -48.0998 H         1 UNK         0.3000 
    190 H190       -1.3838  -22.3896  -44.4825 H         1 UNK         0.3000 
    191 H191       -3.7938  -22.5113  -45.9418 H         1 UNK         0.0600 
    192 H192       -3.5331  -21.4413  -43.7041 H         1 UNK         0.0600 
    193 H193       -4.8485  -22.6076  -43.6991 H         1 UNK         0.0600 
    194 H194       -3.3075  -23.0247  -42.9621 H         1 UNK         0.0600 
    195 H195       -1.9335  -25.1018  -44.3933 H         1 UNK         0.3000 
    196 H196       -3.9137  -27.1692  -44.7004 H         1 UNK         0.0600 
    197 H197       -2.0029  -28.6488  -44.0553 H         1 UNK         0.0600 
    198 H198       -2.1301  -27.2650  -42.9817 H         1 UNK         0.0600 
    199 H199       -0.8874  -27.2987  -44.2320 H         1 UNK         0.0600 
    200 H200       -1.7474  -25.6986  -47.0004 H         1 UNK         0.3000 
    201 H201       -1.4109  -28.0675  -48.6837 H         1 UNK         0.0600 
    202 H202       -0.1413  -26.5442  -50.1220 H         1 UNK         0.0600 
    203 H203       -0.7388  -25.1324  -49.2667 H         1 UNK         0.0600 
    204 H204        0.3527  -26.2578  -48.4610 H         1 UNK         0.0600 
    205 H205       -2.1977  -28.2137  -50.8539 H         1 UNK         0.3000 
    206 H206       -4.9309  -27.6141  -51.2635 H         1 UNK         0.0600 
    207 H207       -3.7747  -29.5438  -52.3094 H         1 UNK         0.0600 
    208 H208       -4.5004  -28.5335  -53.5486 H         1 UNK         0.0600 
    209 H209       -2.7655  -28.4571  -53.2656 H         1 UNK         0.0600 
    210 H210       -2.0953  -25.7138  -51.9651 H         1 UNK         0.3000 
    211 H211       -3.0447  -23.9582  -53.9536 H         1 UNK         0.0600 
    212 H212       -1.0562  -23.4211  -51.6858 H         1 UNK         0.0600 
    213 H213       -1.2159  -22.4939  -53.1739 H         1 UNK         0.0600 
    214 H214       -0.6603  -24.1558  -53.2420 H         1 UNK         0.0600 
    215 H215       -3.7597  -24.0726  -50.4862 H         1 UNK         0.3000 
    216 H216       -4.8789  -21.3978  -50.3372 H         1 UNK         0.0600 
    217 H217       -5.5260  -22.1093  -48.0518 H         1 UNK         0.0600 
    218 H218       -3.8346  -22.4527  -48.3761 H         1 UNK         0.0600 
    219 H219       -5.0212  -23.7582  -48.4013 H         1 UNK         0.0600 
    220 H220       -6.0591  -24.5313  -51.3318 H         1 UNK         0.3000 
    221 H221       -8.9157  -23.7711  -51.1278 H         1 UNK         0.0600 
    222 H222       -7.5849  -26.2852  -52.2709 H         1 UNK         0.0600 
    223 H223       -8.2621  -26.1304  -50.6508 H         1 UNK         0.0600 
    224 H224       -9.3096  -26.0251  -52.0575 H         1 UNK         0.0600 
    225 H225       -6.2780  -24.1310  -53.4712 H         1 UNK         0.3000 
    226 H226       -7.8062  -23.4775  -55.8318 H         1 UNK         0.0600 
    227 H227       -5.5846  -23.5022  -56.9033 H         1 UNK         0.0600 
    228 H228       -4.7782  -23.3861  -55.3466 H         1 UNK         0.0600 
    229 H229       -5.6619  -24.8478  -55.7805 H         1 UNK         0.0600 
    230 H230       -6.9331  -21.6290  -57.2518 H         1 UNK         0.3000 
    231 H231       -7.5699  -19.1208  -56.0490 H         1 UNK         0.0600 
    232 H232       -6.4342  -19.8010  -58.8147 H         1 UNK         0.0600 
    233 H233       -7.1631  -18.2662  -58.3585 H         1 UNK         0.0600 
    234 H234       -8.1453  -19.7198  -58.3917 H         1 UNK         0.0600 
    235 H235       -4.6039  -20.7575  -55.9975 H         1 UNK         0.3000 
    236 H236       -2.7130  -18.6743  -56.3947 H         1 UNK         0.0600 
    237 H237       -2.0588  -21.0378  -56.4758 H         1 UNK         0.0600 
    238 H238       -1.1618  -20.2502  -55.1862 H         1 UNK         0.0600 
    239 H239       -2.5338  -21.2793  -54.7975 H         1 UNK         0.0600 
    240 H240       -4.2227  -19.9202  -53.3526 H         1 UNK         0.3000 
    241 H241       -4.1472  -17.2688  -52.2194 H         1 UNK         0.0600 
    242 H242       -6.1174  -19.8534  -52.7361 H         1 UNK         0.3800 
    243 H243       -7.0179  -19.7134  -51.2634 H         1 UNK         0.3800 
    244 H244       -2.8905  -17.9048  -50.1152 H         1 UNK         0.0800 
    245 H245       -1.9350  -17.7327  -51.5422 H         1 UNK         0.0800 
    246 H246       -0.0809  -20.8928  -51.9412 H         1 UNK         0.0800 
    247 H247       -0.4479  -19.2860  -52.5029 H         1 UNK         0.0800 
@<TRIPOS>BOND
     1    1    2 1    
     2    1  127 1    
     3    1  128 1    
     4    1  129 1    
     5    2    3 2    
     6    2    4 am   BACKBONE|DICT|INTERRES
     7    4    5 1    
     8    4  130 1    
     9    5    6 1    
    10    5   65 1    
    11    5  131 1    
    12    6    7 1    
    13    6  132 1    
    14    6  133 1    
    15    7    8 1    
    16    8    9 1    
    17    8  134 1    
    18    8  135 1    
    19    9   10 ar   
    20    9   14 ar   
    21   10   11 ar   
    22   10  136 1    
    23   11   12 ar   
    24   11  126 1    
    25   12   13 ar   
    26   12  137 1    
    27   13   14 ar   
    28   13   15 1    
    29   14  138 1    
    30   15   16 1    
    31   15  139 1    
    32   15  140 1    
    33   16   17 1    
    34   17   18 1    
    35   17  141 1    
    36   17  142 1    
    37   18   19 1    
    38   18   67 1    
    39   18  143 1    
    40   19   20 am   BACKBONE|DICT|INTERRES
    41   19  144 1    
    42   20   21 2    
    43   20   22 1    
    44   22   23 1    
    45   22   24 1    
    46   22  145 1    
    47   23  146 1    
    48   23  147 1    
    49   23  148 1    
    50   24   25 am   BACKBONE|DICT|INTERRES
    51   24  149 1    
    52   25   26 2    
    53   25   27 1    
    54   27   28 1    
    55   27   29 1    
    56   27  150 1    
    57   28  151 1    
    58   28  152 1    
    59   28  153 1    
    60   29   30 am   BACKBONE|DICT|INTERRES
    61   29  154 1    
    62   30   31 2    
    63   30   32 1    
    64   32   33 1    
    65   32   34 1    
    66   32  155 1    
    67   33  156 1    
    68   33  157 1    
    69   33  158 1    
    70   34   35 am   BACKBONE|DICT|INTERRES
    71   34  159 1    
    72   35   36 2    
    73   35   37 1    
    74   37   38 1    
    75   37   39 1    
    76   37  160 1    
    77   38  161 1    
    78   38  162 1    
    79   38  163 1    
    80   39   40 am   BACKBONE|DICT|INTERRES
    81   39  164 1    
    82   40   41 2    
    83   40   42 1    
    84   42   43 1    
    85   42   44 1    
    86   42  165 1    
    87   43  166 1    
    88   43  167 1    
    89   43  168 1    
    90   44   45 am   BACKBONE|DICT|INTERRES
    91   44  169 1    
    92   45   46 2    
    93   45   47 1    
    94   47   48 1    
    95   47   49 1    
    96   47  170 1    
    97   48  171 1    
    98   48  172 1    
    99   48  173 1    
   100   49   50 am   BACKBONE|DICT|INTERRES
   101   49  174 1    
   102   50   51 2    
   103   50   52 1    
   104   52   53 1    
   105   52   54 1    
   106   52  175 1    
   107   53  176 1    
   108   53  177 1    
   109   53  178 1    
   110   54   55 am   BACKBONE|DICT|INTERRES
   111   54  179 1    
   112   55   56 2    
   113   55   57 1    
   114   57   58 1    
   115   57   59 1    
   116   57  180 1    
   117   58  181 1    
   118   58  182 1    
   119   58  183 1    
   120   59   60 am   BACKBONE|DICT|INTERRES
   121   59  184 1    
   122   60   61 2    
   123   60   62 1    
   124   62   63 1    
   125   62   64 1    
   126   62  185 1    
   127   63  186 1    
   128   63  187 1    
   129   63  188 1    
   130   64   65 am   BACKBONE|DICT|INTERRES
   131   64  189 1    
   132   65   66 2    
   133   67   68 2    
   134   67   69 am   BACKBONE|DICT|INTERRES
   135   69   70 1    
   136   69  190 1    
   137   70   71 1    
   138   70   72 1    
   139   70  191 1    
   140   71  192 1    
   141   71  193 1    
   142   71  194 1    
   143   72   73 2    
   144   72   74 am   BACKBONE|DICT|INTERRES
   145   74   75 1    
   146   74  195 1    
   147   75   76 1    
   148   75   77 1    
   149   75  196 1    
   150   76  197 1    
   151   76  198 1    
   152   76  199 1    
   153   77   78 2    
   154   77   79 am   BACKBONE|DICT|INTERRES
   155   79   80 1    
   156   79  200 1    
   157   80   81 1    
   158   80   82 1    
   159   80  201 1    
   160   81  202 1    
   161   81  203 1    
   162   81  204 1    
   163   82   83 2    
   164   82   84 am   BACKBONE|DICT|INTERRES
   165   84   85 1    
   166   84  205 1    
   167   85   86 1    
   168   85   87 1    
   169   85  206 1    
   170   86  207 1    
   171   86  208 1    
   172   86  209 1    
   173   87   88 2    
   174   87   89 am   BACKBONE|DICT|INTERRES
   175   89   90 1    
   176   89  210 1    
   177   90   91 1    
   178   90   92 1    
   179   90  211 1    
   180   91  212 1    
   181   91  213 1    
   182   91  214 1    
   183   92   93 2    
   184   92   94 am   BACKBONE|DICT|INTERRES
   185   94   95 1    
   186   94  215 1    
   187   95   96 1    
   188   95   97 1    
   189   95  216 1    
   190   96  217 1    
   191   96  218 1    
   192   96  219 1    
   193   97   98 2    
   194   97   99 am   BACKBONE|DICT|INTERRES
   195   99  100 1    
   196   99  220 1    
   197  100  101 1    
   198  100  102 1    
   199  100  221 1    
   200  101  222 1    
   201  101  223 1    
   202  101  224 1    
   203  102  103 2    
   204  102  104 am   BACKBONE|DICT|INTERRES
   205  104  105 1    
   206  104  225 1    
   207  105  106 1    
   208  105  107 1    
   209  105  226 1    
   210  106  227 1    
   211  106  228 1    
   212  106  229 1    
   213  107  108 2    
   214  107  109 am   BACKBONE|DICT|INTERRES
   215  109  110 1    
   216  109  230 1    
   217  110  111 1    
   218  110  112 1    
   219  110  231 1    
   220  111  232 1    
   221  111  233 1    
   222  111  234 1    
   223  112  113 2    
   224  112  114 am   BACKBONE|DICT|INTERRES
   225  114  115 1    
   226  114  235 1    
   227  115  116 1    
   228  115  117 1    
   229  115  236 1    
   230  116  237 1    
   231  116  238 1    
   232  116  239 1    
   233  117  118 2    
   234  117  119 am   BACKBONE|DICT|INTERRES
   235  119  120 1    
   236  119  240 1    
   237  120  121 1    
   238  120  124 1    
   239  120  241 1    
   240  121  122 am   BACKBONE|DICT|INTERRES
   241  121  123 2    
   242  122  242 1    
   243  122  243 1    
   244  124  125 1    
   245  124  244 1    
   246  124  245 1    
   247  125  126 1    
   248  126  246 1    
   249  126  247 1    
@<TRIPOS>SUBSTRUCTURE
     1 UNK         1 GROUP             0       ****    0 ROOT    
