@<TRIPOS>MOLECULE
3R540
247   249    1
SMALL
USER_CHARGES


@<TRIPOS>ATOM
      1 CA          0.7475  -11.6898  -49.3811 C.3       0 UNK        -0.1800 
      2 C           0.7455  -12.8027  -48.3443 C.2       0 UNK         0.5000 
      3 O           0.4000  -12.5588  -47.1879 O.2       0 UNK        -0.5000 
      4 N           1.1134  -14.0246  -48.7553 N.am      1 UNK        -0.5000 
      5 CA          1.2259  -15.2199  -47.9063 C.3       1 UNK         0.1400 
      6 C6          1.7683  -16.4464  -48.6813 C.3       23 UNK        -0.0398 
      7 S7          3.3971  -16.1363  -49.4443 S.3       23 UNK        -0.2404 
      8 C8          4.2502  -17.7300  -49.2006 C.3       23 UNK        -0.0205 
      9 C9          3.5125  -18.8935  -49.8493 C.ar      23 UNK        -0.0193 
     10 C10         3.3620  -18.9465  -51.2380 C.ar      23 UNK        -0.1150 
     11 C11         2.6749  -20.0051  -51.8384 C.ar      23 UNK        -0.0193 
     12 C12         2.1402  -21.0186  -51.0376 C.ar      23 UNK        -0.1150 
     13 C13         2.2906  -20.9833  -49.6481 C.ar      23 UNK        -0.0193 
     14 C14         2.9820  -19.9193  -49.0612 C.ar      23 UNK        -0.1150 
     15 C15         1.6601  -22.0609  -48.7780 C.3       23 UNK        -0.0205 
     16 S16         2.2287  -23.7368  -49.1950 S.3       23 UNK        -0.2404 
     17 C17         1.0386  -24.7397  -48.2401 C.3       23 UNK        -0.0398 
     18 CA          1.6625  -25.3823  -46.9763 C.3       11 UNK         0.1400 
     19 N           2.1444  -24.3699  -46.0316 N.am      11 UNK        -0.5000 
     20 C           3.1781  -24.5344  -45.1947 C.2       10 UNK         0.5000 
     21 O           3.8770  -25.5476  -45.1641 O.2       10 UNK        -0.5000 
     22 CA          3.4633  -23.3902  -44.2010 C.3       10 UNK         0.1400 
     23 CB          4.6222  -22.5213  -44.7117 C.3       10 UNK        -0.1800 
     24 N           2.2982  -22.5399  -43.9311 N.am      10 UNK        -0.5000 
     25 C           1.1740  -22.9552  -43.3241 C.2       9 UNK         0.5000 
     26 O           1.0130  -24.1072  -42.9212 O.2       9 UNK        -0.5000 
     27 CA          0.0144  -21.9486  -43.1777 C.3       9 UNK         0.1400 
     28 CB         -0.0140  -21.3658  -41.7576 C.3       9 UNK        -0.1800 
     29 N           0.0548  -20.8466  -44.1379 N.am      9 UNK        -0.5000 
     30 C          -0.0235  -20.9697  -45.4701 C.2       8 UNK         0.5000 
     31 O          -0.1899  -22.0453  -46.0495 O.2       8 UNK        -0.5000 
     32 CA          0.1582  -19.6784  -46.2921 C.3       8 UNK         0.1400 
     33 CB         -1.2074  -19.0613  -46.6154 C.3       8 UNK        -0.1800 
     34 N           1.0031  -18.6661  -45.6488 N.am      8 UNK        -0.5000 
     35 C           2.2575  -18.8522  -45.2091 C.2       7 UNK         0.5000 
     36 O           2.8678  -19.9117  -45.3410 O.2       7 UNK        -0.5000 
     37 CA          2.9376  -17.6865  -44.4670 C.3       7 UNK         0.1400 
     38 CB          4.0117  -17.0284  -45.3446 C.3       7 UNK        -0.1800 
     39 N           2.0102  -16.6553  -44.0043 N.am      7 UNK        -0.5000 
     40 C           1.1058  -16.7903  -43.0255 C.2       6 UNK         0.5000 
     41 O           0.9187  -17.8502  -42.4249 O.2       6 UNK        -0.5000 
     42 CA          0.2516  -15.5458  -42.6832 C.3       6 UNK         0.1400 
     43 CB         -0.0269  -15.4304  -41.1711 C.3       6 UNK        -0.1800 
     44 N           0.7719  -14.2730  -43.2066 N.am      6 UNK        -0.5000 
     45 C           1.9551  -13.6945  -42.9396 C.2       5 UNK         0.5000 
     46 O           2.8082  -14.1784  -42.1956 O.2       5 UNK        -0.5000 
     47 CA          2.2458  -12.3524  -43.6384 C.3       5 UNK         0.1400 
     48 CB          2.9894  -12.5887  -44.9612 C.3       5 UNK        -0.1800 
     49 N           1.0351  -11.5663  -43.8877 N.am      5 UNK        -0.5000 
     50 C           0.3461  -10.9463  -42.9180 C.2       4 UNK         0.5000 
     51 O           0.6959  -10.9409  -41.7367 O.2       4 UNK        -0.5000 
     52 CA         -0.9455  -10.2014  -43.3100 C.3       4 UNK         0.1400 
     53 CB         -0.6817   -8.6902  -43.4024 C.3       4 UNK        -0.1800 
     54 N          -1.5808  -10.6419  -44.5545 N.am      4 UNK        -0.5000 
     55 C          -2.0625  -11.8662  -44.8067 C.2       3 UNK         0.5000 
     56 O          -1.9122  -12.8252  -44.0460 O.2       3 UNK        -0.5000 
     57 CA         -2.8592  -12.0462  -46.1145 C.3       3 UNK         0.1400 
     58 CB         -2.6693  -10.9006  -47.1309 C.3       3 UNK        -0.1800 
     59 N          -2.4726  -13.3024  -46.7452 N.am      3 UNK        -0.5000 
     60 C          -3.1903  -14.4329  -46.7354 C.2       2 UNK         0.5000 
     61 O          -4.3089  -14.5262  -46.2280 O.2       2 UNK        -0.5000 
     62 CA         -2.5716  -15.6710  -47.4166 C.3       2 UNK         0.1400 
     63 CB         -3.4496  -16.1656  -48.5777 C.3       2 UNK        -0.1800 
     64 N          -1.2193  -15.4290  -47.9250 N.am      2 UNK        -0.5000 
     65 C          -0.0992  -15.5857  -47.2090 C.2       1 UNK         0.5000 
     66 O          -0.0805  -15.9876  -46.0466 O.2       1 UNK        -0.5000 
     67 C           0.6609  -26.3595  -46.3160 C.2       11 UNK         0.5000 
     68 O           0.1716  -27.2578  -47.0014 O.2       11 UNK        -0.5000 
     69 N           0.3278  -26.1561  -45.0292 N.am      12 UNK        -0.5000 
     70 CA         -0.6190  -26.8984  -44.1798 C.3       12 UNK         0.1400 
     71 CB         -0.2317  -28.3846  -44.0622 C.3       12 UNK        -0.1800 
     72 C          -2.1010  -26.7365  -44.5768 C.2       12 UNK         0.5000 
     73 O          -2.9563  -26.6343  -43.6978 O.2       12 UNK        -0.5000 
     74 N          -2.3777  -26.6737  -45.8837 N.am      13 UNK        -0.5000 
     75 CA         -3.6958  -26.4631  -46.4854 C.3       13 UNK         0.1400 
     76 CB         -3.6576  -27.0020  -47.9255 C.3       13 UNK        -0.1800 
     77 C          -4.1587  -24.9905  -46.4711 C.2       13 UNK         0.5000 
     78 O          -5.2280  -24.6974  -47.0077 O.2       13 UNK        -0.5000 
     79 N          -3.3423  -24.0846  -45.9089 N.am      14 UNK        -0.5000 
     80 CA         -3.5629  -22.6361  -45.8161 C.3       14 UNK         0.1400 
     81 CB         -4.7545  -22.3212  -44.8877 C.3       14 UNK        -0.1800 
     82 C          -3.6912  -21.9814  -47.2063 C.2       14 UNK         0.5000 
     83 O          -4.6056  -21.1898  -47.4339 O.2       14 UNK        -0.5000 
     84 N          -2.7926  -22.3701  -48.1259 N.am      15 UNK        -0.5000 
     85 CA         -2.7871  -22.0158  -49.5531 C.3       15 UNK         0.1400 
     86 CB         -2.4137  -20.5314  -49.7526 C.3       15 UNK        -0.1800 
     87 C          -4.1057  -22.4137  -50.2531 C.2       15 UNK         0.5000 
     88 O          -4.6968  -21.6106  -50.9766 O.2       15 UNK        -0.5000 
     89 N          -4.5583  -23.6461  -49.9726 N.am      16 UNK        -0.5000 
     90 CA         -5.8303  -24.2419  -50.3972 C.3       16 UNK         0.1400 
     91 CB         -5.8349  -24.4793  -51.9227 C.3       16 UNK        -0.1800 
     92 C          -7.0410  -23.4199  -49.9083 C.2       16 UNK         0.5000 
     93 O          -7.9210  -23.0853  -50.7002 O.2       16 UNK        -0.5000 
     94 N          -7.0286  -23.0630  -48.6154 N.am      17 UNK        -0.5000 
     95 CA         -7.9601  -22.1439  -47.9481 C.3       17 UNK         0.1400 
     96 CB         -9.3514  -22.7931  -47.7998 C.3       17 UNK        -0.1800 
     97 C          -8.0033  -20.7573  -48.6313 C.2       17 UNK         0.5000 
     98 O          -9.0805  -20.2255  -48.9058 O.2       17 UNK        -0.5000 
     99 N          -6.8072  -20.2263  -48.9197 N.am      18 UNK        -0.5000 
    100 CA        -6.5016  -18.9723  -49.6145 C.3       18 UNK         0.1400 
    101 CB        -7.0209  -17.7632  -48.8089 C.3       18 UNK        -0.1800 
    102 C         -6.9357  -18.9187  -51.0973 C.2       18 UNK         0.5000 
    103 O         -6.9125  -17.8359  -51.6855 O.2       18 UNK        -0.5000 
    104 N         -7.3101  -20.0595  -51.6948 N.am      19 UNK        -0.5000 
    105 CA        -7.7199  -20.1476  -53.0978 C.3       19 UNK         0.1400 
    106 CB        -8.5737  -21.4054  -53.3129 C.3       19 UNK        -0.1800 
    107 C         -6.5321  -20.1395  -54.0766 C.2       19 UNK         0.5000 
    108 O         -6.7092  -19.7265  -55.2241 O.2       19 UNK        -0.5000 
    109 N         -5.3533  -20.5996  -53.6332 N.am      20 UNK        -0.5000 
    110 CA        -4.1344  -20.6255  -54.4367 C.3       20 UNK         0.1400 
    111 CB        -3.1657  -21.6852  -53.8837 C.3       20 UNK        -0.1800 
    112 C         -3.4945  -19.2280  -54.4734 C.2       20 UNK         0.5000 
    113 O         -2.7652  -18.8574  -53.5523 O.2       20 UNK        -0.5000 
    114 N         -3.7645  -18.4760  -55.5467 N.am      21 UNK        -0.5000 
    115 CA        -3.1901  -17.1566  -55.8281 C.3       21 UNK         0.1400 
    116 CB        -4.1741  -16.3700  -56.7130 C.3       21 UNK        -0.1800 
    117 C         -1.7806  -17.2695  -56.4536 C.2       21 UNK         0.5000 
    118 O         -1.5034  -16.6583  -57.4876 O.2       21 UNK        -0.5000 
    119 N         -0.9284  -18.0896  -55.8328 N.am      22 UNK        -0.5000 
    120 CA         0.4595  -18.3595  -56.2237 C.3       22 UNK         0.1400 
    121 C          1.4385  -17.1965  -55.8890 C.2       22 UNK         0.5000 
    122 N          2.6225  -17.1898  -56.4874 N.am      22 UNK        -0.7600 
    123 O          1.1510  -16.3097  -55.0873 O.2       22 UNK        -0.5000 
    124 C124        0.9322  -19.7239  -55.6548 C.3       23 UNK        -0.0398 
    125 S125        0.7715  -19.8675  -53.8391 S.3       23 UNK        -0.2404 
    126 C126        2.5126  -20.0559  -53.3496 C.3       23 UNK        -0.0205 
    127 H127       -0.2647  -11.3133  -49.5282 H         1 UNK         0.0600 
    128 H128        1.1277  -12.0329  -50.3435 H         1 UNK         0.0600 
    129 H129        1.3737  -10.8647  -49.0421 H         1 UNK         0.0600 
    130 H130        1.4007  -14.1523  -49.7156 H         1 UNK         0.3000 
    131 H131        1.9408  -14.9810  -47.1178 H         1 UNK         0.0600 
    132 H132        1.8547  -17.3047  -48.0136 H         1 UNK         0.0800 
    133 H133        1.0768  -16.7457  -49.4713 H         1 UNK         0.0800 
    134 H134        5.2506  -17.6620  -49.6299 H         1 UNK         0.0800 
    135 H135        4.3892  -17.9063  -48.1341 H         1 UNK         0.0800 
    136 H136        3.7733  -18.1544  -51.8482 H         1 UNK         0.1150 
    137 H137        1.5978  -21.8328  -51.4977 H         1 UNK         0.1150 
    138 H138        3.0986  -19.8834  -47.9877 H         1 UNK         0.1150 
    139 H139        1.8925  -21.8849  -47.7276 H         1 UNK         0.0800 
    140 H140        0.5762  -21.9986  -48.8825 H         1 UNK         0.0800 
    141 H141        0.6703  -25.5113  -48.9187 H         1 UNK         0.0800 
    142 H142        0.1691  -24.1370  -47.9738 H         1 UNK         0.0800 
    143 H143        2.5089  -25.9899  -47.3037 H         1 UNK         0.0600 
    144 H144        1.6123  -23.5105  -45.9848 H         1 UNK         0.3000 
    145 H145        3.7683  -23.8443  -43.2560 H         1 UNK         0.0600 
    146 H146        4.3950  -22.0803  -45.6832 H         1 UNK         0.0600 
    147 H147        4.8468  -21.7106  -44.0183 H         1 UNK         0.0600 
    148 H148        5.5314  -23.1126  -44.8270 H         1 UNK         0.0600 
    149 H149        2.3556  -21.5853  -44.2705 H         1 UNK         0.3000 
    150 H150       -0.9145  -22.4984  -43.3419 H         1 UNK         0.0600 
    151 H151       -0.0705  -22.1573  -41.0091 H         1 UNK         0.0600 
    152 H152       -0.8807  -20.7204  -41.6131 H         1 UNK         0.0600 
    153 H153        0.8799  -20.7767  -41.5479 H         1 UNK         0.0600 
    154 H154        0.2118  -19.9245  -43.7531 H         1 UNK         0.3000 
    155 H155        0.6317  -19.9530  -47.2335 H         1 UNK         0.0600 
    156 H156       -1.9135  -19.8130  -46.9604 H         1 UNK         0.0600 
    157 H157       -1.1210  -18.3254  -47.4128 H         1 UNK         0.0600 
    158 H158       -1.6484  -18.5765  -45.7438 H         1 UNK         0.0600 
    159 H159        0.5858  -17.7490  -45.5185 H         1 UNK         0.3000 
    160 H160        3.4298  -18.1109  -43.5896 H         1 UNK         0.0600 
    161 H161        4.5557  -16.2622  -44.7917 H         1 UNK         0.0600 
    162 H162        3.5804  -16.5589  -46.2278 H         1 UNK         0.0600 
    163 H163        4.7440  -17.7626  -45.6828 H         1 UNK         0.0600 
    164 H164        2.0579  -15.7595  -44.4646 H         1 UNK         0.3000 
    165 H165       -0.7059  -15.6992  -43.1831 H         1 UNK         0.0600 
    166 H166        0.8946  -15.3309  -40.5968 H         1 UNK         0.0600 
    167 H167       -0.6540  -14.5660  -40.9522 H         1 UNK         0.0600 
    168 H168       -0.5507  -16.3116  -40.7989 H         1 UNK         0.0600 
    169 H169        0.1303  -13.7727  -43.8106 H         1 UNK         0.3000 
    170 H170        2.9019  -11.7730  -42.9851 H         1 UNK         0.0600 
    171 H171        2.4101  -13.2116  -45.6402 H         1 UNK         0.0600 
    172 H172        3.2067  -11.6489  -45.4688 H         1 UNK         0.0600 
    173 H173        3.9406  -13.0937  -44.7882 H         1 UNK         0.0600 
    174 H174        0.6858  -11.5407  -44.8367 H         1 UNK         0.3000 
    175 H175       -1.6634  -10.3709  -42.5050 H         1 UNK         0.0600 
    176 H176        0.0034   -8.4520  -44.2170 H         1 UNK         0.0600 
    177 H177       -1.6061   -8.1362  -43.5664 H         1 UNK         0.0600 
    178 H178       -0.2389   -8.3116  -42.4800 H         1 UNK         0.0600 
    179 H179       -1.7284   -9.9257  -45.2505 H         1 UNK         0.3000 
    180 H180       -3.9147  -12.0699  -45.8374 H         1 UNK         0.0600 
    181 H181       -1.6198  -10.7453  -47.3822 H         1 UNK         0.0600 
    182 H182       -3.0664   -9.9597  -46.7485 H         1 UNK         0.0600 
    183 H183       -3.2011  -11.1124  -48.0587 H         1 UNK         0.0600 
    184 H184       -1.5234  -13.3324  -47.0972 H         1 UNK         0.3000 
    185 H185       -2.5430  -16.4580  -46.6614 H         1 UNK         0.0600 
    186 H186       -3.0412  -17.0730  -49.0233 H         1 UNK         0.0600 
    187 H187       -4.4552  -16.4027  -48.2305 H         1 UNK         0.0600 
    188 H188       -3.5408  -15.4148  -49.3634 H         1 UNK         0.0600 
    189 H189       -1.1475  -15.0753  -48.8682 H         1 UNK         0.3000 
    190 H190        0.7749  -25.3812  -44.5520 H         1 UNK         0.3000 
    191 H191       -0.5189  -26.4600  -43.1856 H         1 UNK         0.0600 
    192 H192       -0.3439  -28.9147  -45.0082 H         1 UNK         0.0600 
    193 H193        0.8015  -28.4974  -43.7339 H         1 UNK         0.0600 
    194 H194       -0.8622  -28.8920  -43.3311 H         1 UNK         0.0600 
    195 H195       -1.6012  -26.8240  -46.5218 H         1 UNK         0.3000 
    196 H196       -4.4337  -27.0386  -45.9229 H         1 UNK         0.0600 
    197 H197       -3.3722  -28.0540  -47.9436 H         1 UNK         0.0600 
    198 H198       -2.9456  -26.4526  -48.5427 H         1 UNK         0.0600 
    199 H199       -4.6357  -26.9278  -48.4025 H         1 UNK         0.0600 
    200 H200       -2.4803  -24.4256  -45.5102 H         1 UNK         0.3000 
    201 H201       -2.6768  -22.2104  -45.3493 H         1 UNK         0.0600 
    202 H202       -4.8515  -21.2465  -44.7289 H         1 UNK         0.0600 
    203 H203       -4.6224  -22.7824  -43.9091 H         1 UNK         0.0600 
    204 H204       -5.6993  -22.6761  -45.2998 H         1 UNK         0.0600 
    205 H205       -2.0696  -23.0073  -47.8250 H         1 UNK         0.3000 
    206 H206       -2.0044  -22.6137  -50.0224 H         1 UNK         0.0600 
    207 H207       -1.4316  -20.3151  -49.3333 H         1 UNK         0.0600 
    208 H208       -3.1355  -19.8622  -49.2847 H         1 UNK         0.0600 
    209 H209       -2.3704  -20.2729  -50.8112 H         1 UNK         0.0600 
    210 H210       -4.0216  -24.2016  -49.3238 H         1 UNK         0.3000 
    211 H211       -5.9008  -25.2146  -49.9086 H         1 UNK         0.0600 
    212 H212       -4.9784  -25.0787  -52.2304 H         1 UNK         0.0600 
    213 H213       -6.7336  -25.0145  -52.2310 H         1 UNK         0.0600 
    214 H214       -5.8057  -23.5434  -52.4816 H         1 UNK         0.0600 
    215 H215       -6.2769  -23.4256  -48.0348 H         1 UNK         0.3000 
    216 H216       -7.5632  -21.9787  -46.9455 H         1 UNK         0.0600 
    217 H217      -10.0157  -22.1610  -47.2095 H         1 UNK         0.0600 
    218 H218       -9.8288  -22.9562  -48.7664 H         1 UNK         0.0600 
    219 H219       -9.2839  -23.7555  -47.2925 H         1 UNK         0.0600 
    220 H220       -5.9873  -20.7368  -48.5975 H         1 UNK         0.3000 
    221 H221       -5.4129  -18.9090  -49.6294 H         1 UNK         0.0600 
    222 H222       -8.1102  -17.7267  -48.7889 H         1 UNK         0.0600 
    223 H223       -6.6662  -17.7950  -47.7786 H         1 UNK         0.0600 
    224 H224       -6.6742  -16.8238  -49.2404 H         1 UNK         0.0600 
    225 H225       -7.2892  -20.9232  -51.1665 H         1 UNK         0.3000 
    226 H226       -8.3448  -19.2823  -53.3289 H         1 UNK         0.0600 
    227 H227       -9.4015  -21.4504  -52.6048 H         1 UNK         0.0600 
    228 H228       -9.0012  -21.4170  -54.3161 H         1 UNK         0.0600 
    229 H229       -7.9836  -22.3154  -53.2022 H         1 UNK         0.0600 
    230 H230       -5.2624  -20.8934  -52.6633 H         1 UNK         0.3000 
    231 H231       -4.3874  -20.9234  -55.4567 H         1 UNK         0.0600 
    232 H232       -2.2816  -21.7682  -54.5169 H         1 UNK         0.0600 
    233 H233       -3.6345  -22.6686  -53.8447 H         1 UNK         0.0600 
    234 H234       -2.8204  -21.4394  -52.8803 H         1 UNK         0.0600 
    235 H235       -4.3901  -18.8472  -56.2482 H         1 UNK         0.3000 
    236 H236       -3.0802  -16.6087  -54.8899 H         1 UNK         0.0600 
    237 H237       -5.1487  -16.2791  -56.2328 H         1 UNK         0.0600 
    238 H238       -3.8113  -15.3586  -56.9002 H         1 UNK         0.0600 
    239 H239       -4.3204  -16.8527  -57.6801 H         1 UNK         0.0600 
    240 H240       -1.2242  -18.5053  -54.9568 H         1 UNK         0.3000 
    241 H241        0.4649  -18.4498  -57.3118 H         1 UNK         0.0600 
    242 H242        3.2695  -16.4453  -56.2783 H         1 UNK         0.3800 
    243 H243        2.8851  -17.8955  -57.1581 H         1 UNK         0.3800 
    244 H244        1.9577  -19.9366  -55.9604 H         1 UNK         0.0800 
    245 H245        0.3320  -20.5206  -56.0961 H         1 UNK         0.0800 
    246 H246        3.1055  -19.2719  -53.8238 H         1 UNK         0.0800 
    247 H247        2.8944  -21.0072  -53.7230 H         1 UNK         0.0800 
@<TRIPOS>BOND
     1    1    2 1    
     2    1  127 1    
     3    1  128 1    
     4    1  129 1    
     5    2    3 2    
     6    2    4 am   BACKBONE|DICT|INTERRES
     7    4    5 1    
     8    4  130 1    
     9    5    6 1    
    10    5   65 1    
    11    5  131 1    
    12    6    7 1    
    13    6  132 1    
    14    6  133 1    
    15    7    8 1    
    16    8    9 1    
    17    8  134 1    
    18    8  135 1    
    19    9   10 ar   
    20    9   14 ar   
    21   10   11 ar   
    22   10  136 1    
    23   11   12 ar   
    24   11  126 1    
    25   12   13 ar   
    26   12  137 1    
    27   13   14 ar   
    28   13   15 1    
    29   14  138 1    
    30   15   16 1    
    31   15  139 1    
    32   15  140 1    
    33   16   17 1    
    34   17   18 1    
    35   17  141 1    
    36   17  142 1    
    37   18   19 1    
    38   18   67 1    
    39   18  143 1    
    40   19   20 am   BACKBONE|DICT|INTERRES
    41   19  144 1    
    42   20   21 2    
    43   20   22 1    
    44   22   23 1    
    45   22   24 1    
    46   22  145 1    
    47   23  146 1    
    48   23  147 1    
    49   23  148 1    
    50   24   25 am   BACKBONE|DICT|INTERRES
    51   24  149 1    
    52   25   26 2    
    53   25   27 1    
    54   27   28 1    
    55   27   29 1    
    56   27  150 1    
    57   28  151 1    
    58   28  152 1    
    59   28  153 1    
    60   29   30 am   BACKBONE|DICT|INTERRES
    61   29  154 1    
    62   30   31 2    
    63   30   32 1    
    64   32   33 1    
    65   32   34 1    
    66   32  155 1    
    67   33  156 1    
    68   33  157 1    
    69   33  158 1    
    70   34   35 am   BACKBONE|DICT|INTERRES
    71   34  159 1    
    72   35   36 2    
    73   35   37 1    
    74   37   38 1    
    75   37   39 1    
    76   37  160 1    
    77   38  161 1    
    78   38  162 1    
    79   38  163 1    
    80   39   40 am   BACKBONE|DICT|INTERRES
    81   39  164 1    
    82   40   41 2    
    83   40   42 1    
    84   42   43 1    
    85   42   44 1    
    86   42  165 1    
    87   43  166 1    
    88   43  167 1    
    89   43  168 1    
    90   44   45 am   BACKBONE|DICT|INTERRES
    91   44  169 1    
    92   45   46 2    
    93   45   47 1    
    94   47   48 1    
    95   47   49 1    
    96   47  170 1    
    97   48  171 1    
    98   48  172 1    
    99   48  173 1    
   100   49   50 am   BACKBONE|DICT|INTERRES
   101   49  174 1    
   102   50   51 2    
   103   50   52 1    
   104   52   53 1    
   105   52   54 1    
   106   52  175 1    
   107   53  176 1    
   108   53  177 1    
   109   53  178 1    
   110   54   55 am   BACKBONE|DICT|INTERRES
   111   54  179 1    
   112   55   56 2    
   113   55   57 1    
   114   57   58 1    
   115   57   59 1    
   116   57  180 1    
   117   58  181 1    
   118   58  182 1    
   119   58  183 1    
   120   59   60 am   BACKBONE|DICT|INTERRES
   121   59  184 1    
   122   60   61 2    
   123   60   62 1    
   124   62   63 1    
   125   62   64 1    
   126   62  185 1    
   127   63  186 1    
   128   63  187 1    
   129   63  188 1    
   130   64   65 am   BACKBONE|DICT|INTERRES
   131   64  189 1    
   132   65   66 2    
   133   67   68 2    
   134   67   69 am   BACKBONE|DICT|INTERRES
   135   69   70 1    
   136   69  190 1    
   137   70   71 1    
   138   70   72 1    
   139   70  191 1    
   140   71  192 1    
   141   71  193 1    
   142   71  194 1    
   143   72   73 2    
   144   72   74 am   BACKBONE|DICT|INTERRES
   145   74   75 1    
   146   74  195 1    
   147   75   76 1    
   148   75   77 1    
   149   75  196 1    
   150   76  197 1    
   151   76  198 1    
   152   76  199 1    
   153   77   78 2    
   154   77   79 am   BACKBONE|DICT|INTERRES
   155   79   80 1    
   156   79  200 1    
   157   80   81 1    
   158   80   82 1    
   159   80  201 1    
   160   81  202 1    
   161   81  203 1    
   162   81  204 1    
   163   82   83 2    
   164   82   84 am   BACKBONE|DICT|INTERRES
   165   84   85 1    
   166   84  205 1    
   167   85   86 1    
   168   85   87 1    
   169   85  206 1    
   170   86  207 1    
   171   86  208 1    
   172   86  209 1    
   173   87   88 2    
   174   87   89 am   BACKBONE|DICT|INTERRES
   175   89   90 1    
   176   89  210 1    
   177   90   91 1    
   178   90   92 1    
   179   90  211 1    
   180   91  212 1    
   181   91  213 1    
   182   91  214 1    
   183   92   93 2    
   184   92   94 am   BACKBONE|DICT|INTERRES
   185   94   95 1    
   186   94  215 1    
   187   95   96 1    
   188   95   97 1    
   189   95  216 1    
   190   96  217 1    
   191   96  218 1    
   192   96  219 1    
   193   97   98 2    
   194   97   99 am   BACKBONE|DICT|INTERRES
   195   99  100 1    
   196   99  220 1    
   197  100  101 1    
   198  100  102 1    
   199  100  221 1    
   200  101  222 1    
   201  101  223 1    
   202  101  224 1    
   203  102  103 2    
   204  102  104 am   BACKBONE|DICT|INTERRES
   205  104  105 1    
   206  104  225 1    
   207  105  106 1    
   208  105  107 1    
   209  105  226 1    
   210  106  227 1    
   211  106  228 1    
   212  106  229 1    
   213  107  108 2    
   214  107  109 am   BACKBONE|DICT|INTERRES
   215  109  110 1    
   216  109  230 1    
   217  110  111 1    
   218  110  112 1    
   219  110  231 1    
   220  111  232 1    
   221  111  233 1    
   222  111  234 1    
   223  112  113 2    
   224  112  114 am   BACKBONE|DICT|INTERRES
   225  114  115 1    
   226  114  235 1    
   227  115  116 1    
   228  115  117 1    
   229  115  236 1    
   230  116  237 1    
   231  116  238 1    
   232  116  239 1    
   233  117  118 2    
   234  117  119 am   BACKBONE|DICT|INTERRES
   235  119  120 1    
   236  119  240 1    
   237  120  121 1    
   238  120  124 1    
   239  120  241 1    
   240  121  122 am   BACKBONE|DICT|INTERRES
   241  121  123 2    
   242  122  242 1    
   243  122  243 1    
   244  124  125 1    
   245  124  244 1    
   246  124  245 1    
   247  125  126 1    
   248  126  246 1    
   249  126  247 1    
@<TRIPOS>SUBSTRUCTURE
     1 UNK         1 GROUP             0       ****    0 ROOT    
