@<TRIPOS>MOLECULE
3R540
247   249    1
SMALL
USER_CHARGES


@<TRIPOS>ATOM
      1 CA         -0.9447  -17.2463  -48.5204 C.3       0 UNK        -0.1800 
      2 C          -0.4501  -15.8141  -48.4375 C.2       0 UNK         0.5000 
      3 O          -1.2592  -14.8928  -48.3250 O.2       0 UNK        -0.5000 
      4 N           0.8725  -15.6162  -48.4939 N.am      1 UNK        -0.5000 
      5 CA          1.5405  -14.3137  -48.4325 C.3       1 UNK         0.1400 
      6 C6          2.9432  -14.3456  -49.0946 C.3       23 UNK        -0.0398 
      7 S7          4.1008  -15.6026  -48.4398 S.3       23 UNK        -0.2404 
      8 C8          4.5001  -16.6008  -49.9103 C.3       23 UNK        -0.0205 
      9 C9          3.6682  -17.8723  -49.9867 C.ar      23 UNK        -0.0193 
     10 C10         2.6956  -18.0379  -50.9776 C.ar      23 UNK        -0.1150 
     11 C11         1.9837  -19.2387  -51.0762 C.ar      23 UNK        -0.0193 
     12 C12         2.2482  -20.2716  -50.1725 C.ar      23 UNK        -0.1150 
     13 C13         3.2125  -20.1163  -49.1707 C.ar      23 UNK        -0.0193 
     14 C14         3.9175  -18.9131  -49.0879 C.ar      23 UNK        -0.1150 
     15 C15         3.5353  -21.2423  -48.1911 C.3       23 UNK        -0.0205 
     16 S16         2.0794  -22.1636  -47.5935 S.3       23 UNK        -0.2404 
     17 C17         1.1149  -20.8309  -46.8080 C.3       23 UNK        -0.0398 
     18 CA         -0.3647  -21.2233  -46.5750 C.3       11 UNK         0.1400 
     19 N          -0.9033  -20.5596  -45.3864 N.am      11 UNK        -0.5000 
     20 C          -1.9618  -20.9706  -44.6749 C.2       10 UNK         0.5000 
     21 O          -2.6071  -21.9832  -44.9485 O.2       10 UNK        -0.5000 
     22 CA         -2.3940  -20.0942  -43.4800 C.3       10 UNK         0.1400 
     23 CB         -1.9415  -20.7330  -42.1584 C.3       10 UNK        -0.1800 
     24 N          -1.8885  -18.7200  -43.5347 N.am      10 UNK        -0.5000 
     25 C          -2.2021  -17.8125  -44.4704 C.2       9 UNK         0.5000 
     26 O          -2.9988  -18.0232  -45.3845 O.2       9 UNK        -0.5000 
     27 CA         -1.4458  -16.4709  -44.4025 C.3       9 UNK         0.1400 
     28 CB         -2.1241  -15.5366  -43.3886 C.3       9 UNK        -0.1800 
     29 N          -0.0272  -16.6352  -44.0600 N.am      9 UNK        -0.5000 
     30 C           0.8533  -17.3494  -44.7793 C.2       8 UNK         0.5000 
     31 O           0.5664  -17.9215  -45.8272 O.2       8 UNK        -0.5000 
     32 CA          2.2735  -17.5070  -44.2179 C.3       8 UNK         0.1400 
     33 CB          3.1589  -16.3313  -44.6308 C.3       8 UNK        -0.1800 
     34 N           2.2640  -17.6226  -42.7642 N.am      8 UNK        -0.5000 
     35 C           2.0244  -18.7642  -42.1058 C.2       7 UNK         0.5000 
     36 O           1.8592  -19.8524  -42.6577 O.2       7 UNK        -0.5000 
     37 CA          1.9209  -18.6666  -40.5719 C.3       7 UNK         0.1400 
     38 CB          3.3067  -18.8131  -39.9257 C.3       7 UNK        -0.1800 
     39 N           1.3103  -17.4141  -40.1229 N.am      7 UNK        -0.5000 
     40 C           0.0462  -17.0523  -40.3806 C.2       6 UNK         0.5000 
     41 O          -0.7553  -17.7583  -40.9923 O.2       6 UNK        -0.5000 
     42 CA         -0.3834  -15.6497  -39.9145 C.3       6 UNK         0.1400 
     43 CB         -0.9753  -15.7161  -38.4990 C.3       6 UNK        -0.1800 
     44 N           0.6837  -14.6450  -39.9427 N.am      6 UNK        -0.5000 
     45 C           1.3859  -14.2657  -41.0205 C.2       5 UNK         0.5000 
     46 O           1.2657  -14.7910  -42.1303 O.2       5 UNK        -0.5000 
     47 CA          2.3435  -13.0769  -40.8010 C.3       5 UNK         0.1400 
     48 CB          3.2307  -13.2480  -39.5471 C.3       5 UNK        -0.1800 
     49 N           3.1464  -12.7293  -41.9774 N.am      5 UNK        -0.5000 
     50 C           4.2001  -13.3744  -42.4999 C.2       4 UNK         0.5000 
     51 O           4.6370  -14.4391  -42.0601 O.2       4 UNK        -0.5000 
     52 CA          4.9032  -12.6867  -43.6954 C.3       4 UNK         0.1400 
     53 CB          5.6406  -13.6720  -44.6197 C.3       4 UNK        -0.1800 
     54 N           3.9731  -11.8919  -44.4988 N.am      4 UNK        -0.5000 
     55 C           3.7305  -10.5809  -44.3533 C.2       3 UNK         0.5000 
     56 O           4.3400   -9.8586  -43.5645 O.2       3 UNK        -0.5000 
     57 CA          2.5770   -9.9825  -45.1894 C.3       3 UNK         0.1400 
     58 CB          3.1204   -9.3467  -46.4776 C.3       3 UNK        -0.1800 
     59 N           1.5497  -10.9660  -45.5417 N.am      3 UNK        -0.5000 
     60 C           0.8064  -11.6542  -44.6641 C.2       2 UNK         0.5000 
     61 O           0.7822  -11.4012  -43.4590 O.2       2 UNK        -0.5000 
     62 CA         -0.0140  -12.8474  -45.1992 C.3       2 UNK         0.1400 
     63 CB         -1.5136  -12.5144  -45.1725 C.3       2 UNK        -0.1800 
     64 N           0.3267  -13.3317  -46.5434 N.am      2 UNK        -0.5000 
     65 C           1.5231  -13.7280  -46.9994 C.2       1 UNK         0.5000 
     66 O           2.5600  -13.6337  -46.3438 O.2       1 UNK        -0.5000 
     67 C          -1.2423  -21.0148  -47.8344 C.2       11 UNK         0.5000 
     68 O          -0.9766  -21.6324  -48.8633 O.2       11 UNK        -0.5000 
     69 N          -2.3134  -20.2098  -47.7409 N.am      12 UNK        -0.5000 
     70 CA         -3.3119  -20.0219  -48.7999 C.3       12 UNK         0.1400 
     71 CB         -4.3071  -18.9342  -48.3687 C.3       12 UNK        -0.1800 
     72 C          -4.0693  -21.3113  -49.1843 C.2       12 UNK         0.5000 
     73 O          -4.6410  -21.3685  -50.2704 O.2       12 UNK        -0.5000 
     74 N          -4.0532  -22.3197  -48.3022 N.am      13 UNK        -0.5000 
     75 CA         -4.6379  -23.6434  -48.5138 C.3       13 UNK         0.1400 
     76 CB         -5.0079  -24.2266  -47.1403 C.3       13 UNK        -0.1800 
     77 C          -3.7187  -24.6152  -49.2879 C.2       13 UNK         0.5000 
     78 O          -4.1178  -25.7616  -49.5082 O.2       13 UNK        -0.5000 
     79 N          -2.5059  -24.1853  -49.6750 N.am      14 UNK        -0.5000 
     80 CA         -1.4798  -24.9948  -50.3485 C.3       14 UNK         0.1400 
     81 CB         -0.1046  -24.3283  -50.1673 C.3       14 UNK        -0.1800 
     82 C          -1.7862  -25.3144  -51.8315 C.2       14 UNK         0.5000 
     83 O          -0.9082  -25.2001  -52.6886 O.2       14 UNK        -0.5000 
     84 N          -3.0213  -25.7369  -52.1054 N.am      15 UNK        -0.5000 
     85 CA         -3.5056  -26.2297  -53.3887 C.3       15 UNK         0.1400 
     86 CB         -4.0958  -25.0727  -54.2154 C.3       15 UNK        -0.1800 
     87 C          -4.4964  -27.3723  -53.1174 C.2       15 UNK         0.5000 
     88 O          -5.6395  -27.3282  -53.5702 O.2       15 UNK        -0.5000 
     89 N          -4.0402  -28.3648  -52.3372 N.am      16 UNK        -0.5000 
     90 CA         -4.7798  -29.5576  -51.9023 C.3       16 UNK         0.1400 
     91 CB         -5.0707  -30.4862  -53.1004 C.3       16 UNK        -0.1800 
     92 C          -6.0415  -29.2098  -51.0831 C.2       16 UNK         0.5000 
     93 O          -7.1137  -29.7662  -51.3239 O.2       16 UNK        -0.5000 
     94 N          -5.8783  -28.2652  -50.1450 N.am      17 UNK        -0.5000 
     95 CA         -6.8817  -27.6934  -49.2377 C.3       17 UNK         0.1400 
     96 CB         -7.6113  -28.7797  -48.4203 C.3       17 UNK        -0.1800 
     97 C          -7.8637  -26.7050  -49.9004 C.2       17 UNK         0.5000 
     98 O          -8.6442  -26.0767  -49.1828 O.2       17 UNK        -0.5000 
     99 N          -7.7963  -26.5371  -51.2280 N.am      18 UNK        -0.5000 
    100 CA        -8.4543  -25.4495  -51.9500 C.3       18 UNK         0.1400 
    101 CB        -8.7070  -25.8826  -53.4031 C.3       18 UNK        -0.1800 
    102 C         -7.5834  -24.1807  -51.8942 C.2       18 UNK         0.5000 
    103 O         -6.4096  -24.2499  -51.5218 O.2       18 UNK        -0.5000 
    104 N         -8.1747  -23.0399  -52.2667 N.am      19 UNK        -0.5000 
    105 CA        -7.4990  -21.7453  -52.3155 C.3       19 UNK         0.1400 
    106 CB        -8.5424  -20.6347  -52.5171 C.3       19 UNK        -0.1800 
    107 C         -6.4268  -21.7054  -53.4210 C.2       19 UNK         0.5000 
    108 O         -6.7582  -21.8456  -54.6010 O.2       19 UNK        -0.5000 
    109 N         -5.1697  -21.5100  -53.0146 N.am      20 UNK        -0.5000 
    110 CA        -4.0245  -21.2778  -53.8892 C.3       20 UNK         0.1400 
    111 CB        -2.7415  -21.5307  -53.0806 C.3       20 UNK        -0.1800 
    112 C         -4.0390  -19.8484  -54.4645 C.2       20 UNK         0.5000 
    113 O         -4.7439  -18.9760  -53.9490 O.2       20 UNK        -0.5000 
    114 N         -3.2268  -19.6205  -55.5064 N.am      21 UNK        -0.5000 
    115 CA        -3.1063  -18.3470  -56.2310 C.3       21 UNK         0.1400 
    116 CB        -2.1401  -18.5364  -57.4105 C.3       21 UNK        -0.1800 
    117 C         -2.6674  -17.1474  -55.3638 C.2       21 UNK         0.5000 
    118 O         -2.9823  -16.0058  -55.7022 O.2       21 UNK        -0.5000 
    119 N         -1.9710  -17.4304  -54.2577 N.am      22 UNK        -0.5000 
    120 CA        -1.6341  -16.4767  -53.1912 C.3       22 UNK         0.1400 
    121 C         -2.8335  -16.0400  -52.2959 C.2       22 UNK         0.5000 
    122 N         -3.9948  -16.6820  -52.3551 N.am      22 UNK        -0.7600 
    123 O         -2.7120  -15.0771  -51.5451 O.2       22 UNK        -0.5000 
    124 C124       -0.4366  -16.9778  -52.3416 C.3       23 UNK        -0.0398 
    125 S125       -0.6473  -18.6916  -51.7340 S.3       23 UNK        -0.2404 
    126 C126        0.9480  -19.4444  -52.1715 C.3       23 UNK        -0.0205 
    127 H127       -1.6819  -17.3393  -49.3169 H         1 UNK         0.0600 
    128 H128       -0.1337  -17.9488  -48.7158 H         1 UNK         0.0600 
    129 H129       -1.4213  -17.5263  -47.5829 H         1 UNK         0.0600 
    130 H130        1.4927  -16.4132  -48.5390 H         1 UNK         0.3000 
    131 H131        0.9498  -13.6213  -49.0368 H         1 UNK         0.0600 
    132 H132        2.8151  -14.5042  -50.1656 H         1 UNK         0.0800 
    133 H133        3.4223  -13.3691  -49.0066 H         1 UNK         0.0800 
    134 H134        5.5533  -16.8799  -49.8560 H         1 UNK         0.0800 
    135 H135        4.4005  -16.0077  -50.8202 H         1 UNK         0.0800 
    136 H136        2.5068  -17.2415  -51.6828 H         1 UNK         0.1150 
    137 H137        1.7007  -21.2006  -50.2510 H         1 UNK         0.1150 
    138 H138        4.6765  -18.7858  -48.3285 H         1 UNK         0.1150 
    139 H139        4.2132  -21.9421  -48.6810 H         1 UNK         0.0800 
    140 H140        4.0692  -20.8507  -47.3238 H         1 UNK         0.0800 
    141 H141        1.1839  -19.9148  -47.3961 H         1 UNK         0.0800 
    142 H142        1.6053  -20.6132  -45.8578 H         1 UNK         0.0800 
    143 H143       -0.3941  -22.2947  -46.3646 H         1 UNK         0.0600 
    144 H144       -0.4604  -19.6839  -45.1364 H         1 UNK         0.3000 
    145 H145       -3.4848  -20.0501  -43.4863 H         1 UNK         0.0600 
    146 H146       -2.3157  -20.1726  -41.3014 H         1 UNK         0.0600 
    147 H147       -2.3143  -21.7540  -42.0667 H         1 UNK         0.0600 
    148 H148       -0.8538  -20.7706  -42.0838 H         1 UNK         0.0600 
    149 H149       -1.2689  -18.4380  -42.7804 H         1 UNK         0.3000 
    150 H150       -1.4892  -16.0023  -45.3877 H         1 UNK         0.0600 
    151 H151       -3.0880  -15.1954  -43.7676 H         1 UNK         0.0600 
    152 H152       -1.5226  -14.6532  -43.1793 H         1 UNK         0.0600 
    153 H153       -2.3142  -16.0406  -42.4416 H         1 UNK         0.0600 
    154 H154        0.3084  -16.1533  -43.2324 H         1 UNK         0.3000 
    155 H155        2.7060  -18.4136  -44.6472 H         1 UNK         0.0600 
    156 H156        2.7666  -15.3824  -44.2655 H         1 UNK         0.0600 
    157 H157        3.2249  -16.2628  -45.7159 H         1 UNK         0.0600 
    158 H158        4.1724  -16.4480  -44.2475 H         1 UNK         0.0600 
    159 H159        2.3389  -16.7574  -42.2443 H         1 UNK         0.3000 
    160 H160        1.2921  -19.4910  -40.2288 H         1 UNK         0.0600 
    161 H161        3.2360  -18.8218  -38.8379 H         1 UNK         0.0600 
    162 H162        3.9734  -17.9990  -40.2134 H         1 UNK         0.0600 
    163 H163        3.7807  -19.7481  -40.2272 H         1 UNK         0.0600 
    164 H164        1.9023  -16.7692  -39.6205 H         1 UNK         0.3000 
    165 H165       -1.1669  -15.3038  -40.5890 H         1 UNK         0.0600 
    166 H166       -1.3805  -14.7511  -38.1941 H         1 UNK         0.0600 
    167 H167       -1.7913  -16.4386  -38.4501 H         1 UNK         0.0600 
    168 H168       -0.2275  -16.0151  -37.7634 H         1 UNK         0.0600 
    169 H169        0.8477  -14.1580  -39.0737 H         1 UNK         0.3000 
    170 H170        1.7037  -12.2096  -40.6323 H         1 UNK         0.0600 
    171 H171        2.6358  -13.2489  -38.6336 H         1 UNK         0.0600 
    172 H172        3.7926  -14.1822  -39.5700 H         1 UNK         0.0600 
    173 H173        3.9461  -12.4305  -39.4565 H         1 UNK         0.0600 
    174 H174        2.8188  -11.9117  -42.4741 H         1 UNK         0.3000 
    175 H175        5.6598  -12.0310  -43.2603 H         1 UNK         0.0600 
    176 H176        4.9479  -14.3161  -45.1588 H         1 UNK         0.0600 
    177 H177        6.2323  -13.1371  -45.3625 H         1 UNK         0.0600 
    178 H178        6.3266  -14.3107  -44.0622 H         1 UNK         0.0600 
    179 H179        3.4133  -12.4219  -45.1639 H         1 UNK         0.3000 
    180 H180        2.1037   -9.2019  -44.5905 H         1 UNK         0.0600 
    181 H181        3.5871  -10.0894  -47.1262 H         1 UNK         0.0600 
    182 H182        3.8718   -8.5888  -46.2522 H         1 UNK         0.0600 
    183 H183        2.3265   -8.8576  -47.0423 H         1 UNK         0.0600 
    184 H184        1.5096  -11.2475  -46.5096 H         1 UNK         0.3000 
    185 H185        0.1710  -13.6765  -44.5148 H         1 UNK         0.0600 
    186 H186       -1.8348  -12.2237  -44.1714 H         1 UNK         0.0600 
    187 H187       -1.7514  -11.6907  -45.8467 H         1 UNK         0.0600 
    188 H188       -2.1162  -13.3728  -45.4698 H         1 UNK         0.0600 
    189 H189       -0.4630  -13.5201  -47.1540 H         1 UNK         0.3000 
    190 H190       -2.4762  -19.7125  -46.8744 H         1 UNK         0.3000 
    191 H191       -2.7891  -19.6756  -49.6935 H         1 UNK         0.0600 
    192 H192       -4.8436  -19.2187  -47.4627 H         1 UNK         0.0600 
    193 H193       -5.0483  -18.7510  -49.1478 H         1 UNK         0.0600 
    194 H194       -3.8049  -17.9871  -48.1741 H         1 UNK         0.0600 
    195 H195       -3.5625  -22.1808  -47.4295 H         1 UNK         0.3000 
    196 H196       -5.5569  -23.5365  -49.0927 H         1 UNK         0.0600 
    197 H197       -5.4999  -25.1943  -47.2402 H         1 UNK         0.0600 
    198 H198       -5.6960  -23.5707  -46.6066 H         1 UNK         0.0600 
    199 H199       -4.1263  -24.3682  -46.5136 H         1 UNK         0.0600 
    200 H200       -2.2395  -23.2296  -49.4664 H         1 UNK         0.3000 
    201 H201       -1.4350  -25.9576  -49.8356 H         1 UNK         0.0600 
    202 H202       -0.0542  -23.3675  -50.6813 H         1 UNK         0.0600 
    203 H203        0.1165  -24.1586  -49.1135 H         1 UNK         0.0600 
    204 H204        0.6945  -24.9552  -50.5644 H         1 UNK         0.0600 
    205 H205       -3.6758  -25.7971  -51.3287 H         1 UNK         0.3000 
    206 H206       -2.6781  -26.6652  -53.9525 H         1 UNK         0.0600 
    207 H207       -4.9062  -24.5713  -53.6871 H         1 UNK         0.0600 
    208 H208       -3.3328  -24.3290  -54.4425 H         1 UNK         0.0600 
    209 H209       -4.4925  -25.4305  -55.1660 H         1 UNK         0.0600 
    210 H210       -3.0911  -28.2943  -51.9973 H         1 UNK         0.3000 
    211 H211       -4.1194  -30.0992  -51.2234 H         1 UNK         0.0600 
    212 H212       -5.7661  -30.0327  -53.8073 H         1 UNK         0.0600 
    213 H213       -5.5110  -31.4268  -52.7674 H         1 UNK         0.0600 
    214 H214       -4.1560  -30.7310  -53.6403 H         1 UNK         0.0600 
    215 H215       -4.9671  -27.8299  -50.0694 H         1 UNK         0.3000 
    216 H216       -6.3092  -27.0978  -48.5264 H         1 UNK         0.0600 
    217 H217       -8.2927  -29.3672  -49.0357 H         1 UNK         0.0600 
    218 H218       -8.2055  -28.3309  -47.6236 H         1 UNK         0.0600 
    219 H219       -6.9045  -29.4635  -47.9503 H         1 UNK         0.0600 
    220 H220       -7.0953  -27.0500  -51.7464 H         1 UNK         0.3000 
    221 H221       -9.4176  -25.2334  -51.4832 H         1 UNK         0.0600 
    222 H222       -7.7799  -25.9681  -53.9692 H         1 UNK         0.0600 
    223 H223       -9.2187  -26.8442  -53.4478 H         1 UNK         0.0600 
    224 H224       -9.3345  -25.1575  -53.9222 H         1 UNK         0.0600 
    225 H225       -9.1299  -23.0612  -52.5923 H         1 UNK         0.3000 
    226 H226       -7.0226  -21.5786  -51.3478 H         1 UNK         0.0600 
    227 H227       -9.2632  -20.6164  -51.6995 H         1 UNK         0.0600 
    228 H228       -8.0633  -19.6552  -52.5503 H         1 UNK         0.0600 
    229 H229       -9.0935  -20.7620  -53.4496 H         1 UNK         0.0600 
    230 H230       -4.9909  -21.4232  -52.0147 H         1 UNK         0.3000 
    231 H231       -4.0671  -21.9845  -54.7200 H         1 UNK         0.0600 
    232 H232       -2.7236  -22.5438  -52.6794 H         1 UNK         0.0600 
    233 H233       -2.6586  -20.8436  -52.2382 H         1 UNK         0.0600 
    234 H234       -1.8490  -21.4093  -53.6952 H         1 UNK         0.0600 
    235 H235       -2.6682  -20.3834  -55.8608 H         1 UNK         0.3000 
    236 H236       -4.0926  -18.1069  -56.6331 H         1 UNK         0.0600 
    237 H237       -2.0465  -17.6178  -57.9914 H         1 UNK         0.0600 
    238 H238       -1.1411  -18.8128  -57.0707 H         1 UNK         0.0600 
    239 H239       -2.4921  -19.3129  -58.0898 H         1 UNK         0.0600 
    240 H240       -1.7679  -18.3972  -54.0521 H         1 UNK         0.3000 
    241 H241       -1.3042  -15.5592  -53.6824 H         1 UNK         0.0600 
    242 H242       -4.1373  -17.4759  -52.9738 H         1 UNK         0.3800 
    243 H243       -4.7550  -16.3685  -51.7744 H         1 UNK         0.3800 
    244 H244        0.4641  -16.9215  -52.9526 H         1 UNK         0.0800 
    245 H245       -0.2483  -16.3202  -51.4915 H         1 UNK         0.0800 
    246 H246        0.7857  -20.5114  -52.3326 H         1 UNK         0.0800 
    247 H247        1.3143  -19.0534  -53.1215 H         1 UNK         0.0800 
@<TRIPOS>BOND
     1    1    2 1    
     2    1  127 1    
     3    1  128 1    
     4    1  129 1    
     5    2    3 2    
     6    2    4 am   BACKBONE|DICT|INTERRES
     7    4    5 1    
     8    4  130 1    
     9    5    6 1    
    10    5   65 1    
    11    5  131 1    
    12    6    7 1    
    13    6  132 1    
    14    6  133 1    
    15    7    8 1    
    16    8    9 1    
    17    8  134 1    
    18    8  135 1    
    19    9   10 ar   
    20    9   14 ar   
    21   10   11 ar   
    22   10  136 1    
    23   11   12 ar   
    24   11  126 1    
    25   12   13 ar   
    26   12  137 1    
    27   13   14 ar   
    28   13   15 1    
    29   14  138 1    
    30   15   16 1    
    31   15  139 1    
    32   15  140 1    
    33   16   17 1    
    34   17   18 1    
    35   17  141 1    
    36   17  142 1    
    37   18   19 1    
    38   18   67 1    
    39   18  143 1    
    40   19   20 am   BACKBONE|DICT|INTERRES
    41   19  144 1    
    42   20   21 2    
    43   20   22 1    
    44   22   23 1    
    45   22   24 1    
    46   22  145 1    
    47   23  146 1    
    48   23  147 1    
    49   23  148 1    
    50   24   25 am   BACKBONE|DICT|INTERRES
    51   24  149 1    
    52   25   26 2    
    53   25   27 1    
    54   27   28 1    
    55   27   29 1    
    56   27  150 1    
    57   28  151 1    
    58   28  152 1    
    59   28  153 1    
    60   29   30 am   BACKBONE|DICT|INTERRES
    61   29  154 1    
    62   30   31 2    
    63   30   32 1    
    64   32   33 1    
    65   32   34 1    
    66   32  155 1    
    67   33  156 1    
    68   33  157 1    
    69   33  158 1    
    70   34   35 am   BACKBONE|DICT|INTERRES
    71   34  159 1    
    72   35   36 2    
    73   35   37 1    
    74   37   38 1    
    75   37   39 1    
    76   37  160 1    
    77   38  161 1    
    78   38  162 1    
    79   38  163 1    
    80   39   40 am   BACKBONE|DICT|INTERRES
    81   39  164 1    
    82   40   41 2    
    83   40   42 1    
    84   42   43 1    
    85   42   44 1    
    86   42  165 1    
    87   43  166 1    
    88   43  167 1    
    89   43  168 1    
    90   44   45 am   BACKBONE|DICT|INTERRES
    91   44  169 1    
    92   45   46 2    
    93   45   47 1    
    94   47   48 1    
    95   47   49 1    
    96   47  170 1    
    97   48  171 1    
    98   48  172 1    
    99   48  173 1    
   100   49   50 am   BACKBONE|DICT|INTERRES
   101   49  174 1    
   102   50   51 2    
   103   50   52 1    
   104   52   53 1    
   105   52   54 1    
   106   52  175 1    
   107   53  176 1    
   108   53  177 1    
   109   53  178 1    
   110   54   55 am   BACKBONE|DICT|INTERRES
   111   54  179 1    
   112   55   56 2    
   113   55   57 1    
   114   57   58 1    
   115   57   59 1    
   116   57  180 1    
   117   58  181 1    
   118   58  182 1    
   119   58  183 1    
   120   59   60 am   BACKBONE|DICT|INTERRES
   121   59  184 1    
   122   60   61 2    
   123   60   62 1    
   124   62   63 1    
   125   62   64 1    
   126   62  185 1    
   127   63  186 1    
   128   63  187 1    
   129   63  188 1    
   130   64   65 am   BACKBONE|DICT|INTERRES
   131   64  189 1    
   132   65   66 2    
   133   67   68 2    
   134   67   69 am   BACKBONE|DICT|INTERRES
   135   69   70 1    
   136   69  190 1    
   137   70   71 1    
   138   70   72 1    
   139   70  191 1    
   140   71  192 1    
   141   71  193 1    
   142   71  194 1    
   143   72   73 2    
   144   72   74 am   BACKBONE|DICT|INTERRES
   145   74   75 1    
   146   74  195 1    
   147   75   76 1    
   148   75   77 1    
   149   75  196 1    
   150   76  197 1    
   151   76  198 1    
   152   76  199 1    
   153   77   78 2    
   154   77   79 am   BACKBONE|DICT|INTERRES
   155   79   80 1    
   156   79  200 1    
   157   80   81 1    
   158   80   82 1    
   159   80  201 1    
   160   81  202 1    
   161   81  203 1    
   162   81  204 1    
   163   82   83 2    
   164   82   84 am   BACKBONE|DICT|INTERRES
   165   84   85 1    
   166   84  205 1    
   167   85   86 1    
   168   85   87 1    
   169   85  206 1    
   170   86  207 1    
   171   86  208 1    
   172   86  209 1    
   173   87   88 2    
   174   87   89 am   BACKBONE|DICT|INTERRES
   175   89   90 1    
   176   89  210 1    
   177   90   91 1    
   178   90   92 1    
   179   90  211 1    
   180   91  212 1    
   181   91  213 1    
   182   91  214 1    
   183   92   93 2    
   184   92   94 am   BACKBONE|DICT|INTERRES
   185   94   95 1    
   186   94  215 1    
   187   95   96 1    
   188   95   97 1    
   189   95  216 1    
   190   96  217 1    
   191   96  218 1    
   192   96  219 1    
   193   97   98 2    
   194   97   99 am   BACKBONE|DICT|INTERRES
   195   99  100 1    
   196   99  220 1    
   197  100  101 1    
   198  100  102 1    
   199  100  221 1    
   200  101  222 1    
   201  101  223 1    
   202  101  224 1    
   203  102  103 2    
   204  102  104 am   BACKBONE|DICT|INTERRES
   205  104  105 1    
   206  104  225 1    
   207  105  106 1    
   208  105  107 1    
   209  105  226 1    
   210  106  227 1    
   211  106  228 1    
   212  106  229 1    
   213  107  108 2    
   214  107  109 am   BACKBONE|DICT|INTERRES
   215  109  110 1    
   216  109  230 1    
   217  110  111 1    
   218  110  112 1    
   219  110  231 1    
   220  111  232 1    
   221  111  233 1    
   222  111  234 1    
   223  112  113 2    
   224  112  114 am   BACKBONE|DICT|INTERRES
   225  114  115 1    
   226  114  235 1    
   227  115  116 1    
   228  115  117 1    
   229  115  236 1    
   230  116  237 1    
   231  116  238 1    
   232  116  239 1    
   233  117  118 2    
   234  117  119 am   BACKBONE|DICT|INTERRES
   235  119  120 1    
   236  119  240 1    
   237  120  121 1    
   238  120  124 1    
   239  120  241 1    
   240  121  122 am   BACKBONE|DICT|INTERRES
   241  121  123 2    
   242  122  242 1    
   243  122  243 1    
   244  124  125 1    
   245  124  244 1    
   246  124  245 1    
   247  125  126 1    
   248  126  246 1    
   249  126  247 1    
@<TRIPOS>SUBSTRUCTURE
     1 UNK         1 GROUP             0       ****    0 ROOT    
