@<TRIPOS>MOLECULE
3R540
247   249    1
SMALL
USER_CHARGES


@<TRIPOS>ATOM
      1 CA          2.7115  -19.1766  -49.8705 C.3       0 UNK        -0.1800 
      2 C           3.6529  -18.0208  -49.5719 C.2       0 UNK         0.5000 
      3 O           4.8668  -18.2198  -49.5408 O.2       0 UNK        -0.5000 
      4 N           3.0937  -16.8174  -49.3750 N.am      1 UNK        -0.5000 
      5 CA          3.8060  -15.5442  -49.1900 C.3       1 UNK         0.1400 
      6 C6          4.6200  -15.1185  -50.4494 C.3       23 UNK        -0.0398 
      7 S7          3.5894  -14.5480  -51.8473 S.3       23 UNK        -0.2404 
      8 C8          3.1465  -16.0938  -52.7246 C.3       23 UNK        -0.0205 
      9 C9          1.7463  -16.6491  -52.4379 C.ar      23 UNK        -0.0193 
     10 C10         1.3317  -17.8034  -53.1141 C.ar      23 UNK        -0.1150 
     11 C11         0.0649  -18.3521  -52.8860 C.ar      23 UNK        -0.0193 
     12 C12        -0.7919  -17.7478  -51.9651 C.ar      23 UNK        -0.1150 
     13 C13        -0.3941  -16.6011  -51.2791 C.ar      23 UNK        -0.0193 
     14 C14         0.8635  -16.0506  -51.5280 C.ar      23 UNK        -0.1150 
     15 C15        -1.3087  -15.9589  -50.2535 C.3       23 UNK        -0.0205 
     16 S16        -0.9901  -16.6376  -48.5978 S.3       23 UNK        -0.2404 
     17 C17        -1.9727  -18.1755  -48.6281 C.3       23 UNK        -0.0398 
     18 CA         -1.1089  -19.4589  -48.5779 C.3       11 UNK         0.1400 
     19 N          -0.2407  -19.5090  -47.3968 N.am      11 UNK        -0.5000 
     20 C           0.6597  -20.4716  -47.1413 C.2       10 UNK         0.5000 
     21 O           0.8796  -21.4207  -47.8906 O.2       10 UNK        -0.5000 
     22 CA          1.4212  -20.3929  -45.8077 C.3       10 UNK         0.1400 
     23 CB          2.7532  -19.6599  -45.9994 C.3       10 UNK        -0.1800 
     24 N           0.6482  -19.7568  -44.7419 N.am      10 UNK        -0.5000 
     25 C          -0.4962  -20.2489  -44.2427 C.2       9 UNK         0.5000 
     26 O          -1.0079  -21.3029  -44.6264 O.2       9 UNK        -0.5000 
     27 CA         -1.2128  -19.4107  -43.1662 C.3       9 UNK         0.1400 
     28 CB         -0.8733  -19.9409  -41.7662 C.3       9 UNK        -0.1800 
     29 N          -0.9306  -17.9722  -43.2223 N.am      9 UNK        -0.5000 
     30 C          -1.1915  -17.1759  -44.2692 C.2       8 UNK         0.5000 
     31 O          -1.6413  -17.5871  -45.3397 O.2       8 UNK        -0.5000 
     32 CA         -0.9007  -15.6787  -44.0587 C.3       8 UNK         0.1400 
     33 CB         -1.2940  -14.7909  -45.2563 C.3       8 UNK        -0.1800 
     34 N          -1.4879  -15.1839  -42.8096 N.am      8 UNK        -0.5000 
     35 C          -2.7898  -15.0717  -42.5061 C.2       7 UNK         0.5000 
     36 O          -3.7071  -15.3691  -43.2729 O.2       7 UNK        -0.5000 
     37 CA         -3.1045  -14.5085  -41.1046 C.3       7 UNK         0.1400 
     38 CB         -4.5749  -14.7064  -40.6780 C.3       7 UNK        -0.1800 
     39 N          -2.1795  -14.9922  -40.0741 N.am      7 UNK        -0.5000 
     40 C          -2.0402  -16.2494  -39.6232 C.2       6 UNK         0.5000 
     41 O          -2.7149  -17.1963  -40.0276 O.2       6 UNK        -0.5000 
     42 CA         -0.9595  -16.4894  -38.5466 C.3       6 UNK         0.1400 
     43 CB         -0.2801  -17.8609  -38.7053 C.3       6 UNK        -0.1800 
     44 N           0.0716  -15.4530  -38.5914 N.am      6 UNK        -0.5000 
     45 C           0.1835  -14.4187  -37.7475 C.2       5 UNK         0.5000 
     46 O          -0.5484  -14.2504  -36.7720 O.2       5 UNK        -0.5000 
     47 CA          1.2813  -13.3783  -38.0569 C.3       5 UNK         0.1400 
     48 CB          2.5078  -13.6123  -37.1618 C.3       5 UNK        -0.1800 
     49 N           1.7130  -13.3735  -39.4581 N.am      5 UNK        -0.5000 
     50 C           0.9499  -13.0213  -40.5027 C.2       4 UNK         0.5000 
     51 O          -0.2112  -12.6258  -40.3993 O.2       4 UNK        -0.5000 
     52 CA          1.5648  -13.2160  -41.9024 C.3       4 UNK         0.1400 
     53 CB          2.3199  -11.9533  -42.3410 C.3       4 UNK        -0.1800 
     54 N           2.4615  -14.3736  -41.9994 N.am      4 UNK        -0.5000 
     55 C           2.1244  -15.6477  -41.7503 C.2       3 UNK         0.5000 
     56 O           0.9990  -15.9919  -41.3812 O.2       3 UNK        -0.5000 
     57 CA          3.2354  -16.6974  -41.9518 C.3       3 UNK         0.1400 
     58 CB          2.7048  -18.1455  -41.9306 C.3       3 UNK        -0.1800 
     59 N           4.0412  -16.4528  -43.1547 N.am      3 UNK        -0.5000 
     60 C           3.6167  -16.4554  -44.4267 C.2       2 UNK         0.5000 
     61 O           2.4457  -16.6490  -44.7670 O.2       2 UNK        -0.5000 
     62 CA          4.6988  -16.2190  -45.4930 C.3       2 UNK         0.1400 
     63 CB          5.7345  -17.3623  -45.5123 C.3       2 UNK        -0.1800 
     64 N           4.0765  -16.0895  -46.8075 N.am      2 UNK        -0.5000 
     65 C           4.6463  -15.5411  -47.8883 C.2       1 UNK         0.5000 
     66 O           5.7781  -15.0524  -47.8768 O.2       1 UNK        -0.5000 
     67 C          -2.0093  -20.7046  -48.6594 C.2       11 UNK         0.5000 
     68 O          -2.0842  -21.3388  -49.7108 O.2       11 UNK        -0.5000 
     69 N          -2.6442  -21.0480  -47.5307 N.am      12 UNK        -0.5000 
     70 CA         -3.4811  -22.2349  -47.3945 C.3       12 UNK         0.1400 
     71 CB         -4.3479  -22.1094  -46.1334 C.3       12 UNK        -0.1800 
     72 C          -2.6514  -23.5275  -47.3623 C.2       12 UNK         0.5000 
     73 O          -3.0500  -24.5084  -47.9888 O.2       12 UNK        -0.5000 
     74 N          -1.5180  -23.5110  -46.6477 N.am      13 UNK        -0.5000 
     75 CA         -0.6402  -24.6708  -46.4855 C.3       13 UNK         0.1400 
     76 CB          0.4273  -24.3694  -45.4240 C.3       13 UNK        -0.1800 
     77 C           0.0149  -25.1295  -47.8012 C.2       13 UNK         0.5000 
     78 O           0.0286  -26.3286  -48.0814 O.2       13 UNK        -0.5000 
     79 N           0.5356  -24.1763  -48.5866 N.am      14 UNK        -0.5000 
     80 CA          1.2311  -24.4437  -49.8462 C.3       14 UNK         0.1400 
     81 CB          2.0190  -23.1946  -50.2727 C.3       14 UNK        -0.1800 
     82 C           0.2854  -24.8872  -50.9749 C.2       14 UNK         0.5000 
     83 O           0.6570  -25.7497  -51.7716 O.2       14 UNK        -0.5000 
     84 N          -0.9091  -24.2848  -51.0306 N.am      15 UNK        -0.5000 
     85 CA         -1.8799  -24.4908  -52.1065 C.3       15 UNK         0.1400 
     86 CB         -2.5692  -23.1539  -52.3940 C.3       15 UNK        -0.1800 
     87 C          -2.9255  -25.5789  -51.8005 C.2       15 UNK         0.5000 
     88 O          -3.7646  -25.8475  -52.6599 O.2       15 UNK        -0.5000 
     89 N          -2.8805  -26.1676  -50.5960 N.am      16 UNK        -0.5000 
     90 CA         -3.8221  -27.1598  -50.0637 C.3       16 UNK         0.1400 
     91 CB         -3.7540  -28.4798  -50.8604 C.3       16 UNK        -0.1800 
     92 C          -5.2488  -26.5828  -49.9522 C.2       16 UNK         0.5000 
     93 O          -6.1831  -27.0763  -50.5849 O.2       16 UNK        -0.5000 
     94 N          -5.3557  -25.5084  -49.1607 N.am      17 UNK        -0.5000 
     95 CA         -6.5391  -24.7103  -48.8178 C.3       17 UNK         0.1400 
     96 CB         -7.6976  -25.5838  -48.2973 C.3       17 UNK        -0.1800 
     97 C          -7.0057  -23.7320  -49.9132 C.2       17 UNK         0.5000 
     98 O          -7.7908  -22.8332  -49.6068 O.2       17 UNK        -0.5000 
     99 N          -6.4962  -23.8573  -51.1458 N.am      18 UNK        -0.5000 
    100 CA        -6.7661  -22.9509  -52.2664 C.3       18 UNK         0.1400 
    101 CB        -6.5438  -23.7095  -53.5868 C.3       18 UNK        -0.1800 
    102 C         -5.9150  -21.6668  -52.1665 C.2       18 UNK         0.5000 
    103 O         -5.1164  -21.3804  -53.0566 O.2       18 UNK        -0.5000 
    104 N         -6.0762  -20.9325  -51.0574 N.am      19 UNK        -0.5000 
    105 CA        -5.2686  -19.7704  -50.6724 C.3       19 UNK         0.1400 
    106 CB        -5.6455  -19.3603  -49.2402 C.3       19 UNK        -0.1800 
    107 C         -5.3626  -18.5617  -51.6248 C.2       19 UNK         0.5000 
    108 O         -4.4633  -17.7209  -51.6146 O.2       19 UNK        -0.5000 
    109 N         -6.4312  -18.5009  -52.4253 N.am      20 UNK        -0.5000 
    110 CA        -6.6090  -17.5655  -53.5290 C.3       20 UNK         0.1400 
    111 CB        -7.8846  -16.7425  -53.2905 C.3       20 UNK        -0.1800 
    112 C         -6.7206  -18.3759  -54.8285 C.2       20 UNK         0.5000 
    113 O         -7.2866  -19.4725  -54.8129 O.2       20 UNK        -0.5000 
    114 N         -6.1978  -17.8082  -55.9246 N.am      21 UNK        -0.5000 
    115 CA        -6.1429  -18.3865  -57.2743 C.3       21 UNK         0.1400 
    116 CB        -7.5598  -18.5512  -57.8652 C.3       21 UNK        -0.1800 
    117 C         -5.2972  -19.6783  -57.3474 C.2       21 UNK         0.5000 
    118 O         -5.6583  -20.6199  -58.0560 O.2       21 UNK        -0.5000 
    119 N         -4.1752  -19.6902  -56.6159 N.am      22 UNK        -0.5000 
    120 CA        -3.1992  -20.7930  -56.5717 C.3       22 UNK         0.1400 
    121 C         -2.3216  -20.9621  -57.8490 C.2       22 UNK         0.5000 
    122 N         -2.3201  -20.0251  -58.7897 N.am      22 UNK        -0.7600 
    123 O         -1.6387  -21.9722  -57.9952 O.2       22 UNK        -0.5000 
    124 C124       -2.3359  -20.7418  -55.2839 C.3       23 UNK        -0.0398 
    125 S125       -1.4485  -19.1648  -55.0389 S.3       23 UNK        -0.2404 
    126 C126       -0.3948  -19.5987  -53.6215 C.3       23 UNK        -0.0205 
    127 H127        1.6701  -18.8701  -49.7930 H         1 UNK         0.0600 
    128 H128        2.8854  -19.9978  -49.1763 H         1 UNK         0.0600 
    129 H129        2.8794  -19.5450  -50.8824 H         1 UNK         0.0600 
    130 H130        2.0875  -16.7396  -49.4255 H         1 UNK         0.3000 
    131 H131        3.0361  -14.7883  -49.0279 H         1 UNK         0.0600 
    132 H132        5.2662  -14.2711  -50.2154 H         1 UNK         0.0800 
    133 H133        5.2919  -15.9108  -50.7806 H         1 UNK         0.0800 
    134 H134        3.2179  -15.8961  -53.7950 H         1 UNK         0.0800 
    135 H135        3.8890  -16.8626  -52.5075 H         1 UNK         0.0800 
    136 H136        1.9964  -18.2747  -53.8246 H         1 UNK         0.1150 
    137 H137       -1.7700  -18.1716  -51.7858 H         1 UNK         0.1150 
    138 H138        1.1447  -15.1593  -50.9882 H         1 UNK         0.1150 
    139 H139       -1.1379  -14.8817  -50.2293 H         1 UNK         0.0800 
    140 H140       -2.3564  -16.0910  -50.5290 H         1 UNK         0.0800 
    141 H141       -2.6571  -18.1406  -47.7789 H         1 UNK         0.0800 
    142 H142       -2.6049  -18.1809  -49.5168 H         1 UNK         0.0800 
    143 H143       -0.4712  -19.4721  -49.4624 H         1 UNK         0.0600 
    144 H144       -0.3911  -18.7795  -46.7096 H         1 UNK         0.3000 
    145 H145        1.6450  -21.4097  -45.4848 H         1 UNK         0.0600 
    146 H146        3.2837  -19.5486  -45.0536 H         1 UNK         0.0600 
    147 H147        3.4063  -20.2125  -46.6758 H         1 UNK         0.0600 
    148 H148        2.6059  -18.6699  -46.4300 H         1 UNK         0.0600 
    149 H149        0.9823  -18.8646  -44.4057 H         1 UNK         0.3000 
    150 H150       -2.2855  -19.5371  -43.3257 H         1 UNK         0.0600 
    151 H151       -1.0780  -21.0097  -41.6917 H         1 UNK         0.0600 
    152 H152       -1.4739  -19.4462  -41.0037 H         1 UNK         0.0600 
    153 H153        0.1780  -19.7908  -41.5206 H         1 UNK         0.0600 
    154 H154       -0.5601  -17.5470  -42.3827 H         1 UNK         0.3000 
    155 H155        0.1786  -15.5903  -43.9463 H         1 UNK         0.0600 
    156 H156       -1.1165  -13.7370  -45.0428 H         1 UNK         0.0600 
    157 H157       -2.3431  -14.9089  -45.5286 H         1 UNK         0.0600 
    158 H158       -0.6983  -15.0464  -46.1321 H         1 UNK         0.0600 
    159 H159       -0.8215  -15.0048  -42.0697 H         1 UNK         0.3000 
    160 H160       -2.9332  -13.4333  -41.1745 H         1 UNK         0.0600 
    161 H161       -4.8562  -15.7595  -40.6587 H         1 UNK         0.0600 
    162 H162       -5.2518  -14.2027  -41.3689 H         1 UNK         0.0600 
    163 H163       -4.7574  -14.2913  -39.6869 H         1 UNK         0.0600 
    164 H164       -1.5527  -14.2888  -39.7036 H         1 UNK         0.3000 
    165 H165       -1.4668  -16.4769  -37.5801 H         1 UNK         0.0600 
    166 H166        0.1916  -17.9632  -39.6821 H         1 UNK         0.0600 
    167 H167        0.4876  -18.0102  -37.9461 H         1 UNK         0.0600 
    168 H168       -1.0002  -18.6729  -38.5990 H         1 UNK         0.0600 
    169 H169        0.6821  -15.4925  -39.3992 H         1 UNK         0.3000 
    170 H170        0.8713  -12.3926  -37.8274 H         1 UNK         0.0600 
    171 H171        2.2317  -13.5917  -36.1066 H         1 UNK         0.0600 
    172 H172        2.9723  -14.5789  -37.3607 H         1 UNK         0.0600 
    173 H173        3.2609  -12.8388  -37.3136 H         1 UNK         0.0600 
    174 H174        2.6526  -13.6937  -39.6414 H         1 UNK         0.3000 
    175 H175        0.7429  -13.3751  -42.6025 H         1 UNK         0.0600 
    176 H176        3.1806  -11.7553  -41.7010 H         1 UNK         0.0600 
    177 H177        2.6773  -12.0439  -43.3670 H         1 UNK         0.0600 
    178 H178        1.6720  -11.0765  -42.3009 H         1 UNK         0.0600 
    179 H179        3.4043  -14.1844  -42.3070 H         1 UNK         0.3000 
    180 H180        3.9106  -16.5866  -41.1023 H         1 UNK         0.0600 
    181 H181        1.9541  -18.3122  -42.7009 H         1 UNK         0.0600 
    182 H182        2.2458  -18.3783  -40.9696 H         1 UNK         0.0600 
    183 H183        3.5094  -18.8639  -42.0865 H         1 UNK         0.0600 
    184 H184        5.0225  -16.2810  -42.9840 H         1 UNK         0.3000 
    185 H185        5.1998  -15.2807  -45.2461 H         1 UNK         0.0600 
    186 H186        6.5423  -17.1531  -46.2136 H         1 UNK         0.0600 
    187 H187        6.1946  -17.5068  -44.5345 H         1 UNK         0.0600 
    188 H188        5.2826  -18.3091  -45.8066 H         1 UNK         0.0600 
    189 H189        3.1245  -16.4300  -46.8530 H         1 UNK         0.3000 
    190 H190       -2.4822  -20.5050  -46.6944 H         1 UNK         0.3000 
    191 H191       -4.1458  -22.2898  -48.2597 H         1 UNK         0.0600 
    192 H192       -4.9981  -21.2361  -46.1873 H         1 UNK         0.0600 
    193 H193       -4.9880  -22.9837  -46.0093 H         1 UNK         0.0600 
    194 H194       -3.7391  -22.0184  -45.2328 H         1 UNK         0.0600 
    195 H195       -1.2757  -22.6748  -46.1266 H         1 UNK         0.3000 
    196 H196       -1.2537  -25.4955  -46.1164 H         1 UNK         0.0600 
    197 H197        1.0219  -25.2579  -45.2087 H         1 UNK         0.0600 
    198 H198       -0.0239  -24.0436  -44.4864 H         1 UNK         0.0600 
    199 H199        1.1137  -23.5924  -45.7568 H         1 UNK         0.0600 
    200 H200        0.5064  -23.2047  -48.2843 H         1 UNK         0.3000 
    201 H201        1.9470  -25.2507  -49.6754 H         1 UNK         0.0600 
    202 H202        2.7383  -22.9014  -49.5078 H         1 UNK         0.0600 
    203 H203        1.3595  -22.3445  -50.4537 H         1 UNK         0.0600 
    204 H204        2.5776  -23.3783  -51.1913 H         1 UNK         0.0600 
    205 H205       -1.1379  -23.5803  -50.3412 H         1 UNK         0.3000 
    206 H206       -1.3584  -24.7932  -53.0171 H         1 UNK         0.0600 
    207 H207       -1.8425  -22.3615  -52.5651 H         1 UNK         0.0600 
    208 H208       -3.1898  -23.2229  -53.2875 H         1 UNK         0.0600 
    209 H209       -3.2105  -22.8489  -51.5668 H         1 UNK         0.0600 
    210 H210       -2.1774  -25.8425  -49.9460 H         1 UNK         0.3000 
    211 H211       -3.4946  -27.3778  -49.0459 H         1 UNK         0.0600 
    212 H212       -4.0988  -28.3595  -51.8877 H         1 UNK         0.0600 
    213 H213       -4.3785  -29.2440  -50.3965 H         1 UNK         0.0600 
    214 H214       -2.7358  -28.8674  -50.8922 H         1 UNK         0.0600 
    215 H215       -4.4908  -25.1780  -48.7312 H         1 UNK         0.3000 
    216 H216       -6.2193  -24.0819  -47.9857 H         1 UNK         0.0600 
    217 H217       -7.3644  -26.2503  -47.5018 H         1 UNK         0.0600 
    218 H218       -8.1380  -26.1928  -49.0868 H         1 UNK         0.0600 
    219 H219       -8.4959  -24.9640  -47.8872 H         1 UNK         0.0600 
    220 H220       -5.8521  -24.6156  -51.3237 H         1 UNK         0.3000 
    221 H221       -7.8146  -22.6474  -52.2362 H         1 UNK         0.0600 
    222 H222       -5.5108  -24.0403  -53.6941 H         1 UNK         0.0600 
    223 H223       -7.1846  -24.5890  -53.6494 H         1 UNK         0.0600 
    224 H224       -6.7758  -23.0760  -54.4442 H         1 UNK         0.0600 
    225 H225       -6.7578  -21.2594  -50.3807 H         1 UNK         0.3000 
    226 H226       -4.2252  -20.0881  -50.6762 H         1 UNK         0.0600 
    227 H227       -5.0511  -18.5107  -48.9026 H         1 UNK         0.0600 
    228 H228       -6.6952  -19.0725  -49.1706 H         1 UNK         0.0600 
    229 H229       -5.4747  -20.1746  -48.5369 H         1 UNK         0.0600 
    230 H230       -7.0730  -19.2814  -52.4190 H         1 UNK         0.3000 
    231 H231       -5.7571  -16.8865  -53.6064 H         1 UNK         0.0600 
    232 H232       -8.0484  -16.0317  -54.1014 H         1 UNK         0.0600 
    233 H233       -7.8151  -16.1705  -52.3650 H         1 UNK         0.0600 
    234 H234       -8.7688  -17.3779  -53.2257 H         1 UNK         0.0600 
    235 H235       -5.7662  -16.8990  -55.8300 H         1 UNK         0.3000 
    236 H236       -5.6204  -17.6559  -57.8935 H         1 UNK         0.0600 
    237 H237       -8.1316  -19.3201  -57.3451 H         1 UNK         0.0600 
    238 H238       -7.5131  -18.8366  -58.9168 H         1 UNK         0.0600 
    239 H239       -8.1217  -17.6190  -57.8084 H         1 UNK         0.0600 
    240 H240       -3.9437  -18.8802  -56.0600 H         1 UNK         0.3000 
    241 H241       -3.7805  -21.7152  -56.5101 H         1 UNK         0.0600 
    242 H242       -1.7528  -20.1496  -59.6136 H         1 UNK         0.3800 
    243 H243       -2.8685  -19.1877  -58.6805 H         1 UNK         0.3800 
    244 H244       -1.6205  -21.5661  -55.2630 H         1 UNK         0.0800 
    245 H245       -2.9798  -20.8903  -54.4178 H         1 UNK         0.0800 
    246 H246       -0.9498  -20.2327  -52.9290 H         1 UNK         0.0800 
    247 H247        0.4588  -20.1849  -53.9653 H         1 UNK         0.0800 
@<TRIPOS>BOND
     1    1    2 1    
     2    1  127 1    
     3    1  128 1    
     4    1  129 1    
     5    2    3 2    
     6    2    4 am   BACKBONE|DICT|INTERRES
     7    4    5 1    
     8    4  130 1    
     9    5    6 1    
    10    5   65 1    
    11    5  131 1    
    12    6    7 1    
    13    6  132 1    
    14    6  133 1    
    15    7    8 1    
    16    8    9 1    
    17    8  134 1    
    18    8  135 1    
    19    9   10 ar   
    20    9   14 ar   
    21   10   11 ar   
    22   10  136 1    
    23   11   12 ar   
    24   11  126 1    
    25   12   13 ar   
    26   12  137 1    
    27   13   14 ar   
    28   13   15 1    
    29   14  138 1    
    30   15   16 1    
    31   15  139 1    
    32   15  140 1    
    33   16   17 1    
    34   17   18 1    
    35   17  141 1    
    36   17  142 1    
    37   18   19 1    
    38   18   67 1    
    39   18  143 1    
    40   19   20 am   BACKBONE|DICT|INTERRES
    41   19  144 1    
    42   20   21 2    
    43   20   22 1    
    44   22   23 1    
    45   22   24 1    
    46   22  145 1    
    47   23  146 1    
    48   23  147 1    
    49   23  148 1    
    50   24   25 am   BACKBONE|DICT|INTERRES
    51   24  149 1    
    52   25   26 2    
    53   25   27 1    
    54   27   28 1    
    55   27   29 1    
    56   27  150 1    
    57   28  151 1    
    58   28  152 1    
    59   28  153 1    
    60   29   30 am   BACKBONE|DICT|INTERRES
    61   29  154 1    
    62   30   31 2    
    63   30   32 1    
    64   32   33 1    
    65   32   34 1    
    66   32  155 1    
    67   33  156 1    
    68   33  157 1    
    69   33  158 1    
    70   34   35 am   BACKBONE|DICT|INTERRES
    71   34  159 1    
    72   35   36 2    
    73   35   37 1    
    74   37   38 1    
    75   37   39 1    
    76   37  160 1    
    77   38  161 1    
    78   38  162 1    
    79   38  163 1    
    80   39   40 am   BACKBONE|DICT|INTERRES
    81   39  164 1    
    82   40   41 2    
    83   40   42 1    
    84   42   43 1    
    85   42   44 1    
    86   42  165 1    
    87   43  166 1    
    88   43  167 1    
    89   43  168 1    
    90   44   45 am   BACKBONE|DICT|INTERRES
    91   44  169 1    
    92   45   46 2    
    93   45   47 1    
    94   47   48 1    
    95   47   49 1    
    96   47  170 1    
    97   48  171 1    
    98   48  172 1    
    99   48  173 1    
   100   49   50 am   BACKBONE|DICT|INTERRES
   101   49  174 1    
   102   50   51 2    
   103   50   52 1    
   104   52   53 1    
   105   52   54 1    
   106   52  175 1    
   107   53  176 1    
   108   53  177 1    
   109   53  178 1    
   110   54   55 am   BACKBONE|DICT|INTERRES
   111   54  179 1    
   112   55   56 2    
   113   55   57 1    
   114   57   58 1    
   115   57   59 1    
   116   57  180 1    
   117   58  181 1    
   118   58  182 1    
   119   58  183 1    
   120   59   60 am   BACKBONE|DICT|INTERRES
   121   59  184 1    
   122   60   61 2    
   123   60   62 1    
   124   62   63 1    
   125   62   64 1    
   126   62  185 1    
   127   63  186 1    
   128   63  187 1    
   129   63  188 1    
   130   64   65 am   BACKBONE|DICT|INTERRES
   131   64  189 1    
   132   65   66 2    
   133   67   68 2    
   134   67   69 am   BACKBONE|DICT|INTERRES
   135   69   70 1    
   136   69  190 1    
   137   70   71 1    
   138   70   72 1    
   139   70  191 1    
   140   71  192 1    
   141   71  193 1    
   142   71  194 1    
   143   72   73 2    
   144   72   74 am   BACKBONE|DICT|INTERRES
   145   74   75 1    
   146   74  195 1    
   147   75   76 1    
   148   75   77 1    
   149   75  196 1    
   150   76  197 1    
   151   76  198 1    
   152   76  199 1    
   153   77   78 2    
   154   77   79 am   BACKBONE|DICT|INTERRES
   155   79   80 1    
   156   79  200 1    
   157   80   81 1    
   158   80   82 1    
   159   80  201 1    
   160   81  202 1    
   161   81  203 1    
   162   81  204 1    
   163   82   83 2    
   164   82   84 am   BACKBONE|DICT|INTERRES
   165   84   85 1    
   166   84  205 1    
   167   85   86 1    
   168   85   87 1    
   169   85  206 1    
   170   86  207 1    
   171   86  208 1    
   172   86  209 1    
   173   87   88 2    
   174   87   89 am   BACKBONE|DICT|INTERRES
   175   89   90 1    
   176   89  210 1    
   177   90   91 1    
   178   90   92 1    
   179   90  211 1    
   180   91  212 1    
   181   91  213 1    
   182   91  214 1    
   183   92   93 2    
   184   92   94 am   BACKBONE|DICT|INTERRES
   185   94   95 1    
   186   94  215 1    
   187   95   96 1    
   188   95   97 1    
   189   95  216 1    
   190   96  217 1    
   191   96  218 1    
   192   96  219 1    
   193   97   98 2    
   194   97   99 am   BACKBONE|DICT|INTERRES
   195   99  100 1    
   196   99  220 1    
   197  100  101 1    
   198  100  102 1    
   199  100  221 1    
   200  101  222 1    
   201  101  223 1    
   202  101  224 1    
   203  102  103 2    
   204  102  104 am   BACKBONE|DICT|INTERRES
   205  104  105 1    
   206  104  225 1    
   207  105  106 1    
   208  105  107 1    
   209  105  226 1    
   210  106  227 1    
   211  106  228 1    
   212  106  229 1    
   213  107  108 2    
   214  107  109 am   BACKBONE|DICT|INTERRES
   215  109  110 1    
   216  109  230 1    
   217  110  111 1    
   218  110  112 1    
   219  110  231 1    
   220  111  232 1    
   221  111  233 1    
   222  111  234 1    
   223  112  113 2    
   224  112  114 am   BACKBONE|DICT|INTERRES
   225  114  115 1    
   226  114  235 1    
   227  115  116 1    
   228  115  117 1    
   229  115  236 1    
   230  116  237 1    
   231  116  238 1    
   232  116  239 1    
   233  117  118 2    
   234  117  119 am   BACKBONE|DICT|INTERRES
   235  119  120 1    
   236  119  240 1    
   237  120  121 1    
   238  120  124 1    
   239  120  241 1    
   240  121  122 am   BACKBONE|DICT|INTERRES
   241  121  123 2    
   242  122  242 1    
   243  122  243 1    
   244  124  125 1    
   245  124  244 1    
   246  124  245 1    
   247  125  126 1    
   248  126  246 1    
   249  126  247 1    
@<TRIPOS>SUBSTRUCTURE
     1 UNK         1 GROUP             0       ****    0 ROOT    
