@<TRIPOS>MOLECULE
3R540
247   249    1
SMALL
USER_CHARGES


@<TRIPOS>ATOM
      1 CA         -3.9380   -9.7642  -44.7294 C.3       0 UNK        -0.1800 
      2 C          -2.8493  -10.6309  -45.3449 C.2       0 UNK         0.5000 
      3 O          -1.6700  -10.4223  -45.0662 O.2       0 UNK        -0.5000 
      4 N          -3.2368  -11.6108  -46.1719 N.am      1 UNK        -0.5000 
      5 CA         -2.3361  -12.5484  -46.8578 C.3       1 UNK         0.1400 
      6 C6         -3.1195  -13.4028  -47.8844 C.3       23 UNK        -0.0398 
      7 S7         -2.0595  -14.2049  -49.1339 S.3       23 UNK        -0.2404 
      8 C8         -2.5422  -15.9455  -48.9178 C.3       23 UNK        -0.0205 
      9 C9         -1.9257  -16.8288  -49.9902 C.ar      23 UNK        -0.0193 
     10 C10        -2.4215  -16.7936  -51.2972 C.ar      23 UNK        -0.1150 
     11 C11        -1.8738  -17.6039  -52.2972 C.ar      23 UNK        -0.0193 
     12 C12        -0.8246  -18.4688  -51.9626 C.ar      23 UNK        -0.1150 
     13 C13        -0.3175  -18.5133  -50.6611 C.ar      23 UNK        -0.0193 
     14 C14        -0.8668  -17.6843  -49.6791 C.ar      23 UNK        -0.1150 
     15 C15         0.8345  -19.4495  -50.3331 C.3       23 UNK        -0.0205 
     16 S16         0.2411  -21.0232  -49.6417 S.3       23 UNK        -0.2404 
     17 C17         0.3460  -20.6689  -47.8603 C.3       23 UNK        -0.0398 
     18 CA         -0.5342  -21.5954  -46.9932 C.3       11 UNK         0.1400 
     19 N          -0.0544  -21.6367  -45.6107 N.am      11 UNK        -0.5000 
     20 C          -0.5160  -22.4595  -44.6592 C.2       10 UNK         0.5000 
     21 O          -1.3641  -23.3282  -44.8566 O.2       10 UNK        -0.5000 
     22 CA          0.0283  -22.2390  -43.2369 C.3       10 UNK         0.1400 
     23 CB          1.3774  -22.9494  -43.0535 C.3       10 UNK        -0.1800 
     24 N           0.1749  -20.8196  -42.9129 N.am      10 UNK        -0.5000 
     25 C          -0.8415  -19.9495  -42.8269 C.2       9 UNK         0.5000 
     26 O          -2.0239  -20.2639  -42.9551 O.2       9 UNK        -0.5000 
     27 CA         -0.4698  -18.4699  -42.6327 C.3       9 UNK         0.1400 
     28 CB         -0.0687  -18.1803  -41.1786 C.3       9 UNK        -0.1800 
     29 N           0.6008  -18.0566  -43.5397 N.am      9 UNK        -0.5000 
     30 C           0.4739  -17.9809  -44.8720 C.2       8 UNK         0.5000 
     31 O          -0.5791  -18.1890  -45.4703 O.2       8 UNK        -0.5000 
     32 CA          1.7373  -17.6560  -45.6826 C.3       8 UNK         0.1400 
     33 CB          1.7943  -16.1649  -46.0195 C.3       8 UNK        -0.1800 
     34 N           2.9646  -18.0678  -45.0013 N.am      8 UNK        -0.5000 
     35 C           3.3514  -19.3473  -44.9131 C.2       7 UNK         0.5000 
     36 O           2.6924  -20.2884  -45.3586 O.2       7 UNK        -0.5000 
     37 CA          4.6732  -19.6250  -44.1773 C.3       7 UNK         0.1400 
     38 CB          5.8656  -19.0266  -44.9407 C.3       7 UNK        -0.1800 
     39 N           4.6983  -19.1517  -42.7916 N.am      7 UNK        -0.5000 
     40 C           3.8227  -19.4844  -41.8327 C.2       6 UNK         0.5000 
     41 O           2.8023  -20.1397  -42.0332 O.2       6 UNK        -0.5000 
     42 CA          4.1254  -19.0055  -40.4005 C.3       6 UNK         0.1400 
     43 CB          4.6536  -20.1766  -39.5589 C.3       6 UNK        -0.1800 
     44 N           5.1033  -17.9140  -40.3479 N.am      6 UNK        -0.5000 
     45 C           4.8844  -16.6091  -40.5640 C.2       5 UNK         0.5000 
     46 O           5.8067  -15.7945  -40.5072 O.2       5 UNK        -0.5000 
     47 CA          3.4490  -16.1042  -40.8413 C.3       5 UNK         0.1400 
     48 CB          2.7140  -15.8014  -39.5255 C.3       5 UNK        -0.1800 
     49 N           3.4553  -14.8885  -41.6459 N.am      5 UNK        -0.5000 
     50 C           3.7806  -14.8048  -42.9398 C.2       4 UNK         0.5000 
     51 O           4.0707  -15.7838  -43.6320 O.2       4 UNK        -0.5000 
     52 CA          3.7241  -13.3861  -43.5496 C.3       4 UNK         0.1400 
     53 CB          4.0911  -13.3437  -45.0429 C.3       4 UNK        -0.1800 
     54 N           2.4020  -12.7815  -43.3604 N.am      4 UNK        -0.5000 
     55 C           1.9779  -12.1974  -42.2305 C.2       3 UNK         0.5000 
     56 O           2.6998  -12.0233  -41.2474 O.2       3 UNK        -0.5000 
     57 CA          0.4943  -11.7876  -42.1562 C.3       3 UNK         0.1400 
     58 CB          0.3280  -10.3116  -42.5439 C.3       3 UNK        -0.1800 
     59 N          -0.4001  -12.6171  -42.9723 N.am      3 UNK        -0.5000 
     60 C          -0.6038  -13.9324  -42.7888 C.2       2 UNK         0.5000 
     61 O          -0.0296  -14.5852  -41.9180 O.2       2 UNK        -0.5000 
     62 CA         -1.6189  -14.6539  -43.7021 C.3       2 UNK         0.1400 
     63 CB         -2.7779  -15.2354  -42.8757 C.3       2 UNK        -0.1800 
     64 N          -2.1841  -13.8217  -44.7650 N.am      2 UNK        -0.5000 
     65 C          -1.5354  -13.4262  -45.8685 C.2       1 UNK         0.5000 
     66 O          -0.3532  -13.6837  -46.0901 O.2       1 UNK        -0.5000 
     67 C          -2.0283  -21.2129  -47.0672 C.2       11 UNK         0.5000 
     68 O          -2.8027  -21.9179  -47.7149 O.2       11 UNK        -0.5000 
     69 N          -2.4173  -20.1395  -46.3625 N.am      12 UNK        -0.5000 
     70 CA         -3.7973  -19.6679  -46.2386 C.3       12 UNK         0.1400 
     71 CB         -3.8225  -18.3233  -45.4953 C.3       12 UNK        -0.1800 
     72 C          -4.7201  -20.6920  -45.5533 C.2       12 UNK         0.5000 
     73 O          -5.8337  -20.9101  -46.0305 O.2       12 UNK        -0.5000 
     74 N          -4.2272  -21.3443  -44.4898 N.am      13 UNK        -0.5000 
     75 CA         -4.9111  -22.4347  -43.7854 C.3       13 UNK         0.1400 
     76 CB         -4.1252  -22.8023  -42.5184 C.3       13 UNK        -0.1800 
     77 C          -5.1375  -23.6804  -44.6662 C.2       13 UNK         0.5000 
     78 O          -6.1431  -24.3698  -44.4968 O.2       13 UNK        -0.5000 
     79 N          -4.2329  -23.9105  -45.6266 N.am      14 UNK        -0.5000 
     80 CA         -4.3337  -24.9237  -46.6779 C.3       14 UNK         0.1400 
     81 CB         -2.9141  -25.3591  -47.0837 C.3       14 UNK        -0.1800 
     82 C          -5.1546  -24.4467  -47.8981 C.2       14 UNK         0.5000 
     83 O          -5.0400  -25.0439  -48.9689 O.2       14 UNK        -0.5000 
     84 N          -5.9533  -23.3804  -47.7356 N.am      15 UNK        -0.5000 
     85 CA         -6.8262  -22.7568  -48.7345 C.3       15 UNK         0.1400 
     86 CB         -7.9556  -23.7207  -49.1569 C.3       15 UNK        -0.1800 
     87 C          -6.0342  -22.1890  -49.9269 C.2       15 UNK         0.5000 
     88 O          -6.3819  -22.4487  -51.0791 O.2       15 UNK        -0.5000 
     89 N          -4.9583  -21.4511  -49.6137 N.am      16 UNK        -0.5000 
     90 CA         -3.9732  -20.8847  -50.5433 C.3       16 UNK         0.1400 
     91 CB         -4.6365  -19.8531  -51.4791 C.3       16 UNK        -0.1800 
     92 C          -3.2084  -21.9942  -51.2938 C.2       16 UNK         0.5000 
     93 O          -3.0380  -21.9171  -52.5106 O.2       16 UNK        -0.5000 
     94 N          -2.8305  -23.0459  -50.5485 N.am      17 UNK        -0.5000 
     95 CA         -2.2710  -24.3169  -51.0277 C.3       17 UNK         0.1400 
     96 CB         -0.8150  -24.1286  -51.4988 C.3       17 UNK        -0.1800 
     97 C          -3.1710  -24.9766  -52.0953 C.2       17 UNK         0.5000 
     98 O          -2.7079  -25.3032  -53.1886 O.2       17 UNK        -0.5000 
     99 N          -4.4656  -25.0924  -51.7665 N.am      18 UNK        -0.5000 
    100 CA        -5.5716  -25.5449  -52.6188 C.3       18 UNK         0.1400 
    101 CB        -5.4247  -27.0462  -52.9420 C.3       18 UNK        -0.1800 
    102 C         -5.7886  -24.6805  -53.8841 C.2       18 UNK         0.5000 
    103 O         -6.3367  -25.1736  -54.8716 O.2       18 UNK        -0.5000 
    104 N         -5.3588  -23.4103  -53.8282 N.am      19 UNK        -0.5000 
    105 CA        -5.3901  -22.3959  -54.8860 C.3       19 UNK         0.1400 
    106 CB        -6.8402  -21.9540  -55.1683 C.3       19 UNK        -0.1800 
    107 C         -4.6278  -22.8334  -56.1546 C.2       19 UNK         0.5000 
    108 O         -5.1047  -22.6190  -57.2717 O.2       19 UNK        -0.5000 
    109 N         -3.4586  -23.4596  -55.9602 N.am      20 UNK        -0.5000 
    110 CA        -2.6133  -24.0545  -56.9987 C.3       20 UNK         0.1400 
    111 CB        -1.6609  -25.0663  -56.3373 C.3       20 UNK        -0.1800 
    112 C         -1.8664  -23.0130  -57.8624 C.2       20 UNK         0.5000 
    113 O         -0.6343  -22.9929  -57.8822 O.2       20 UNK        -0.5000 
    114 N         -2.6360  -22.1730  -58.5686 N.am      21 UNK        -0.5000 
    115 CA        -2.2099  -21.1622  -59.5456 C.3       21 UNK         0.1400 
    116 CB        -1.6125  -21.8417  -60.7958 C.3       21 UNK        -0.1800 
    117 C         -1.2877  -20.0696  -58.9607 C.2       21 UNK         0.5000 
    118 O         -0.4260  -19.5433  -59.6677 O.2       21 UNK        -0.5000 
    119 N         -1.4886  -19.7431  -57.6785 N.am      22 UNK        -0.5000 
    120 CA        -0.7197  -18.7339  -56.9333 C.3       22 UNK         0.1400 
    121 C         -1.0729  -17.2509  -57.2580 C.2       22 UNK         0.5000 
    122 N         -2.1258  -16.9643  -58.0142 N.am      22 UNK        -0.7600 
    123 O         -0.3687  -16.3430  -56.8249 O.2       22 UNK        -0.5000 
    124 C124       -0.7387  -19.0213  -55.4106 C.3       23 UNK        -0.0398 
    125 S125       -2.4163  -19.0532  -54.6809 S.3       23 UNK        -0.2404 
    126 C126       -2.4282  -17.4977  -53.7205 C.3       23 UNK        -0.0205 
    127 H127       -4.9327  -10.0695  -45.0549 H         1 UNK         0.0600 
    128 H128       -3.7918   -8.7220  -45.0129 H         1 UNK         0.0600 
    129 H129       -3.8998   -9.8314  -43.6422 H         1 UNK         0.0600 
    130 H130       -4.2223  -11.7271  -46.3619 H         1 UNK         0.3000 
    131 H131       -1.6126  -11.9404  -47.4056 H         1 UNK         0.0600 
    132 H132       -3.7424  -14.1424  -47.3779 H         1 UNK         0.0800 
    133 H133       -3.8116  -12.7665  -48.4379 H         1 UNK         0.0800 
    134 H134       -2.2424  -16.2801  -47.9231 H         1 UNK         0.0800 
    135 H135       -3.6286  -16.0350  -48.9642 H         1 UNK         0.0800 
    136 H136       -3.2335  -16.1209  -51.5358 H         1 UNK         0.1150 
    137 H137       -0.3910  -19.1147  -52.7101 H         1 UNK         0.1150 
    138 H138       -0.4744  -17.7012  -48.6729 H         1 UNK         0.1150 
    139 H139        1.4074  -19.6638  -51.2366 H         1 UNK         0.0800 
    140 H140        1.5314  -18.9681  -49.6453 H         1 UNK         0.0800 
    141 H141        0.1084  -19.6237  -47.6716 H         1 UNK         0.0800 
    142 H142        1.3950  -20.7930  -47.5899 H         1 UNK         0.0800 
    143 H143       -0.4401  -22.6121  -47.3812 H         1 UNK         0.0600 
    144 H144        0.6877  -20.9911  -45.3661 H         1 UNK         0.3000 
    145 H145       -0.6850  -22.6732  -42.5338 H         1 UNK         0.0600 
    146 H146        1.2936  -24.0132  -43.2790 H         1 UNK         0.0600 
    147 H147        2.1443  -22.5322  -43.7074 H         1 UNK         0.0600 
    148 H148        1.7319  -22.8604  -42.0265 H         1 UNK         0.0600 
    149 H149        1.1247  -20.4902  -42.7549 H         1 UNK         0.3000 
    150 H150       -1.3546  -17.8752  -42.8656 H         1 UNK         0.0600 
    151 H151        0.1571  -17.1243  -41.0339 H         1 UNK         0.0600 
    152 H152        0.8047  -18.7551  -40.8729 H         1 UNK         0.0600 
    153 H153       -0.8807  -18.4334  -40.4959 H         1 UNK         0.0600 
    154 H154        1.5131  -17.9041  -43.1389 H         1 UNK         0.3000 
    155 H155        1.6775  -18.1988  -46.6274 H         1 UNK         0.0600 
    156 H156        1.7342  -15.5454  -45.1244 H         1 UNK         0.0600 
    157 H157        0.9608  -15.8894  -46.6663 H         1 UNK         0.0600 
    158 H158        2.7119  -15.9162  -46.5521 H         1 UNK         0.0600 
    159 H159        3.5271  -17.3335  -44.5759 H         1 UNK         0.3000 
    160 H160        4.8033  -20.7088  -44.1495 H         1 UNK         0.0600 
    161 H161        5.8682  -19.3529  -45.9816 H         1 UNK         0.0600 
    162 H162        6.8122  -19.3414  -44.5012 H         1 UNK         0.0600 
    163 H163        5.8421  -17.9360  -44.9376 H         1 UNK         0.0600 
    164 H164        5.4896  -18.5819  -42.5305 H         1 UNK         0.3000 
    165 H165        3.1850  -18.6836  -39.9524 H         1 UNK         0.0600 
    166 H166        4.8143  -19.8770  -38.5230 H         1 UNK         0.0600 
    167 H167        3.9424  -21.0040  -39.5486 H         1 UNK         0.0600 
    168 H168        5.5975  -20.5608  -39.9480 H         1 UNK         0.0600 
    169 H169        6.0487  -18.1992  -40.1381 H         1 UNK         0.3000 
    170 H170        2.8832  -16.8501  -41.3985 H         1 UNK         0.0600 
    171 H171        1.6930  -15.4680  -39.7141 H         1 UNK         0.0600 
    172 H172        2.6532  -16.6825  -38.8867 H         1 UNK         0.0600 
    173 H173        3.2194  -15.0207  -38.9554 H         1 UNK         0.0600 
    174 H174        3.2360  -14.0248  -41.1637 H         1 UNK         0.3000 
    175 H175        4.4698  -12.7897  -43.0196 H         1 UNK         0.0600 
    176 H176        3.3368  -13.8259  -45.6617 H         1 UNK         0.0600 
    177 H177        4.1903  -12.3149  -45.3890 H         1 UNK         0.0600 
    178 H178        5.0438  -13.8403  -45.2310 H         1 UNK         0.0600 
    179 H179        1.7318  -12.9189  -44.1039 H         1 UNK         0.3000 
    180 H180        0.1813  -11.8991  -41.1160 H         1 UNK         0.0600 
    181 H181       -0.7051   -9.9848  -42.4237 H         1 UNK         0.0600 
    182 H182        0.6194  -10.1340  -43.5798 H         1 UNK         0.0600 
    183 H183        0.9461   -9.6698  -41.9149 H         1 UNK         0.0600 
    184 H184       -0.8964  -12.1448  -43.7171 H         1 UNK         0.3000 
    185 H185       -1.0871  -15.4850  -44.1689 H         1 UNK         0.0600 
    186 H186       -3.3831  -14.4480  -42.4250 H         1 UNK         0.0600 
    187 H187       -3.4316  -15.8513  -43.4937 H         1 UNK         0.0600 
    188 H188       -2.4117  -15.8668  -42.0655 H         1 UNK         0.0600 
    189 H189       -3.1413  -13.5253  -44.6414 H         1 UNK         0.3000 
    190 H190       -1.7147  -19.5803  -45.8841 H         1 UNK         0.3000 
    191 H191       -4.1793  -19.5009  -47.2476 H         1 UNK         0.0600 
    192 H192       -3.4101  -18.4107  -44.4898 H         1 UNK         0.0600 
    193 H193       -4.8416  -17.9462  -45.4017 H         1 UNK         0.0600 
    194 H194       -3.2446  -17.5675  -46.0267 H         1 UNK         0.0600 
    195 H195       -3.3223  -21.0639  -44.1203 H         1 UNK         0.3000 
    196 H196       -5.8926  -22.0662  -43.4805 H         1 UNK         0.0600 
    197 H197       -4.6338  -23.5866  -41.9566 H         1 UNK         0.0600 
    198 H198       -4.0207  -21.9432  -41.8555 H         1 UNK         0.0600 
    199 H199       -3.1256  -23.1652  -42.7568 H         1 UNK         0.0600 
    200 H200       -3.4147  -23.3139  -45.6662 H         1 UNK         0.3000 
    201 H201       -4.8468  -25.7995  -46.2762 H         1 UNK         0.0600 
    202 H202       -2.3502  -25.7121  -46.2201 H         1 UNK         0.0600 
    203 H203       -2.3529  -24.5404  -47.5337 H         1 UNK         0.0600 
    204 H204       -2.9413  -26.1761  -47.8055 H         1 UNK         0.0600 
    205 H205       -5.9361  -22.9117  -46.8383 H         1 UNK         0.3000 
    206 H206       -7.2930  -21.9016  -48.2440 H         1 UNK         0.0600 
    207 H207       -8.6726  -23.2184  -49.8072 H         1 UNK         0.0600 
    208 H208       -7.5737  -24.5849  -49.7010 H         1 UNK         0.0600 
    209 H209       -8.5055  -24.0866  -48.2899 H         1 UNK         0.0600 
    210 H210       -4.6997  -21.3949  -48.6366 H         1 UNK         0.3000 
    211 H211       -3.2327  -20.3539  -49.9430 H         1 UNK         0.0600 
    212 H212       -5.3813  -20.3042  -52.1342 H         1 UNK         0.0600 
    213 H213       -3.8949  -19.3871  -52.1220 H         1 UNK         0.0600 
    214 H214       -5.1200  -19.0582  -50.9118 H         1 UNK         0.0600 
    215 H215       -3.0066  -22.9862  -49.5522 H         1 UNK         0.3000 
    216 H216       -2.2583  -24.9962  -50.1744 H         1 UNK         0.0600 
    217 H217       -0.3863  -25.0733  -51.8350 H         1 UNK         0.0600 
    218 H218       -0.1860  -23.7630  -50.6884 H         1 UNK         0.0600 
    219 H219       -0.7434  -23.4224  -52.3266 H         1 UNK         0.0600 
    220 H220       -4.7332  -24.8370  -50.8183 H         1 UNK         0.3000 
    221 H221       -6.4745  -25.4238  -52.0188 H         1 UNK         0.0600 
    222 H222       -4.5762  -27.2367  -53.5997 H         1 UNK         0.0600 
    223 H223       -5.2847  -27.6326  -52.0339 H         1 UNK         0.0600 
    224 H224       -6.3162  -27.4299  -53.4392 H         1 UNK         0.0600 
    225 H225       -4.9236  -23.1080  -52.9654 H         1 UNK         0.3000 
    226 H226       -4.8551  -21.5291  -54.4959 H         1 UNK         0.0600 
    227 H227       -7.3364  -21.6312  -54.2528 H         1 UNK         0.0600 
    228 H228       -6.8646  -21.1141  -55.8635 H         1 UNK         0.0600 
    229 H229       -7.4317  -22.7590  -55.6053 H         1 UNK         0.0600 
    230 H230       -3.1492  -23.5969  -55.0063 H         1 UNK         0.3000 
    231 H231       -3.2590  -24.6162  -57.6770 H         1 UNK         0.0600 
    232 H232       -1.0174  -24.5887  -55.5972 H         1 UNK         0.0600 
    233 H233       -2.2176  -25.8578  -55.8352 H         1 UNK         0.0600 
    234 H234       -1.0180  -25.5459  -57.0763 H         1 UNK         0.0600 
    235 H235       -3.6393  -22.2468  -58.4159 H         1 UNK         0.3000 
    236 H236       -3.1186  -20.6463  -59.8585 H         1 UNK         0.0600 
    237 H237       -0.6653  -22.3346  -60.5742 H         1 UNK         0.0600 
    238 H238       -2.2934  -22.5901  -61.2011 H         1 UNK         0.0600 
    239 H239       -1.4257  -21.1148  -61.5871 H         1 UNK         0.0600 
    240 H240       -2.2181  -20.2132  -57.1632 H         1 UNK         0.3000 
    241 H241        0.3208  -18.8422  -57.2458 H         1 UNK         0.0600 
    242 H242       -2.3403  -16.0018  -58.2230 H         1 UNK         0.3800 
    243 H243       -2.7142  -17.6984  -58.3729 H         1 UNK         0.3800 
    244 H244       -0.2835  -19.9948  -55.2240 H         1 UNK         0.0800 
    245 H245       -0.1104  -18.3025  -54.8822 H         1 UNK         0.0800 
    246 H246       -3.4644  -17.1587  -53.6778 H         1 UNK         0.0800 
    247 H247       -1.8805  -16.7241  -54.2599 H         1 UNK         0.0800 
@<TRIPOS>BOND
     1    1    2 1    
     2    1  127 1    
     3    1  128 1    
     4    1  129 1    
     5    2    3 2    
     6    2    4 am   BACKBONE|DICT|INTERRES
     7    4    5 1    
     8    4  130 1    
     9    5    6 1    
    10    5   65 1    
    11    5  131 1    
    12    6    7 1    
    13    6  132 1    
    14    6  133 1    
    15    7    8 1    
    16    8    9 1    
    17    8  134 1    
    18    8  135 1    
    19    9   10 ar   
    20    9   14 ar   
    21   10   11 ar   
    22   10  136 1    
    23   11   12 ar   
    24   11  126 1    
    25   12   13 ar   
    26   12  137 1    
    27   13   14 ar   
    28   13   15 1    
    29   14  138 1    
    30   15   16 1    
    31   15  139 1    
    32   15  140 1    
    33   16   17 1    
    34   17   18 1    
    35   17  141 1    
    36   17  142 1    
    37   18   19 1    
    38   18   67 1    
    39   18  143 1    
    40   19   20 am   BACKBONE|DICT|INTERRES
    41   19  144 1    
    42   20   21 2    
    43   20   22 1    
    44   22   23 1    
    45   22   24 1    
    46   22  145 1    
    47   23  146 1    
    48   23  147 1    
    49   23  148 1    
    50   24   25 am   BACKBONE|DICT|INTERRES
    51   24  149 1    
    52   25   26 2    
    53   25   27 1    
    54   27   28 1    
    55   27   29 1    
    56   27  150 1    
    57   28  151 1    
    58   28  152 1    
    59   28  153 1    
    60   29   30 am   BACKBONE|DICT|INTERRES
    61   29  154 1    
    62   30   31 2    
    63   30   32 1    
    64   32   33 1    
    65   32   34 1    
    66   32  155 1    
    67   33  156 1    
    68   33  157 1    
    69   33  158 1    
    70   34   35 am   BACKBONE|DICT|INTERRES
    71   34  159 1    
    72   35   36 2    
    73   35   37 1    
    74   37   38 1    
    75   37   39 1    
    76   37  160 1    
    77   38  161 1    
    78   38  162 1    
    79   38  163 1    
    80   39   40 am   BACKBONE|DICT|INTERRES
    81   39  164 1    
    82   40   41 2    
    83   40   42 1    
    84   42   43 1    
    85   42   44 1    
    86   42  165 1    
    87   43  166 1    
    88   43  167 1    
    89   43  168 1    
    90   44   45 am   BACKBONE|DICT|INTERRES
    91   44  169 1    
    92   45   46 2    
    93   45   47 1    
    94   47   48 1    
    95   47   49 1    
    96   47  170 1    
    97   48  171 1    
    98   48  172 1    
    99   48  173 1    
   100   49   50 am   BACKBONE|DICT|INTERRES
   101   49  174 1    
   102   50   51 2    
   103   50   52 1    
   104   52   53 1    
   105   52   54 1    
   106   52  175 1    
   107   53  176 1    
   108   53  177 1    
   109   53  178 1    
   110   54   55 am   BACKBONE|DICT|INTERRES
   111   54  179 1    
   112   55   56 2    
   113   55   57 1    
   114   57   58 1    
   115   57   59 1    
   116   57  180 1    
   117   58  181 1    
   118   58  182 1    
   119   58  183 1    
   120   59   60 am   BACKBONE|DICT|INTERRES
   121   59  184 1    
   122   60   61 2    
   123   60   62 1    
   124   62   63 1    
   125   62   64 1    
   126   62  185 1    
   127   63  186 1    
   128   63  187 1    
   129   63  188 1    
   130   64   65 am   BACKBONE|DICT|INTERRES
   131   64  189 1    
   132   65   66 2    
   133   67   68 2    
   134   67   69 am   BACKBONE|DICT|INTERRES
   135   69   70 1    
   136   69  190 1    
   137   70   71 1    
   138   70   72 1    
   139   70  191 1    
   140   71  192 1    
   141   71  193 1    
   142   71  194 1    
   143   72   73 2    
   144   72   74 am   BACKBONE|DICT|INTERRES
   145   74   75 1    
   146   74  195 1    
   147   75   76 1    
   148   75   77 1    
   149   75  196 1    
   150   76  197 1    
   151   76  198 1    
   152   76  199 1    
   153   77   78 2    
   154   77   79 am   BACKBONE|DICT|INTERRES
   155   79   80 1    
   156   79  200 1    
   157   80   81 1    
   158   80   82 1    
   159   80  201 1    
   160   81  202 1    
   161   81  203 1    
   162   81  204 1    
   163   82   83 2    
   164   82   84 am   BACKBONE|DICT|INTERRES
   165   84   85 1    
   166   84  205 1    
   167   85   86 1    
   168   85   87 1    
   169   85  206 1    
   170   86  207 1    
   171   86  208 1    
   172   86  209 1    
   173   87   88 2    
   174   87   89 am   BACKBONE|DICT|INTERRES
   175   89   90 1    
   176   89  210 1    
   177   90   91 1    
   178   90   92 1    
   179   90  211 1    
   180   91  212 1    
   181   91  213 1    
   182   91  214 1    
   183   92   93 2    
   184   92   94 am   BACKBONE|DICT|INTERRES
   185   94   95 1    
   186   94  215 1    
   187   95   96 1    
   188   95   97 1    
   189   95  216 1    
   190   96  217 1    
   191   96  218 1    
   192   96  219 1    
   193   97   98 2    
   194   97   99 am   BACKBONE|DICT|INTERRES
   195   99  100 1    
   196   99  220 1    
   197  100  101 1    
   198  100  102 1    
   199  100  221 1    
   200  101  222 1    
   201  101  223 1    
   202  101  224 1    
   203  102  103 2    
   204  102  104 am   BACKBONE|DICT|INTERRES
   205  104  105 1    
   206  104  225 1    
   207  105  106 1    
   208  105  107 1    
   209  105  226 1    
   210  106  227 1    
   211  106  228 1    
   212  106  229 1    
   213  107  108 2    
   214  107  109 am   BACKBONE|DICT|INTERRES
   215  109  110 1    
   216  109  230 1    
   217  110  111 1    
   218  110  112 1    
   219  110  231 1    
   220  111  232 1    
   221  111  233 1    
   222  111  234 1    
   223  112  113 2    
   224  112  114 am   BACKBONE|DICT|INTERRES
   225  114  115 1    
   226  114  235 1    
   227  115  116 1    
   228  115  117 1    
   229  115  236 1    
   230  116  237 1    
   231  116  238 1    
   232  116  239 1    
   233  117  118 2    
   234  117  119 am   BACKBONE|DICT|INTERRES
   235  119  120 1    
   236  119  240 1    
   237  120  121 1    
   238  120  124 1    
   239  120  241 1    
   240  121  122 am   BACKBONE|DICT|INTERRES
   241  121  123 2    
   242  122  242 1    
   243  122  243 1    
   244  124  125 1    
   245  124  244 1    
   246  124  245 1    
   247  125  126 1    
   248  126  246 1    
   249  126  247 1    
@<TRIPOS>SUBSTRUCTURE
     1 UNK         1 GROUP             0       ****    0 ROOT    
