@<TRIPOS>MOLECULE
3R540
247   249    1
SMALL
USER_CHARGES


@<TRIPOS>ATOM
      1 CA          4.7051  -11.5223  -45.4851 C.3       0 UNK        -0.1800 
      2 C           4.3817  -11.1400  -46.9229 C.2       0 UNK         0.5000 
      3 O           4.9800  -10.2066  -47.4590 O.2       0 UNK        -0.5000 
      4 N           3.4367  -11.8553  -47.5433 N.am      1 UNK        -0.5000 
      5 CA          3.0592  -11.7226  -48.9538 C.3       1 UNK         0.1400 
      6 C6          1.5726  -12.1080  -49.1727 C.3       23 UNK        -0.0398 
      7 S7          1.1433  -13.8183  -48.6940 S.3       23 UNK        -0.2404 
      8 C8         -0.5020  -13.9412  -49.4616 C.3       23 UNK        -0.0205 
      9 C9         -1.3225  -15.0781  -48.8735 C.ar      23 UNK        -0.0193 
     10 C10        -2.2520  -14.8232  -47.8608 C.ar      23 UNK        -0.1150 
     11 C11        -3.0445  -15.8555  -47.3500 C.ar      23 UNK        -0.0193 
     12 C12        -2.8774  -17.1564  -47.8322 C.ar      23 UNK        -0.1150 
     13 C13        -1.9513  -17.4229  -48.8428 C.ar      23 UNK        -0.0193 
     14 C14        -1.1845  -16.3783  -49.3664 C.ar      23 UNK        -0.1150 
     15 C15        -1.7982  -18.8319  -49.3897 C.3       23 UNK        -0.0205 
     16 S16        -0.4434  -19.7288  -48.5727 S.3       23 UNK        -0.2404 
     17 C17        -1.1662  -20.1059  -46.9424 C.3       23 UNK        -0.0398 
     18 CA         -0.5180  -21.3549  -46.2900 C.3       11 UNK         0.1400 
     19 N          -0.3619  -21.1828  -44.8403 N.am      11 UNK        -0.5000 
     20 C           0.3675  -21.9834  -44.0497 C.2       10 UNK         0.5000 
     21 O           0.9691  -22.9767  -44.4550 O.2       10 UNK        -0.5000 
     22 CA          0.3931  -21.6411  -42.5518 C.3       10 UNK         0.1400 
     23 CB          1.3638  -20.4858  -42.2598 C.3       10 UNK        -0.1800 
     24 N          -0.9446  -21.3012  -42.0714 N.am      10 UNK        -0.5000 
     25 C          -1.8845  -22.2092  -41.7718 C.2       9 UNK         0.5000 
     26 O          -1.6887  -23.4246  -41.7857 O.2       9 UNK        -0.5000 
     27 CA         -3.2860  -21.6755  -41.4155 C.3       9 UNK         0.1400 
     28 CB         -3.4129  -21.4688  -39.8988 C.3       9 UNK        -0.1800 
     29 N          -3.6248  -20.4254  -42.0988 N.am      9 UNK        -0.5000 
     30 C          -3.7792  -20.2989  -43.4242 C.2       8 UNK         0.5000 
     31 O          -3.6597  -21.2289  -44.2176 O.2       8 UNK        -0.5000 
     32 CA         -4.0456  -18.8811  -43.9587 C.3       8 UNK         0.1400 
     33 CB         -5.5488  -18.5696  -43.9336 C.3       8 UNK        -0.1800 
     34 N          -3.3138  -17.8421  -43.2276 N.am      8 UNK        -0.5000 
     35 C          -1.9786  -17.7760  -43.1473 C.2       7 UNK         0.5000 
     36 O          -1.2215  -18.6173  -43.6387 O.2       7 UNK        -0.5000 
     37 CA         -1.3875  -16.6053  -42.3482 C.3       7 UNK         0.1400 
     38 CB         -0.7450  -17.1101  -41.0468 C.3       7 UNK        -0.1800 
     39 N          -0.3764  -15.9337  -43.1563 N.am      7 UNK        -0.5000 
     40 C          -0.6467  -15.0235  -44.1011 C.2       6 UNK         0.5000 
     41 O          -1.7610  -14.5264  -44.2647 O.2       6 UNK        -0.5000 
     42 CA          0.5170  -14.5895  -45.0151 C.3       6 UNK         0.1400 
     43 CB          1.0361  -13.2002  -44.6154 C.3       6 UNK        -0.1800 
     44 N           1.6381  -15.5345  -45.0290 N.am      6 UNK        -0.5000 
     45 C           1.6010  -16.7426  -45.6052 C.2       5 UNK         0.5000 
     46 O           0.6311  -17.1651  -46.2297 O.2       5 UNK        -0.5000 
     47 CA          2.8684  -17.6074  -45.4647 C.3       5 UNK         0.1400 
     48 CB          2.5881  -19.0981  -45.7205 C.3       5 UNK        -0.1800 
     49 N           3.9050  -17.1695  -46.3912 N.am      5 UNK        -0.5000 
     50 C           4.6544  -16.0680  -46.2866 C.2       4 UNK         0.5000 
     51 O           4.6062  -15.3016  -45.3234 O.2       4 UNK        -0.5000 
     52 CA          5.5934  -15.7515  -47.4667 C.3       4 UNK         0.1400 
     53 CB          6.9027  -16.5580  -47.3818 C.3       4 UNK        -0.1800 
     54 N           4.9511  -15.8810  -48.7829 N.am      4 UNK        -0.5000 
     55 C           4.5093  -16.9806  -49.4150 C.2       3 UNK         0.5000 
     56 O           4.6578  -18.1213  -48.9752 O.2       3 UNK        -0.5000 
     57 CA          3.7129  -16.7878  -50.7226 C.3       3 UNK         0.1400 
     58 CB          2.2622  -17.2527  -50.5207 C.3       3 UNK        -0.1800 
     59 N           3.6929  -15.3992  -51.1864 N.am      3 UNK        -0.5000 
     60 C           4.6598  -14.8175  -51.9093 C.2       2 UNK         0.5000 
     61 O           5.6483  -15.4163  -52.3339 O.2       2 UNK        -0.5000 
     62 CA          4.5146  -13.3034  -52.1792 C.3       2 UNK         0.1400 
     63 CB          3.8898  -13.0643  -53.5622 C.3       2 UNK        -0.1800 
     64 N           3.7298  -12.5784  -51.1703 N.am      2 UNK        -0.5000 
     65 C           4.0353  -12.5036  -49.8664 C.2       1 UNK         0.5000 
     66 O           5.0304  -13.0512  -49.3859 O.2       1 UNK        -0.5000 
     67 C          -1.2553  -22.6666  -46.6555 C.2       11 UNK         0.5000 
     68 O          -0.9639  -23.2781  -47.6856 O.2       11 UNK        -0.5000 
     69 N          -2.1638  -23.1116  -45.7751 N.am      12 UNK        -0.5000 
     70 CA         -2.8938  -24.3769  -45.8582 C.3       12 UNK         0.1400 
     71 CB         -3.9490  -24.4316  -44.7435 C.3       12 UNK        -0.1800 
     72 C          -2.0020  -25.6303  -45.8064 C.2       12 UNK         0.5000 
     73 O          -2.4067  -26.6619  -46.3414 O.2       12 UNK        -0.5000 
     74 N          -0.7978  -25.5304  -45.2223 N.am      13 UNK        -0.5000 
     75 CA          0.1827  -26.6218  -45.1781 C.3       13 UNK         0.1400 
     76 CB          1.3201  -26.2556  -44.2135 C.3       13 UNK        -0.1800 
     77 C           0.7452  -26.9841  -46.5682 C.2       13 UNK         0.5000 
     78 O           1.1445  -28.1291  -46.7813 O.2       13 UNK        -0.5000 
     79 N           0.7332  -26.0141  -47.4922 N.am      14 UNK        -0.5000 
     80 CA          1.0889  -26.1838  -48.9013 C.3       14 UNK         0.1400 
     81 CB          1.8620  -24.9315  -49.3504 C.3       14 UNK        -0.1800 
     82 C          -0.1528  -26.4003  -49.7929 C.2       14 UNK         0.5000 
     83 O          -0.0028  -26.4981  -51.0106 O.2       14 UNK        -0.5000 
     84 N          -1.3530  -26.4123  -49.1872 N.am      15 UNK        -0.5000 
     85 CA         -2.6912  -26.4104  -49.7997 C.3       15 UNK         0.1400 
     86 CB         -2.9164  -27.6601  -50.6731 C.3       15 UNK        -0.1800 
     87 C          -3.0348  -25.1092  -50.5578 C.2       15 UNK         0.5000 
     88 O          -4.1082  -25.0130  -51.1563 O.2       15 UNK        -0.5000 
     89 N          -2.1496  -24.1068  -50.4938 N.am      16 UNK        -0.5000 
     90 CA         -2.2585  -22.8355  -51.2028 C.3       16 UNK         0.1400 
     91 CB         -0.9041  -22.1195  -51.1618 C.3       16 UNK        -0.1800 
     92 C          -3.4017  -21.9464  -50.6879 C.2       16 UNK         0.5000 
     93 O          -3.9328  -21.1502  -51.4602 O.2       16 UNK        -0.5000 
     94 N          -3.8191  -22.1393  -49.4280 N.am      17 UNK        -0.5000 
     95 CA         -5.0104  -21.5092  -48.8485 C.3       17 UNK         0.1400 
     96 CB         -5.0801  -21.8126  -47.3469 C.3       17 UNK        -0.1800 
     97 C          -6.3261  -21.9350  -49.5326 C.2       17 UNK         0.5000 
     98 O          -7.2885  -21.1689  -49.5056 O.2       17 UNK        -0.5000 
     99 N          -6.3423  -23.1318  -50.1348 N.am      18 UNK        -0.5000 
    100 CA        -7.4603  -23.6401  -50.9245 C.3       18 UNK         0.1400 
    101 CB        -7.6365  -25.1421  -50.6481 C.3       18 UNK        -0.1800 
    102 C         -7.2340  -23.3863  -52.4235 C.2       18 UNK         0.5000 
    103 O         -8.1617  -22.9575  -53.1103 O.2       18 UNK        -0.5000 
    104 N         -6.0158  -23.6699  -52.9082 N.am      19 UNK        -0.5000 
    105 CA        -5.6700  -23.6273  -54.3302 C.3       19 UNK         0.1400 
    106 CB        -4.3644  -24.4039  -54.5588 C.3       19 UNK        -0.1800 
    107 C         -5.5671  -22.2069  -54.9179 C.2       19 UNK         0.5000 
    108 O         -5.8997  -22.0253  -56.0902 O.2       19 UNK        -0.5000 
    109 N         -5.1054  -21.2381  -54.1168 N.am      20 UNK        -0.5000 
    110 CA        -4.9157  -19.8429  -54.5227 C.3       20 UNK         0.1400 
    111 CB        -3.4150  -19.5067  -54.5017 C.3       20 UNK        -0.1800 
    112 C         -5.7017  -18.8775  -53.6216 C.2       20 UNK         0.5000 
    113 O         -6.2966  -17.9289  -54.1356 O.2       20 UNK        -0.5000 
    114 N         -5.6989  -19.1475  -52.3080 N.am      21 UNK        -0.5000 
    115 CA        -6.2850  -18.3502  -51.2255 C.3       21 UNK         0.1400 
    116 CB        -7.8111  -18.1967  -51.4069 C.3       21 UNK        -0.1800 
    117 C         -5.5636  -17.0034  -51.0035 C.2       21 UNK         0.5000 
    118 O         -4.5398  -16.7276  -51.6333 O.2       21 UNK        -0.5000 
    119 N         -6.0909  -16.2048  -50.0677 N.am      22 UNK        -0.5000 
    120 CA        -5.5054  -14.9240  -49.6334 C.3       22 UNK         0.1400 
    121 C         -5.7068  -13.7373  -50.6225 C.2       22 UNK         0.5000 
    122 N         -6.4770  -13.8815  -51.6941 N.am      22 UNK        -0.7600 
    123 O         -5.1507  -12.6624  -50.4150 O.2       22 UNK        -0.5000 
    124 C124       -5.9548  -14.5264  -48.1993 C.3       23 UNK        -0.0398 
    125 S125       -5.7870  -15.8579  -46.9563 S.3       23 UNK        -0.2404 
    126 C126       -4.1098  -15.5634  -46.3062 C.3       23 UNK        -0.0205 
    127 H127        5.7789  -11.6686  -45.3686 H         1 UNK         0.0600 
    128 H128        4.2078  -12.4460  -45.1887 H         1 UNK         0.0600 
    129 H129        4.3909  -10.7305  -44.8053 H         1 UNK         0.0600 
    130 H130        3.0053  -12.6301  -47.0614 H         1 UNK         0.3000 
    131 H131        3.1593  -10.6725  -49.2363 H         1 UNK         0.0600 
    132 H132        0.9443  -11.4366  -48.5854 H         1 UNK         0.0800 
    133 H133        1.2757  -11.9404  -50.2089 H         1 UNK         0.0800 
    134 H134       -1.0375  -12.9994  -49.3310 H         1 UNK         0.0800 
    135 H135       -0.3883  -14.0816  -50.5375 H         1 UNK         0.0800 
    136 H136       -2.3752  -13.8165  -47.4871 H         1 UNK         0.1150 
    137 H137       -3.4892  -17.9546  -47.4375 H         1 UNK         0.1150 
    138 H138       -0.4825  -16.5787  -50.1615 H         1 UNK         0.1150 
    139 H139       -2.7303  -19.3852  -49.2820 H         1 UNK         0.0800 
    140 H140       -1.5964  -18.7874  -50.4609 H         1 UNK         0.0800 
    141 H141       -2.2489  -20.2056  -47.0200 H         1 UNK         0.0800 
    142 H142       -1.0004  -19.2222  -46.3252 H         1 UNK         0.0800 
    143 H143        0.4971  -21.4567  -46.6805 H         1 UNK         0.0600 
    144 H144       -0.7985  -20.3624  -44.4298 H         1 UNK         0.3000 
    145 H145        0.7525  -22.5207  -42.0130 H         1 UNK         0.0600 
    146 H146        2.3711  -20.7295  -42.5999 H         1 UNK         0.0600 
    147 H147        1.4220  -20.2830  -41.1904 H         1 UNK         0.0600 
    148 H148        1.0659  -19.5637  -42.7578 H         1 UNK         0.0600 
    149 H149       -1.1997  -20.3239  -42.0940 H         1 UNK         0.3000 
    150 H150       -4.0124  -22.4318  -41.7208 H         1 UNK         0.0600 
    151 H151       -2.7260  -20.7023  -39.5378 H         1 UNK         0.0600 
    152 H152       -3.1898  -22.3902  -39.3591 H         1 UNK         0.0600 
    153 H153       -4.4249  -21.1704  -39.6243 H         1 UNK         0.0600 
    154 H154       -3.7322  -19.6046  -41.5216 H         1 UNK         0.3000 
    155 H155       -3.7089  -18.8540  -44.9973 H         1 UNK         0.0600 
    156 H156       -5.9448  -18.5721  -42.9174 H         1 UNK         0.0600 
    157 H157       -6.1089  -19.3098  -44.5068 H         1 UNK         0.0600 
    158 H158       -5.7604  -17.5950  -44.3725 H         1 UNK         0.0600 
    159 H159       -3.8700  -17.1233  -42.7873 H         1 UNK         0.3000 
    160 H160       -2.1798  -15.8992  -42.0901 H         1 UNK         0.0600 
    161 H161        0.0687  -17.8101  -41.2395 H         1 UNK         0.0600 
    162 H162       -1.4778  -17.6223  -40.4220 H         1 UNK         0.0600 
    163 H163       -0.3415  -16.2832  -40.4621 H         1 UNK         0.0600 
    164 H164        0.5561  -16.3159  -43.1203 H         1 UNK         0.3000 
    165 H165        0.1136  -14.5240  -46.0268 H         1 UNK         0.0600 
    166 H166        1.7757  -12.8387  -45.3279 H         1 UNK         0.0600 
    167 H167        0.2257  -12.4703  -44.5959 H         1 UNK         0.0600 
    168 H168        1.4949  -13.2102  -43.6261 H         1 UNK         0.0600 
    169 H169        2.5059  -15.2317  -44.6042 H         1 UNK         0.3000 
    170 H170        3.2378  -17.5048  -44.4423 H         1 UNK         0.0600 
    171 H171        3.4710  -19.7072  -45.5269 H         1 UNK         0.0600 
    172 H172        2.2726  -19.2800  -46.7490 H         1 UNK         0.0600 
    173 H173        1.7942  -19.4568  -45.0679 H         1 UNK         0.0600 
    174 H174        4.0174  -17.7206  -47.2374 H         1 UNK         0.3000 
    175 H175        5.8586  -14.6972  -47.3746 H         1 UNK         0.0600 
    176 H176        7.4239  -16.3499  -46.4466 H         1 UNK         0.0600 
    177 H177        6.7280  -17.6333  -47.4215 H         1 UNK         0.0600 
    178 H178        7.5788  -16.2969  -48.1959 H         1 UNK         0.0600 
    179 H179        4.7875  -14.9868  -49.2345 H         1 UNK         0.3000 
    180 H180        4.1717  -17.4173  -51.4879 H         1 UNK         0.0600 
    181 H181        1.7847  -16.7134  -49.7018 H         1 UNK         0.0600 
    182 H182        2.2193  -18.3148  -50.2754 H         1 UNK         0.0600 
    183 H183        1.6659  -17.1043  -51.4210 H         1 UNK         0.0600 
    184 H184        2.9168  -14.8323  -50.8772 H         1 UNK         0.3000 
    185 H185        5.5204  -12.8784  -52.1811 H         1 UNK         0.0600 
    186 H186        4.4631  -13.5666  -54.3427 H         1 UNK         0.0600 
    187 H187        2.8675  -13.4413  -53.6122 H         1 UNK         0.0600 
    188 H188        3.8702  -12.0027  -53.8092 H         1 UNK         0.0600 
    189 H189        2.9082  -12.1018  -51.5118 H         1 UNK         0.3000 
    190 H190       -2.4134  -22.5073  -44.9974 H         1 UNK         0.3000 
    191 H191       -3.4096  -24.3974  -46.8195 H         1 UNK         0.0600 
    192 H192       -4.6732  -23.6233  -44.8412 H         1 UNK         0.0600 
    193 H193       -4.5076  -25.3680  -44.7756 H         1 UNK         0.0600 
    194 H194       -3.4927  -24.3543  -43.7562 H         1 UNK         0.0600 
    195 H195       -0.5083  -24.6428  -44.8300 H         1 UNK         0.3000 
    196 H196       -0.3213  -27.5072  -44.7849 H         1 UNK         0.0600 
    197 H197        1.9928  -27.1018  -44.0687 H         1 UNK         0.0600 
    198 H198        0.9353  -25.9734  -43.2332 H         1 UNK         0.0600 
    199 H199        1.9186  -25.4270  -44.5925 H         1 UNK         0.0600 
    200 H200        0.3765  -25.1028  -47.2320 H         1 UNK         0.3000 
    201 H201        1.7393  -27.0518  -49.0264 H         1 UNK         0.0600 
    202 H202        2.1939  -25.0223  -50.3854 H         1 UNK         0.0600 
    203 H203        2.7516  -24.7785  -48.7392 H         1 UNK         0.0600 
    204 H204        1.2493  -24.0317  -49.2797 H         1 UNK         0.0600 
    205 H205       -1.3601  -26.3737  -48.1754 H         1 UNK         0.3000 
    206 H206       -3.3969  -26.4629  -48.9698 H         1 UNK         0.0600 
    207 H207       -2.6789  -28.5721  -50.1256 H         1 UNK         0.0600 
    208 H208       -3.9585  -27.7329  -50.9867 H         1 UNK         0.0600 
    209 H209       -2.3084  -27.6415  -51.5777 H         1 UNK         0.0600 
    210 H210       -1.3267  -24.2326  -49.9213 H         1 UNK         0.3000 
    211 H211       -2.4802  -23.0511  -52.2481 H         1 UNK         0.0600 
    212 H212       -0.5151  -22.0627  -50.1466 H         1 UNK         0.0600 
    213 H213       -0.9751  -21.1045  -51.5549 H         1 UNK         0.0600 
    214 H214       -0.1662  -22.6502  -51.7637 H         1 UNK         0.0600 
    215 H215       -3.3190  -22.8061  -48.8586 H         1 UNK         0.3000 
    216 H216       -4.9084  -20.4296  -48.9682 H         1 UNK         0.0600 
    217 H217       -5.9195  -21.2937  -46.8823 H         1 UNK         0.0600 
    218 H218       -4.1802  -21.4837  -46.8328 H         1 UNK         0.0600 
    219 H219       -5.2131  -22.8776  -47.1589 H         1 UNK         0.0600 
    220 H220       -5.5002  -23.6921  -50.1377 H         1 UNK         0.3000 
    221 H221       -8.3869  -23.1394  -50.6351 H         1 UNK         0.0600 
    222 H222       -6.7478  -25.7143  -50.9168 H         1 UNK         0.0600 
    223 H223       -7.8445  -25.3249  -49.5938 H         1 UNK         0.0600 
    224 H224       -8.4725  -25.5476  -51.2193 H         1 UNK         0.0600 
    225 H225       -5.3197  -24.0692  -52.2852 H         1 UNK         0.3000 
    226 H226       -6.4601  -24.1466  -54.8772 H         1 UNK         0.0600 
    227 H227       -4.1288  -24.4642  -55.6220 H         1 UNK         0.0600 
    228 H228       -3.5189  -23.9279  -54.0649 H         1 UNK         0.0600 
    229 H229       -4.4401  -25.4251  -54.1843 H         1 UNK         0.0600 
    230 H230       -4.8562  -21.4638  -53.1602 H         1 UNK         0.3000 
    231 H231       -5.2763  -19.6873  -55.5416 H         1 UNK         0.0600 
    232 H232       -2.9844  -19.6314  -53.5076 H         1 UNK         0.0600 
    233 H233       -3.2433  -18.4732  -54.8049 H         1 UNK         0.0600 
    234 H234       -2.8598  -20.1449  -55.1891 H         1 UNK         0.0600 
    235 H235       -5.1000  -19.9077  -51.9942 H         1 UNK         0.3000 
    236 H236       -6.1181  -18.9237  -50.3155 H         1 UNK         0.0600 
    237 H237       -8.2765  -19.1579  -51.6264 H         1 UNK         0.0600 
    238 H238       -8.2827  -17.8175  -50.5002 H         1 UNK         0.0600 
    239 H239       -8.0606  -17.5104  -52.2163 H         1 UNK         0.0600 
    240 H240       -6.9221  -16.4972  -49.5757 H         1 UNK         0.3000 
    241 H241       -4.4261  -15.0715  -49.6018 H         1 UNK         0.0600 
    242 H242       -6.5967  -13.1070  -52.3281 H         1 UNK         0.3800 
    243 H243       -6.9256  -14.7624  -51.8870 H         1 UNK         0.3800 
    244 H244       -7.0031  -14.2237  -48.2102 H         1 UNK         0.0800 
    245 H245       -5.3962  -13.6550  -47.8532 H         1 UNK         0.0800 
    246 H246       -3.9410  -16.2054  -45.4427 H         1 UNK         0.0800 
    247 H247       -4.0343  -14.5377  -45.9421 H         1 UNK         0.0800 
@<TRIPOS>BOND
     1    1    2 1    
     2    1  127 1    
     3    1  128 1    
     4    1  129 1    
     5    2    3 2    
     6    2    4 am   BACKBONE|DICT|INTERRES
     7    4    5 1    
     8    4  130 1    
     9    5    6 1    
    10    5   65 1    
    11    5  131 1    
    12    6    7 1    
    13    6  132 1    
    14    6  133 1    
    15    7    8 1    
    16    8    9 1    
    17    8  134 1    
    18    8  135 1    
    19    9   10 ar   
    20    9   14 ar   
    21   10   11 ar   
    22   10  136 1    
    23   11   12 ar   
    24   11  126 1    
    25   12   13 ar   
    26   12  137 1    
    27   13   14 ar   
    28   13   15 1    
    29   14  138 1    
    30   15   16 1    
    31   15  139 1    
    32   15  140 1    
    33   16   17 1    
    34   17   18 1    
    35   17  141 1    
    36   17  142 1    
    37   18   19 1    
    38   18   67 1    
    39   18  143 1    
    40   19   20 am   BACKBONE|DICT|INTERRES
    41   19  144 1    
    42   20   21 2    
    43   20   22 1    
    44   22   23 1    
    45   22   24 1    
    46   22  145 1    
    47   23  146 1    
    48   23  147 1    
    49   23  148 1    
    50   24   25 am   BACKBONE|DICT|INTERRES
    51   24  149 1    
    52   25   26 2    
    53   25   27 1    
    54   27   28 1    
    55   27   29 1    
    56   27  150 1    
    57   28  151 1    
    58   28  152 1    
    59   28  153 1    
    60   29   30 am   BACKBONE|DICT|INTERRES
    61   29  154 1    
    62   30   31 2    
    63   30   32 1    
    64   32   33 1    
    65   32   34 1    
    66   32  155 1    
    67   33  156 1    
    68   33  157 1    
    69   33  158 1    
    70   34   35 am   BACKBONE|DICT|INTERRES
    71   34  159 1    
    72   35   36 2    
    73   35   37 1    
    74   37   38 1    
    75   37   39 1    
    76   37  160 1    
    77   38  161 1    
    78   38  162 1    
    79   38  163 1    
    80   39   40 am   BACKBONE|DICT|INTERRES
    81   39  164 1    
    82   40   41 2    
    83   40   42 1    
    84   42   43 1    
    85   42   44 1    
    86   42  165 1    
    87   43  166 1    
    88   43  167 1    
    89   43  168 1    
    90   44   45 am   BACKBONE|DICT|INTERRES
    91   44  169 1    
    92   45   46 2    
    93   45   47 1    
    94   47   48 1    
    95   47   49 1    
    96   47  170 1    
    97   48  171 1    
    98   48  172 1    
    99   48  173 1    
   100   49   50 am   BACKBONE|DICT|INTERRES
   101   49  174 1    
   102   50   51 2    
   103   50   52 1    
   104   52   53 1    
   105   52   54 1    
   106   52  175 1    
   107   53  176 1    
   108   53  177 1    
   109   53  178 1    
   110   54   55 am   BACKBONE|DICT|INTERRES
   111   54  179 1    
   112   55   56 2    
   113   55   57 1    
   114   57   58 1    
   115   57   59 1    
   116   57  180 1    
   117   58  181 1    
   118   58  182 1    
   119   58  183 1    
   120   59   60 am   BACKBONE|DICT|INTERRES
   121   59  184 1    
   122   60   61 2    
   123   60   62 1    
   124   62   63 1    
   125   62   64 1    
   126   62  185 1    
   127   63  186 1    
   128   63  187 1    
   129   63  188 1    
   130   64   65 am   BACKBONE|DICT|INTERRES
   131   64  189 1    
   132   65   66 2    
   133   67   68 2    
   134   67   69 am   BACKBONE|DICT|INTERRES
   135   69   70 1    
   136   69  190 1    
   137   70   71 1    
   138   70   72 1    
   139   70  191 1    
   140   71  192 1    
   141   71  193 1    
   142   71  194 1    
   143   72   73 2    
   144   72   74 am   BACKBONE|DICT|INTERRES
   145   74   75 1    
   146   74  195 1    
   147   75   76 1    
   148   75   77 1    
   149   75  196 1    
   150   76  197 1    
   151   76  198 1    
   152   76  199 1    
   153   77   78 2    
   154   77   79 am   BACKBONE|DICT|INTERRES
   155   79   80 1    
   156   79  200 1    
   157   80   81 1    
   158   80   82 1    
   159   80  201 1    
   160   81  202 1    
   161   81  203 1    
   162   81  204 1    
   163   82   83 2    
   164   82   84 am   BACKBONE|DICT|INTERRES
   165   84   85 1    
   166   84  205 1    
   167   85   86 1    
   168   85   87 1    
   169   85  206 1    
   170   86  207 1    
   171   86  208 1    
   172   86  209 1    
   173   87   88 2    
   174   87   89 am   BACKBONE|DICT|INTERRES
   175   89   90 1    
   176   89  210 1    
   177   90   91 1    
   178   90   92 1    
   179   90  211 1    
   180   91  212 1    
   181   91  213 1    
   182   91  214 1    
   183   92   93 2    
   184   92   94 am   BACKBONE|DICT|INTERRES
   185   94   95 1    
   186   94  215 1    
   187   95   96 1    
   188   95   97 1    
   189   95  216 1    
   190   96  217 1    
   191   96  218 1    
   192   96  219 1    
   193   97   98 2    
   194   97   99 am   BACKBONE|DICT|INTERRES
   195   99  100 1    
   196   99  220 1    
   197  100  101 1    
   198  100  102 1    
   199  100  221 1    
   200  101  222 1    
   201  101  223 1    
   202  101  224 1    
   203  102  103 2    
   204  102  104 am   BACKBONE|DICT|INTERRES
   205  104  105 1    
   206  104  225 1    
   207  105  106 1    
   208  105  107 1    
   209  105  226 1    
   210  106  227 1    
   211  106  228 1    
   212  106  229 1    
   213  107  108 2    
   214  107  109 am   BACKBONE|DICT|INTERRES
   215  109  110 1    
   216  109  230 1    
   217  110  111 1    
   218  110  112 1    
   219  110  231 1    
   220  111  232 1    
   221  111  233 1    
   222  111  234 1    
   223  112  113 2    
   224  112  114 am   BACKBONE|DICT|INTERRES
   225  114  115 1    
   226  114  235 1    
   227  115  116 1    
   228  115  117 1    
   229  115  236 1    
   230  116  237 1    
   231  116  238 1    
   232  116  239 1    
   233  117  118 2    
   234  117  119 am   BACKBONE|DICT|INTERRES
   235  119  120 1    
   236  119  240 1    
   237  120  121 1    
   238  120  124 1    
   239  120  241 1    
   240  121  122 am   BACKBONE|DICT|INTERRES
   241  121  123 2    
   242  122  242 1    
   243  122  243 1    
   244  124  125 1    
   245  124  244 1    
   246  124  245 1    
   247  125  126 1    
   248  126  246 1    
   249  126  247 1    
@<TRIPOS>SUBSTRUCTURE
     1 UNK         1 GROUP             0       ****    0 ROOT    
