@<TRIPOS>MOLECULE
3R540
247   249    1
SMALL
USER_CHARGES


@<TRIPOS>ATOM
      1 CA          4.4533  -16.3889  -50.0281 C.3       0 UNK        -0.1800 
      2 C           4.7994  -16.1520  -48.5663 C.2       0 UNK         0.5000 
      3 O           5.9732  -16.2106  -48.2011 O.2       0 UNK        -0.5000 
      4 N           3.7903  -15.8655  -47.7320 N.am      1 UNK        -0.5000 
      5 CA          3.9584  -15.5447  -46.3081 C.3       1 UNK         0.1400 
      6 C6          2.6963  -15.8998  -45.4798 C.3       23 UNK        -0.0398 
      7 S7          1.2392  -14.8437  -45.7995 S.3       23 UNK        -0.2404 
      8 C8          0.0196  -16.0157  -46.4673 C.3       23 UNK        -0.0205 
      9 C9          0.2820  -16.3378  -47.9269 C.ar      23 UNK        -0.0193 
     10 C10        -0.1467  -15.4580  -48.9235 C.ar      23 UNK        -0.1150 
     11 C11         0.0876  -15.7430  -50.2708 C.ar      23 UNK        -0.0193 
     12 C12         0.7495  -16.9243  -50.6183 C.ar      23 UNK        -0.1150 
     13 C13         1.1742  -17.8172  -49.6293 C.ar      23 UNK        -0.0193 
     14 C14         0.9404  -17.5159  -48.2851 C.ar      23 UNK        -0.1150 
     15 C15         1.9072  -19.0931  -50.0140 C.3       23 UNK        -0.0205 
     16 S16         0.7805  -20.3507  -50.6871 S.3       23 UNK        -0.2404 
     17 C17        -0.1523  -20.8770  -49.2104 C.3       23 UNK        -0.0398 
     18 CA          0.2051  -22.3204  -48.7893 C.3       11 UNK         0.1400 
     19 N           1.5887  -22.4398  -48.3264 N.am      11 UNK        -0.5000 
     20 C           2.2382  -23.5942  -48.1220 C.2       10 UNK         0.5000 
     21 O           1.7357  -24.7027  -48.3081 O.2       10 UNK        -0.5000 
     22 CA          3.6798  -23.4903  -47.5864 C.3       10 UNK         0.1400 
     23 CB          4.6870  -23.5787  -48.7427 C.3       10 UNK        -0.1800 
     24 N           3.9317  -22.2615  -46.8258 N.am      10 UNK        -0.5000 
     25 C           3.3362  -21.9449  -45.6677 C.2       9 UNK         0.5000 
     26 O           2.5308  -22.6879  -45.1017 O.2       9 UNK        -0.5000 
     27 CA          3.6972  -20.5790  -45.0402 C.3       9 UNK         0.1400 
     28 CB          4.1088  -19.5100  -46.0787 C.3       9 UNK        -0.1800 
     29 N           2.6370  -20.0610  -44.1669 N.am      9 UNK        -0.5000 
     30 C           1.3724  -19.7830  -44.5125 C.2       8 UNK         0.5000 
     31 O           0.9211  -19.8958  -45.6571 O.2       8 UNK        -0.5000 
     32 CA          0.4578  -19.2954  -43.3793 C.3       8 UNK         0.1400 
     33 CB          0.8499  -17.8829  -42.9004 C.3       8 UNK        -0.1800 
     34 N          -0.9193  -19.3116  -43.8602 N.am      8 UNK        -0.5000 
     35 C          -2.0155  -19.2320  -43.1017 C.2       7 UNK         0.5000 
     36 O          -2.0020  -19.1289  -41.8736 O.2       7 UNK        -0.5000 
     37 CA         -3.3617  -19.3097  -43.8425 C.3       7 UNK         0.1400 
     38 CB         -4.0030  -20.6867  -43.6276 C.3       7 UNK        -0.1800 
     39 N          -4.2885  -18.2892  -43.3540 N.am      7 UNK        -0.5000 
     40 C          -4.3000  -16.9815  -43.6465 C.2       6 UNK         0.5000 
     41 O          -5.1034  -16.2187  -43.1070 O.2       6 UNK        -0.5000 
     42 CA         -3.3368  -16.4151  -44.7183 C.3       6 UNK         0.1400 
     43 CB         -3.9891  -16.4584  -46.1096 C.3       6 UNK        -0.1800 
     44 N          -2.9471  -15.0375  -44.4217 N.am      6 UNK        -0.5000 
     45 C          -2.1843  -14.6712  -43.3847 C.2       5 UNK         0.5000 
     46 O          -1.6591  -15.4714  -42.6095 O.2       5 UNK        -0.5000 
     47 CA         -1.9435  -13.1595  -43.2220 C.3       5 UNK         0.1400 
     48 CB         -1.2072  -12.8107  -41.9156 C.3       5 UNK        -0.1800 
     49 N          -1.1603  -12.6466  -44.3407 N.am      5 UNK        -0.5000 
     50 C          -1.6357  -12.2541  -45.5289 C.2       4 UNK         0.5000 
     51 O          -2.8308  -12.3016  -45.8252 O.2       4 UNK        -0.5000 
     52 CA         -0.5989  -11.7596  -46.5639 C.3       4 UNK         0.1400 
     53 CB         -1.1270  -10.5948  -47.4255 C.3       4 UNK        -0.1800 
     54 N           0.7130  -11.4438  -45.9787 N.am      4 UNK        -0.5000 
     55 C           1.0175  -10.4631  -45.1133 C.2       3 UNK         0.5000 
     56 O           0.2190   -9.6080  -44.7302 O.2       3 UNK        -0.5000 
     57 CA          2.4480  -10.4656  -44.5377 C.3       3 UNK         0.1400 
     58 CB          2.4395  -11.0322  -43.1087 C.3       3 UNK        -0.1800 
     59 N           3.3976  -11.2420  -45.3370 N.am      3 UNK        -0.5000 
     60 C           3.9120  -10.8632  -46.5121 C.2       2 UNK         0.5000 
     61 O           3.6525   -9.7866  -47.0503 O.2       2 UNK        -0.5000 
     62 CA          4.8520  -11.8554  -47.2251 C.3       2 UNK         0.1400 
     63 CB          6.3132  -11.6565  -46.7795 C.3       2 UNK        -0.1800 
     64 N           4.4456  -13.2661  -47.1309 N.am      2 UNK        -0.5000 
     65 C           4.4331  -14.0897  -46.0697 C.2       1 UNK         0.5000 
     66 O           4.7485  -13.7389  -44.9321 O.2       1 UNK        -0.5000 
     67 C          -0.8141  -22.8573  -47.7658 C.2       11 UNK         0.5000 
     68 O          -1.8957  -23.2699  -48.1772 O.2       11 UNK        -0.5000 
     69 N          -0.4681  -22.9043  -46.4698 N.am      12 UNK        -0.5000 
     70 CA         -1.3323  -23.4528  -45.4194 C.3       12 UNK         0.1400 
     71 CB         -0.6785  -23.2452  -44.0467 C.3       12 UNK        -0.1800 
     72 C          -1.7011  -24.9354  -45.6326 C.2       12 UNK         0.5000 
     73 O          -2.8217  -25.3335  -45.3115 O.2       12 UNK        -0.5000 
     74 N          -0.7780  -25.7063  -46.2247 N.am      13 UNK        -0.5000 
     75 CA         -0.9898  -27.1000  -46.6177 C.3       13 UNK         0.1400 
     76 CB          0.3730  -27.7562  -46.8847 C.3       13 UNK        -0.1800 
     77 C          -1.9099  -27.2497  -47.8462 C.2       13 UNK         0.5000 
     78 O          -2.5355  -28.2980  -48.0082 O.2       13 UNK        -0.5000 
     79 N          -2.0054  -26.2037  -48.6782 N.am      14 UNK        -0.5000 
     80 CA         -2.8406  -26.1411  -49.8766 C.3       14 UNK         0.1400 
     81 CB         -2.1663  -25.2192  -50.9065 C.3       14 UNK        -0.1800 
     82 C          -4.2694  -25.6914  -49.5171 C.2       14 UNK         0.5000 
     83 O          -4.7437  -24.6623  -50.0065 O.2       14 UNK        -0.5000 
     84 N          -4.9188  -26.4807  -48.6498 N.am      15 UNK        -0.5000 
     85 CA         -6.2910  -26.3259  -48.1585 C.3       15 UNK         0.1400 
     86 CB         -7.2964  -26.6023  -49.2969 C.3       15 UNK        -0.1800 
     87 C          -6.5273  -24.9658  -47.4719 C.2       15 UNK         0.5000 
     88 O          -7.4932  -24.2748  -47.7951 O.2       15 UNK        -0.5000 
     89 N          -5.6150  -24.5839  -46.5638 N.am      16 UNK        -0.5000 
     90 CA         -5.5961  -23.2985  -45.8524 C.3       16 UNK         0.1400 
     91 CB         -6.7873  -23.1963  -44.8752 C.3       16 UNK        -0.1800 
     92 C          -5.4936  -22.0993  -46.8218 C.2       16 UNK         0.5000 
     93 O          -6.2009  -21.1041  -46.6638 O.2       16 UNK        -0.5000 
     94 N          -4.6240  -22.2520  -47.8299 N.am      17 UNK        -0.5000 
     95 CA         -4.3369  -21.3466  -48.9455 C.3       17 UNK         0.1400 
     96 CB         -3.8683  -19.9633  -48.4481 C.3       17 UNK        -0.1800 
     97 C          -5.4475  -21.2443  -50.0078 C.2       17 UNK         0.5000 
     98 O          -5.2444  -20.5411  -50.9982 O.2       17 UNK        -0.5000 
     99 N          -6.5704  -21.9579  -49.8398 N.am      18 UNK        -0.5000 
    100 CA        -7.7009  -21.9313  -50.7695 C.3       18 UNK         0.1400 
    101 CB        -8.9323  -22.5728  -50.1144 C.3       18 UNK        -0.1800 
    102 C         -7.3985  -22.6083  -52.1178 C.2       18 UNK         0.5000 
    103 O         -7.9198  -22.1596  -53.1395 O.2       18 UNK        -0.5000 
    104 N         -6.5657  -23.6599  -52.1089 N.am      19 UNK        -0.5000 
    105 CA        -6.1435  -24.3574  -53.3255 C.3       19 UNK         0.1400 
    106 CB        -5.8143  -25.8230  -53.0032 C.3       19 UNK        -0.1800 
    107 C         -4.9502  -23.6599  -54.0023 C.2       19 UNK         0.5000 
    108 O         -4.8049  -23.7673  -55.2205 O.2       19 UNK        -0.5000 
    109 N         -4.1247  -22.9560  -53.2134 N.am      20 UNK        -0.5000 
    110 CA        -3.0035  -22.1579  -53.7086 C.3       20 UNK         0.1400 
    111 CB        -2.0166  -21.8612  -52.5686 C.3       20 UNK        -0.1800 
    112 C         -3.4754  -20.8507  -54.3630 C.2       20 UNK         0.5000 
    113 O         -3.0374  -20.5343  -55.4699 O.2       20 UNK        -0.5000 
    114 N         -4.3360  -20.1051  -53.6510 N.am      21 UNK        -0.5000 
    115 CA        -4.9230  -18.8136  -54.0323 C.3       21 UNK         0.1400 
    116 CB        -5.9732  -19.0216  -55.1424 C.3       21 UNK        -0.1800 
    117 C         -3.8760  -17.7329  -54.3930 C.2       21 UNK         0.5000 
    118 O         -4.1456  -16.8704  -55.2309 O.2       21 UNK        -0.5000 
    119 N         -2.6905  -17.8254  -53.7725 N.am      22 UNK        -0.5000 
    120 CA        -1.4787  -17.0388  -54.0674 C.3       22 UNK         0.1400 
    121 C         -0.8584  -17.3019  -55.4771 C.2       22 UNK         0.5000 
    122 N         -1.2179  -18.3684  -56.1824 N.am      22 UNK        -0.7600 
    123 O         -0.0045  -16.5460  -55.9329 O.2       22 UNK        -0.5000 
    124 C124       -1.6367  -15.5227  -53.7576 C.3       23 UNK        -0.0398 
    125 S125       -2.0048  -15.1951  -51.9984 S.3       23 UNK        -0.2404 
    126 C126       -0.3593  -14.7634  -51.3434 C.3       23 UNK        -0.0205 
    127 H127        5.1262  -15.8205  -50.6701 H         1 UNK         0.0600 
    128 H128        4.5614  -17.4451  -50.2723 H         1 UNK         0.0600 
    129 H129        3.4344  -16.0792  -50.2565 H         1 UNK         0.0600 
    130 H130        2.8398  -15.8430  -48.0775 H         1 UNK         0.3000 
    131 H131        4.7620  -16.1761  -45.9233 H         1 UNK         0.0600 
    132 H132        2.9246  -15.8289  -44.4150 H         1 UNK         0.0800 
    133 H133        2.4318  -16.9441  -45.6461 H         1 UNK         0.0800 
    134 H134       -0.9680  -15.5649  -46.3771 H         1 UNK         0.0800 
    135 H135       -0.0058  -16.9264  -45.8686 H         1 UNK         0.0800 
    136 H136       -0.6620  -14.5484  -48.6503 H         1 UNK         0.1150 
    137 H137        0.9381  -17.1500  -51.6580 H         1 UNK         0.1150 
    138 H138        1.2720  -18.1980  -47.5169 H         1 UNK         0.1150 
    139 H139        2.6547  -18.8614  -50.7733 H         1 UNK         0.0800 
    140 H140        2.4533  -19.5035  -49.1640 H         1 UNK         0.0800 
    141 H141        0.0059  -20.1833  -48.3839 H         1 UNK         0.0800 
    142 H142       -1.2090  -20.8021  -49.4698 H         1 UNK         0.0800 
    143 H143        0.1058  -22.9569  -49.6717 H         1 UNK         0.0600 
    144 H144        2.0714  -21.5774  -48.1271 H         1 UNK         0.3000 
    145 H145        3.8444  -24.3401  -46.9206 H         1 UNK         0.0600 
    146 H146        5.7128  -23.5846  -48.3738 H         1 UNK         0.0600 
    147 H147        4.5442  -24.4961  -49.3155 H         1 UNK         0.0600 
    148 H148        4.5818  -22.7410  -49.4334 H         1 UNK         0.0600 
    149 H149        4.5941  -21.6127  -47.2252 H         1 UNK         0.3000 
    150 H150        4.5579  -20.7637  -44.3962 H         1 UNK         0.0600 
    151 H151        5.0077  -19.8001  -46.6231 H         1 UNK         0.0600 
    152 H152        4.3363  -18.5647  -45.5879 H         1 UNK         0.0600 
    153 H153        3.3223  -19.3241  -46.8097 H         1 UNK         0.0600 
    154 H154        2.8940  -19.9707  -43.1943 H         1 UNK         0.3000 
    155 H155        0.5497  -20.0001  -42.5503 H         1 UNK         0.0600 
    156 H156        0.2752  -17.5899  -42.0219 H         1 UNK         0.0600 
    157 H157        0.6734  -17.1312  -43.6678 H         1 UNK         0.0600 
    158 H158        1.9028  -17.8299  -42.6225 H         1 UNK         0.0600 
    159 H159       -0.9835  -19.4577  -44.8607 H         1 UNK         0.3000 
    160 H160       -3.2049  -19.1793  -44.9149 H         1 UNK         0.0600 
    161 H161       -4.1939  -20.8853  -42.5720 H         1 UNK         0.0600 
    162 H162       -3.3583  -21.4824  -43.9971 H         1 UNK         0.0600 
    163 H163       -4.9521  -20.7557  -44.1561 H         1 UNK         0.0600 
    164 H164       -4.9237  -18.6083  -42.6382 H         1 UNK         0.3000 
    165 H165       -2.4173  -16.9973  -44.7508 H         1 UNK         0.0600 
    166 H166       -4.8902  -15.8451  -46.1486 H         1 UNK         0.0600 
    167 H167       -3.3077  -16.1007  -46.8817 H         1 UNK         0.0600 
    168 H168       -4.2757  -17.4757  -46.3778 H         1 UNK         0.0600 
    169 H169       -3.3329  -14.3105  -45.0113 H         1 UNK         0.3000 
    170 H170       -2.9177  -12.6664  -43.2005 H         1 UNK         0.0600 
    171 H171       -1.7651  -13.1625  -41.0470 H         1 UNK         0.0600 
    172 H172       -0.2155  -13.2636  -41.8764 H         1 UNK         0.0600 
    173 H173       -1.0858  -11.7325  -41.8086 H         1 UNK         0.0600 
    174 H174       -0.1603  -12.6313  -44.2110 H         1 UNK         0.3000 
    175 H175       -0.4274  -12.6024  -47.2338 H         1 UNK         0.0600 
    176 H176       -1.4136   -9.7360  -46.8182 H         1 UNK         0.0600 
    177 H177       -0.3768  -10.2641  -48.1437 H         1 UNK         0.0600 
    178 H178       -2.0071  -10.8978  -47.9938 H         1 UNK         0.0600 
    179 H179        1.4511  -12.0955  -46.2055 H         1 UNK         0.3000 
    180 H180        2.7905   -9.4296  -44.4971 H         1 UNK         0.0600 
    181 H181        1.7550  -10.4743  -42.4681 H         1 UNK         0.0600 
    182 H182        2.1278  -12.0774  -43.0916 H         1 UNK         0.0600 
    183 H183        3.4291  -10.9710  -42.6554 H         1 UNK         0.0600 
    184 H184        3.7090  -12.1320  -44.9583 H         1 UNK         0.3000 
    185 H185        4.8039  -11.6124  -48.2878 H         1 UNK         0.0600 
    186 H186        6.6407  -10.6339  -46.9706 H         1 UNK         0.0600 
    187 H187        6.4460  -11.8446  -45.7139 H         1 UNK         0.0600 
    188 H188        6.9849  -12.3200  -47.3242 H         1 UNK         0.0600 
    189 H189        4.1310  -13.6688  -48.0021 H         1 UNK         0.3000 
    190 H190        0.4443  -22.5683  -46.1865 H         1 UNK         0.3000 
    191 H191       -2.2625  -22.8848  -45.4445 H         1 UNK         0.0600 
    192 H192       -1.3281  -23.6020  -43.2464 H         1 UNK         0.0600 
    193 H193       -0.4815  -22.1910  -43.8579 H         1 UNK         0.0600 
    194 H194        0.2672  -23.7824  -43.9672 H         1 UNK         0.0600 
    195 H195        0.1045  -25.2903  -46.4908 H         1 UNK         0.3000 
    196 H196       -1.4633  -27.6245  -45.7851 H         1 UNK         0.0600 
    197 H197        0.2558  -28.8108  -47.1376 H         1 UNK         0.0600 
    198 H198        1.0163  -27.7028  -46.0063 H         1 UNK         0.0600 
    199 H199        0.8952  -27.2765  -47.7134 H         1 UNK         0.0600 
    200 H200       -1.5451  -25.3393  -48.4233 H         1 UNK         0.3000 
    201 H201       -2.9117  -27.1354  -50.3223 H         1 UNK         0.0600 
    202 H202       -1.1456  -25.5387  -51.1166 H         1 UNK         0.0600 
    203 H203       -2.1292  -24.1892  -50.5561 H         1 UNK         0.0600 
    204 H204       -2.7078  -25.2229  -51.8523 H         1 UNK         0.0600 
    205 H205       -4.4122  -27.2846  -48.2967 H         1 UNK         0.3000 
    206 H206       -6.4376  -27.0885  -47.3924 H         1 UNK         0.0600 
    207 H207       -7.1157  -27.5739  -49.7564 H         1 UNK         0.0600 
    208 H208       -8.3203  -26.6065  -48.9214 H         1 UNK         0.0600 
    209 H209       -7.2402  -25.8460  -50.0801 H         1 UNK         0.0600 
    210 H210       -4.8342  -25.1989  -46.3674 H         1 UNK         0.3000 
    211 H211       -4.6845  -23.2891  -45.2552 H         1 UNK         0.0600 
    212 H212       -7.7422  -23.1477  -45.3990 H         1 UNK         0.0600 
    213 H213       -6.7150  -22.3031  -44.2551 H         1 UNK         0.0600 
    214 H214       -6.8178  -24.0534  -44.2026 H         1 UNK         0.0600 
    215 H215       -4.0959  -23.1153  -47.8718 H         1 UNK         0.3000 
    216 H216       -3.4992  -21.7982  -49.4749 H         1 UNK         0.0600 
    217 H217       -4.6803  -19.4019  -47.9861 H         1 UNK         0.0600 
    218 H218       -3.4877  -19.3597  -49.2730 H         1 UNK         0.0600 
    219 H219       -3.0644  -20.0572  -47.7180 H         1 UNK         0.0600 
    220 H220       -6.6618  -22.5529  -49.0256 H         1 UNK         0.3000 
    221 H221       -7.9381  -20.8844  -50.9714 H         1 UNK         0.0600 
    222 H222       -8.7996  -23.6457  -49.9727 H         1 UNK         0.0600 
    223 H223       -9.1438  -22.1273  -49.1421 H         1 UNK         0.0600 
    224 H224       -9.8176  -22.4356  -50.7363 H         1 UNK         0.0600 
    225 H225       -6.1411  -23.9593  -51.2355 H         1 UNK         0.3000 
    226 H226       -6.9702  -24.3614  -54.0393 H         1 UNK         0.0600 
    227 H227       -6.6505  -26.3179  -52.5094 H         1 UNK         0.0600 
    228 H228       -5.6009  -26.3800  -53.9162 H         1 UNK         0.0600 
    229 H229       -4.9413  -25.9134  -52.3602 H         1 UNK         0.0600 
    230 H230       -4.3242  -22.9167  -52.2251 H         1 UNK         0.3000 
    231 H231       -2.4707  -22.7347  -54.4678 H         1 UNK         0.0600 
    232 H232       -2.5080  -21.4113  -51.7061 H         1 UNK         0.0600 
    233 H233       -1.5111  -22.7672  -52.2401 H         1 UNK         0.0600 
    234 H234       -1.2384  -21.1714  -52.8981 H         1 UNK         0.0600 
    235 H235       -4.6177  -20.4338  -52.7294 H         1 UNK         0.3000 
    236 H236       -5.4446  -18.4449  -53.1480 H         1 UNK         0.0600 
    237 H237       -6.7069  -19.7741  -54.8522 H         1 UNK         0.0600 
    238 H238       -6.5191  -18.0999  -55.3464 H         1 UNK         0.0600 
    239 H239       -5.5129  -19.3452  -56.0766 H         1 UNK         0.0600 
    240 H240       -2.5742  -18.5647  -53.0959 H         1 UNK         0.3000 
    241 H241       -0.7239  -17.4230  -53.3814 H         1 UNK         0.0600 
    242 H242       -1.9113  -19.0275  -55.8399 H         1 UNK         0.3800 
    243 H243       -0.7957  -18.5234  -57.0839 H         1 UNK         0.3800 
    244 H244       -2.4367  -15.0915  -54.3597 H         1 UNK         0.0800 
    245 H245       -0.7408  -14.9678  -54.0378 H         1 UNK         0.0800 
    246 H246        0.3895  -14.7299  -52.1352 H         1 UNK         0.0800 
    247 H247       -0.4022  -13.7533  -50.9330 H         1 UNK         0.0800 
@<TRIPOS>BOND
     1    1    2 1    
     2    1  127 1    
     3    1  128 1    
     4    1  129 1    
     5    2    3 2    
     6    2    4 am   BACKBONE|DICT|INTERRES
     7    4    5 1    
     8    4  130 1    
     9    5    6 1    
    10    5   65 1    
    11    5  131 1    
    12    6    7 1    
    13    6  132 1    
    14    6  133 1    
    15    7    8 1    
    16    8    9 1    
    17    8  134 1    
    18    8  135 1    
    19    9   10 ar   
    20    9   14 ar   
    21   10   11 ar   
    22   10  136 1    
    23   11   12 ar   
    24   11  126 1    
    25   12   13 ar   
    26   12  137 1    
    27   13   14 ar   
    28   13   15 1    
    29   14  138 1    
    30   15   16 1    
    31   15  139 1    
    32   15  140 1    
    33   16   17 1    
    34   17   18 1    
    35   17  141 1    
    36   17  142 1    
    37   18   19 1    
    38   18   67 1    
    39   18  143 1    
    40   19   20 am   BACKBONE|DICT|INTERRES
    41   19  144 1    
    42   20   21 2    
    43   20   22 1    
    44   22   23 1    
    45   22   24 1    
    46   22  145 1    
    47   23  146 1    
    48   23  147 1    
    49   23  148 1    
    50   24   25 am   BACKBONE|DICT|INTERRES
    51   24  149 1    
    52   25   26 2    
    53   25   27 1    
    54   27   28 1    
    55   27   29 1    
    56   27  150 1    
    57   28  151 1    
    58   28  152 1    
    59   28  153 1    
    60   29   30 am   BACKBONE|DICT|INTERRES
    61   29  154 1    
    62   30   31 2    
    63   30   32 1    
    64   32   33 1    
    65   32   34 1    
    66   32  155 1    
    67   33  156 1    
    68   33  157 1    
    69   33  158 1    
    70   34   35 am   BACKBONE|DICT|INTERRES
    71   34  159 1    
    72   35   36 2    
    73   35   37 1    
    74   37   38 1    
    75   37   39 1    
    76   37  160 1    
    77   38  161 1    
    78   38  162 1    
    79   38  163 1    
    80   39   40 am   BACKBONE|DICT|INTERRES
    81   39  164 1    
    82   40   41 2    
    83   40   42 1    
    84   42   43 1    
    85   42   44 1    
    86   42  165 1    
    87   43  166 1    
    88   43  167 1    
    89   43  168 1    
    90   44   45 am   BACKBONE|DICT|INTERRES
    91   44  169 1    
    92   45   46 2    
    93   45   47 1    
    94   47   48 1    
    95   47   49 1    
    96   47  170 1    
    97   48  171 1    
    98   48  172 1    
    99   48  173 1    
   100   49   50 am   BACKBONE|DICT|INTERRES
   101   49  174 1    
   102   50   51 2    
   103   50   52 1    
   104   52   53 1    
   105   52   54 1    
   106   52  175 1    
   107   53  176 1    
   108   53  177 1    
   109   53  178 1    
   110   54   55 am   BACKBONE|DICT|INTERRES
   111   54  179 1    
   112   55   56 2    
   113   55   57 1    
   114   57   58 1    
   115   57   59 1    
   116   57  180 1    
   117   58  181 1    
   118   58  182 1    
   119   58  183 1    
   120   59   60 am   BACKBONE|DICT|INTERRES
   121   59  184 1    
   122   60   61 2    
   123   60   62 1    
   124   62   63 1    
   125   62   64 1    
   126   62  185 1    
   127   63  186 1    
   128   63  187 1    
   129   63  188 1    
   130   64   65 am   BACKBONE|DICT|INTERRES
   131   64  189 1    
   132   65   66 2    
   133   67   68 2    
   134   67   69 am   BACKBONE|DICT|INTERRES
   135   69   70 1    
   136   69  190 1    
   137   70   71 1    
   138   70   72 1    
   139   70  191 1    
   140   71  192 1    
   141   71  193 1    
   142   71  194 1    
   143   72   73 2    
   144   72   74 am   BACKBONE|DICT|INTERRES
   145   74   75 1    
   146   74  195 1    
   147   75   76 1    
   148   75   77 1    
   149   75  196 1    
   150   76  197 1    
   151   76  198 1    
   152   76  199 1    
   153   77   78 2    
   154   77   79 am   BACKBONE|DICT|INTERRES
   155   79   80 1    
   156   79  200 1    
   157   80   81 1    
   158   80   82 1    
   159   80  201 1    
   160   81  202 1    
   161   81  203 1    
   162   81  204 1    
   163   82   83 2    
   164   82   84 am   BACKBONE|DICT|INTERRES
   165   84   85 1    
   166   84  205 1    
   167   85   86 1    
   168   85   87 1    
   169   85  206 1    
   170   86  207 1    
   171   86  208 1    
   172   86  209 1    
   173   87   88 2    
   174   87   89 am   BACKBONE|DICT|INTERRES
   175   89   90 1    
   176   89  210 1    
   177   90   91 1    
   178   90   92 1    
   179   90  211 1    
   180   91  212 1    
   181   91  213 1    
   182   91  214 1    
   183   92   93 2    
   184   92   94 am   BACKBONE|DICT|INTERRES
   185   94   95 1    
   186   94  215 1    
   187   95   96 1    
   188   95   97 1    
   189   95  216 1    
   190   96  217 1    
   191   96  218 1    
   192   96  219 1    
   193   97   98 2    
   194   97   99 am   BACKBONE|DICT|INTERRES
   195   99  100 1    
   196   99  220 1    
   197  100  101 1    
   198  100  102 1    
   199  100  221 1    
   200  101  222 1    
   201  101  223 1    
   202  101  224 1    
   203  102  103 2    
   204  102  104 am   BACKBONE|DICT|INTERRES
   205  104  105 1    
   206  104  225 1    
   207  105  106 1    
   208  105  107 1    
   209  105  226 1    
   210  106  227 1    
   211  106  228 1    
   212  106  229 1    
   213  107  108 2    
   214  107  109 am   BACKBONE|DICT|INTERRES
   215  109  110 1    
   216  109  230 1    
   217  110  111 1    
   218  110  112 1    
   219  110  231 1    
   220  111  232 1    
   221  111  233 1    
   222  111  234 1    
   223  112  113 2    
   224  112  114 am   BACKBONE|DICT|INTERRES
   225  114  115 1    
   226  114  235 1    
   227  115  116 1    
   228  115  117 1    
   229  115  236 1    
   230  116  237 1    
   231  116  238 1    
   232  116  239 1    
   233  117  118 2    
   234  117  119 am   BACKBONE|DICT|INTERRES
   235  119  120 1    
   236  119  240 1    
   237  120  121 1    
   238  120  124 1    
   239  120  241 1    
   240  121  122 am   BACKBONE|DICT|INTERRES
   241  121  123 2    
   242  122  242 1    
   243  122  243 1    
   244  124  125 1    
   245  124  244 1    
   246  124  245 1    
   247  125  126 1    
   248  126  246 1    
   249  126  247 1    
@<TRIPOS>SUBSTRUCTURE
     1 UNK         1 GROUP             0       ****    0 ROOT    
