@<TRIPOS>MOLECULE
3R540
247   249    1
SMALL
USER_CHARGES


@<TRIPOS>ATOM
      1 CA          4.9494  -13.9012  -46.8786 C.3       0 UNK        -0.1800 
      2 C           3.5103  -13.6097  -46.4776 C.2       0 UNK         0.5000 
      3 O           3.1331  -13.8256  -45.3220 O.2       0 UNK        -0.5000 
      4 N           2.7107  -13.1175  -47.4291 N.am      1 UNK        -0.5000 
      5 CA          1.3291  -12.6708  -47.2297 C.3       1 UNK         0.1400 
      6 C6          0.5786  -12.5131  -48.5774 C.3       23 UNK        -0.0398 
      7 S7          0.4626  -14.0668  -49.5295 S.3       23 UNK        -0.2404 
      8 C8         -0.7748  -14.9661  -48.5424 C.3       23 UNK        -0.0205 
      9 C9         -1.3259  -16.1949  -49.2521 C.ar      23 UNK        -0.0193 
     10 C10        -2.7045  -16.3247  -49.4476 C.ar      23 UNK        -0.1150 
     11 C11        -3.2368  -17.4718  -50.0417 C.ar      23 UNK        -0.0193 
     12 C12        -2.3738  -18.4928  -50.4501 C.ar      23 UNK        -0.1150 
     13 C13        -0.9930  -18.3684  -50.2805 C.ar      23 UNK        -0.0193 
     14 C14        -0.4744  -17.2228  -49.6702 C.ar      23 UNK        -0.1150 
     15 C15        -0.0671  -19.4755  -50.7594 C.3       23 UNK        -0.0205 
     16 S16         0.4415  -20.5757  -49.4040 S.3       23 UNK        -0.2404 
     17 C17        -1.1727  -21.1699  -48.7984 C.3       23 UNK        -0.0398 
     18 CA         -1.0278  -22.3954  -47.8721 C.3       11 UNK         0.1400 
     19 N          -0.3312  -22.0772  -46.6252 N.am      11 UNK        -0.5000 
     20 C           0.1180  -22.9848  -45.7495 C.2       10 UNK         0.5000 
     21 O           0.0076  -24.1993  -45.9090 O.2       10 UNK        -0.5000 
     22 CA          0.7372  -22.4429  -44.4505 C.3       10 UNK         0.1400 
     23 CB          2.1803  -21.9676  -44.6775 C.3       10 UNK        -0.1800 
     24 N          -0.0609  -21.3566  -43.8830 N.am      10 UNK        -0.5000 
     25 C          -1.2927  -21.5110  -43.3776 C.2       9 UNK         0.5000 
     26 O          -1.8674  -22.5973  -43.2959 O.2       9 UNK        -0.5000 
     27 CA         -2.0183  -20.2294  -42.9328 C.3       9 UNK         0.1400 
     28 CB         -1.5829  -19.8171  -41.5188 C.3       9 UNK        -0.1800 
     29 N          -1.7908  -19.1199  -43.8599 N.am      9 UNK        -0.5000 
     30 C          -2.3190  -19.0531  -45.0915 C.2       8 UNK         0.5000 
     31 O          -3.0677  -19.9095  -45.5584 O.2       8 UNK        -0.5000 
     32 CA         -1.9107  -17.8543  -45.9688 C.3       8 UNK         0.1400 
     33 CB         -2.8474  -16.6631  -45.7187 C.3       8 UNK        -0.1800 
     34 N          -0.5236  -17.4315  -45.7687 N.am      8 UNK        -0.5000 
     35 C           0.5459  -18.2149  -45.9663 C.2       7 UNK         0.5000 
     36 O           0.4729  -19.3845  -46.3343 O.2       7 UNK        -0.5000 
     37 CA          1.9274  -17.6183  -45.6485 C.3       7 UNK         0.1400 
     38 CB          2.5590  -17.0434  -46.9237 C.3       7 UNK        -0.1800 
     39 N           1.9269  -16.5988  -44.5934 N.am      7 UNK        -0.5000 
     40 C           1.4905  -16.7845  -43.3369 C.2       6 UNK         0.5000 
     41 O           0.9434  -17.8189  -42.9484 O.2       6 UNK        -0.5000 
     42 CA          1.7011  -15.6017  -42.3701 C.3       6 UNK         0.1400 
     43 CB          1.4326  -15.9590  -40.8937 C.3       6 UNK        -0.1800 
     44 N           3.0195  -14.9805  -42.5386 N.am      6 UNK        -0.5000 
     45 C           4.2241  -15.5448  -42.3445 C.2       5 UNK         0.5000 
     46 O           4.3863  -16.6784  -41.8922 O.2       5 UNK        -0.5000 
     47 CA          5.4622  -14.7130  -42.7369 C.3       5 UNK         0.1400 
     48 CB          6.2731  -15.4238  -43.8331 C.3       5 UNK        -0.1800 
     49 N           5.0849  -13.3762  -43.2030 N.am      5 UNK        -0.5000 
     50 C           5.6201  -12.2274  -42.7715 C.2       4 UNK         0.5000 
     51 O           6.6018  -12.1574  -42.0311 O.2       4 UNK        -0.5000 
     52 CA          4.8916  -10.9378  -43.1956 C.3       4 UNK         0.1400 
     53 CB          5.2555  -10.5338  -44.6316 C.3       4 UNK        -0.1800 
     54 N           3.4362  -11.0640  -43.0639 N.am      4 UNK        -0.5000 
     55 C           2.7975  -11.1588  -41.8858 C.2       3 UNK         0.5000 
     56 O           3.3767  -11.0917  -40.8006 O.2       3 UNK        -0.5000 
     57 CA          1.2732  -11.4091  -41.9083 C.3       3 UNK         0.1400 
     58 CB          0.5430  -10.7465  -40.7210 C.3       3 UNK        -0.1800 
     59 N           0.6209  -11.0782  -43.1797 N.am      3 UNK        -0.5000 
     60 C           0.4811   -9.8670  -43.7406 C.2       2 UNK         0.5000 
     61 O           0.9039   -8.8220  -43.2439 O.2       2 UNK        -0.5000 
     62 CA         -0.2527   -9.8481  -45.0995 C.3       2 UNK         0.1400 
     63 CB         -0.0380   -8.5381  -45.8875 C.3       2 UNK        -0.1800 
     64 N           0.0593  -11.0219  -45.9299 N.am      2 UNK        -0.5000 
     65 C           1.2669  -11.3639  -46.4062 C.2       1 UNK         0.5000 
     66 O           2.2888  -10.7025  -46.2076 O.2       1 UNK        -0.5000 
     67 C          -2.3977  -23.0561  -47.6268 C.2       11 UNK         0.5000 
     68 O          -2.7875  -23.9151  -48.4165 O.2       11 UNK        -0.5000 
     69 N          -3.1005  -22.6791  -46.5497 N.am      12 UNK        -0.5000 
     70 CA         -4.3375  -23.3311  -46.1174 C.3       12 UNK         0.1400 
     71 CB         -5.0365  -22.4863  -45.0426 C.3       12 UNK        -0.1800 
     72 C          -4.0920  -24.7671  -45.6241 C.2       12 UNK         0.5000 
     73 O          -4.8275  -25.6726  -46.0170 O.2       12 UNK        -0.5000 
     74 N          -3.0401  -24.9578  -44.8145 N.am      13 UNK        -0.5000 
     75 CA         -2.6107  -26.2627  -44.3049 C.3       13 UNK         0.1400 
     76 CB         -1.5269  -26.0623  -43.2347 C.3       13 UNK        -0.1800 
     77 C          -2.1180  -27.2113  -45.4157 C.2       13 UNK         0.5000 
     78 O          -2.4366  -28.4004  -45.3871 O.2       13 UNK        -0.5000 
     79 N          -1.3751  -26.6635  -46.3865 N.am      14 UNK        -0.5000 
     80 CA         -0.8628  -27.3771  -47.5591 C.3       14 UNK         0.1400 
     81 CB          0.2975  -26.5649  -48.1568 C.3       14 UNK        -0.1800 
     82 C          -1.9289  -27.6459  -48.6415 C.2       14 UNK         0.5000 
     83 O          -1.6629  -28.4220  -49.5595 O.2       14 UNK        -0.5000 
     84 N          -3.0873  -26.9765  -48.5397 N.am      15 UNK        -0.5000 
     85 CA         -4.1986  -26.9435  -49.4999 C.3       15 UNK         0.1400 
     86 CB         -4.8105  -28.3426  -49.7145 C.3       15 UNK        -0.1800 
     87 C          -3.8502  -26.2332  -50.8272 C.2       15 UNK         0.5000 
     88 O          -4.5798  -26.3680  -51.8098 O.2       15 UNK        -0.5000 
     89 N          -2.7780  -25.4312  -50.8217 N.am      16 UNK        -0.5000 
     90 CA         -2.3796  -24.5481  -51.9155 C.3       16 UNK         0.1400 
     91 CB         -0.9487  -24.0489  -51.6692 C.3       16 UNK        -0.1800 
     92 C          -3.3534  -23.3673  -52.0767 C.2       16 UNK         0.5000 
     93 O          -3.5921  -22.9236  -53.1989 O.2       16 UNK        -0.5000 
     94 N          -3.9442  -22.9091  -50.9631 N.am      17 UNK        -0.5000 
     95 CA         -4.9972  -21.8920  -50.9593 C.3       17 UNK         0.1400 
     96 CB         -5.2719  -21.4344  -49.5203 C.3       17 UNK        -0.1800 
     97 C          -6.2884  -22.3900  -51.6372 C.2       17 UNK         0.5000 
     98 O          -6.9122  -21.6380  -52.3848 O.2       17 UNK        -0.5000 
     99 N          -6.6289  -23.6695  -51.4185 N.am      18 UNK        -0.5000 
    100 CA        -7.7461  -24.3567  -52.0741 C.3       18 UNK         0.1400 
    101 CB        -8.0363  -25.6768  -51.3438 C.3       18 UNK        -0.1800 
    102 C         -7.4926  -24.6001  -53.5756 C.2       18 UNK         0.5000 
    103 O         -8.4385  -24.5798  -54.3631 O.2       18 UNK        -0.5000 
    104 N         -6.2171  -24.7739  -53.9494 N.am      19 UNK        -0.5000 
    105 CA        -5.7386  -24.8509  -55.3324 C.3       19 UNK         0.1400 
    106 CB        -4.3926  -25.5937  -55.3518 C.3       19 UNK        -0.1800 
    107 C         -5.6185  -23.4707  -56.0197 C.2       19 UNK         0.5000 
    108 O         -5.2441  -23.4193  -57.1920 O.2       19 UNK        -0.5000 
    109 N         -5.9394  -22.3887  -55.2936 N.am      20 UNK        -0.5000 
    110 CA        -5.9460  -20.9878  -55.7196 C.3       20 UNK         0.1400 
    111 CB        -6.9569  -20.7541  -56.8624 C.3       20 UNK        -0.1800 
    112 C         -4.5414  -20.4265  -56.0199 C.2       20 UNK         0.5000 
    113 O         -4.3840  -19.6097  -56.9293 O.2       20 UNK        -0.5000 
    114 N         -3.5456  -20.8234  -55.2134 N.am      21 UNK        -0.5000 
    115 CA        -2.1763  -20.2916  -55.2501 C.3       21 UNK         0.1400 
    116 CB        -1.2438  -21.2556  -54.4997 C.3       21 UNK        -0.1800 
    117 C         -2.0434  -18.8586  -54.6826 C.2       21 UNK         0.5000 
    118 O         -0.9445  -18.3036  -54.7031 O.2       21 UNK        -0.5000 
    119 N         -3.1483  -18.2930  -54.1792 N.am      22 UNK        -0.5000 
    120 CA        -3.2594  -16.9525  -53.5802 C.3       22 UNK         0.1400 
    121 C         -2.9479  -15.7631  -54.5371 C.2       22 UNK         0.5000 
    122 N         -2.9592  -15.9463  -55.8522 N.am      22 UNK        -0.7600 
    123 O         -2.6990  -14.6525  -54.0769 O.2       22 UNK        -0.5000 
    124 C124       -4.6464  -16.7336  -52.9128 C.3       23 UNK        -0.0398 
    125 S125       -5.2279  -18.1350  -51.8929 S.3       23 UNK        -0.2404 
    126 C126       -4.7442  -17.6084  -50.2167 C.3       23 UNK        -0.0205 
    127 H127        5.1150  -14.9749  -46.9498 H         1 UNK         0.0600 
    128 H128        5.1949  -13.4565  -47.8432 H         1 UNK         0.0600 
    129 H129        5.6393  -13.4963  -46.1389 H         1 UNK         0.0600 
    130 H130        3.0858  -12.9580  -48.3526 H         1 UNK         0.3000 
    131 H131        0.8210  -13.4339  -46.6375 H         1 UNK         0.0600 
    132 H132       -0.4349  -12.1376  -48.4265 H         1 UNK         0.0800 
    133 H133        1.0789  -11.7718  -49.2030 H         1 UNK         0.0800 
    134 H134       -0.3217  -15.2816  -47.6035 H         1 UNK         0.0800 
    135 H135       -1.5864  -14.2848  -48.2830 H         1 UNK         0.0800 
    136 H136       -3.3684  -15.5376  -49.1187 H         1 UNK         0.1150 
    137 H137       -2.7783  -19.3822  -50.9117 H         1 UNK         0.1150 
    138 H138        0.5918  -17.1328  -49.5174 H         1 UNK         0.1150 
    139 H139        0.8225  -19.0366  -51.2132 H         1 UNK         0.0800 
    140 H140       -0.5473  -20.0644  -51.5417 H         1 UNK         0.0800 
    141 H141       -1.7866  -21.4112  -49.6676 H         1 UNK         0.0800 
    142 H142       -1.6773  -20.3556  -48.2754 H         1 UNK         0.0800 
    143 H143       -0.4197  -23.1364  -48.3945 H         1 UNK         0.0600 
    144 H144       -0.1420  -21.0910  -46.4525 H         1 UNK         0.3000 
    145 H145        0.7602  -23.2596  -43.7259 H         1 UNK         0.0600 
    146 H146        2.6320  -21.6208  -43.7480 H         1 UNK         0.0600 
    147 H147        2.8005  -22.7806  -45.0570 H         1 UNK         0.0600 
    148 H148        2.2331  -21.1531  -45.3999 H         1 UNK         0.0600 
    149 H149        0.3203  -20.4236  -43.9512 H         1 UNK         0.3000 
    150 H150       -3.0892  -20.4425  -42.9083 H         1 UNK         0.0600 
    151 H151       -0.5165  -19.5935  -41.4721 H         1 UNK         0.0600 
    152 H152       -1.7817  -20.6152  -40.8025 H         1 UNK         0.0600 
    153 H153       -2.1253  -18.9340  -41.1807 H         1 UNK         0.0600 
    154 H154       -1.1255  -18.4138  -43.5702 H         1 UNK         0.3000 
    155 H155       -2.0152  -18.1600  -47.0119 H         1 UNK         0.0600 
    156 H156       -2.7738  -16.3012  -44.6925 H         1 UNK         0.0600 
    157 H157       -3.8869  -16.9430  -45.8952 H         1 UNK         0.0600 
    158 H158       -2.6213  -15.8315  -46.3848 H         1 UNK         0.0600 
    159 H159       -0.3740  -16.4943  -45.4289 H         1 UNK         0.3000 
    160 H160        2.5561  -18.4408  -45.3014 H         1 UNK         0.0600 
    161 H161        2.0216  -16.1645  -47.2810 H         1 UNK         0.0600 
    162 H162        2.5544  -17.7791  -47.7295 H         1 UNK         0.0600 
    163 H163        3.5971  -16.7633  -46.7515 H         1 UNK         0.0600 
    164 H164        2.3618  -15.7118  -44.8218 H         1 UNK         0.3000 
    165 H165        0.9682  -14.8479  -42.6600 H         1 UNK         0.0600 
    166 H166        1.5829  -15.0955  -40.2458 H         1 UNK         0.0600 
    167 H167        2.0838  -16.7599  -40.5430 H         1 UNK         0.0600 
    168 H168        0.4038  -16.2937  -40.7550 H         1 UNK         0.0600 
    169 H169        3.0094  -14.0629  -42.9562 H         1 UNK         0.3000 
    170 H170        6.0816  -14.6367  -41.8410 H         1 UNK         0.0600 
    171 H171        6.6769  -16.3685  -43.4674 H         1 UNK         0.0600 
    172 H172        5.6569  -15.6500  -44.7028 H         1 UNK         0.0600 
    173 H173        7.1159  -14.8158  -44.1622 H         1 UNK         0.0600 
    174 H174        4.3283  -13.3406  -43.8787 H         1 UNK         0.3000 
    175 H175        5.2234  -10.1367  -42.5314 H         1 UNK         0.0600 
    176 H176        4.9136  -11.2678  -45.3594 H         1 UNK         0.0600 
    177 H177        4.8076   -9.5752  -44.8942 H         1 UNK         0.0600 
    178 H178        6.3352  -10.4322  -44.7481 H         1 UNK         0.0600 
    179 H179        2.9010  -11.0903  -43.9220 H         1 UNK         0.3000 
    180 H180        1.1564  -12.4867  -41.7897 H         1 UNK         0.0600 
    181 H181        0.6826   -9.6653  -40.7101 H         1 UNK         0.0600 
    182 H182        0.9121  -11.1309  -39.7694 H         1 UNK         0.0600 
    183 H183       -0.5278  -10.9469  -40.7544 H         1 UNK         0.0600 
    184 H184        0.2388  -11.8635  -43.6866 H         1 UNK         0.3000 
    185 H185       -1.3161   -9.9140  -44.8648 H         1 UNK         0.0600 
    186 H186        1.0162   -8.3569  -46.0984 H         1 UNK         0.0600 
    187 H187       -0.5719   -8.5575  -46.8375 H         1 UNK         0.0600 
    188 H188       -0.4091   -7.6799  -45.3260 H         1 UNK         0.0600 
    189 H189       -0.7290  -11.6211  -46.1325 H         1 UNK         0.3000 
    190 H190       -2.7736  -21.9018  -45.9867 H         1 UNK         0.3000 
    191 H191       -5.0070  -23.3943  -46.9764 H         1 UNK         0.0600 
    192 H192       -5.9581  -22.9642  -44.7083 H         1 UNK         0.0600 
    193 H193       -5.3039  -21.5030  -45.4297 H         1 UNK         0.0600 
    194 H194       -4.4055  -22.3407  -44.1662 H         1 UNK         0.0600 
    195 H195       -2.5023  -24.1521  -44.5121 H         1 UNK         0.3000 
    196 H196       -3.4729  -26.7331  -43.8278 H         1 UNK         0.0600 
    197 H197       -0.6420  -25.5728  -43.6421 H         1 UNK         0.0600 
    198 H198       -1.8956  -25.4511  -42.4107 H         1 UNK         0.0600 
    199 H199       -1.2103  -27.0181  -42.8155 H         1 UNK         0.0600 
    200 H200       -1.0860  -25.6933  -46.2856 H         1 UNK         0.3000 
    201 H201       -0.4728  -28.3441  -47.2349 H         1 UNK         0.0600 
    202 H202       -0.0354  -25.5860  -48.5035 H         1 UNK         0.0600 
    203 H203        0.7426  -27.0810  -49.0084 H         1 UNK         0.0600 
    204 H204        1.0887  -26.4086  -47.4233 H         1 UNK         0.0600 
    205 H205       -3.1903  -26.3543  -47.7487 H         1 UNK         0.3000 
    206 H206       -4.9656  -26.3253  -49.0312 H         1 UNK         0.0600 
    207 H207       -5.0442  -28.8206  -48.7632 H         1 UNK         0.0600 
    208 H208       -5.7400  -28.2790  -50.2813 H         1 UNK         0.0600 
    209 H209       -4.1399  -29.0008  -50.2671 H         1 UNK         0.0600 
    210 H210       -2.3062  -25.2987  -49.9364 H         1 UNK         0.3000 
    211 H211       -2.3867  -25.1243  -52.8422 H         1 UNK         0.0600 
    212 H212       -0.6019  -23.4312  -52.4979 H         1 UNK         0.0600 
    213 H213       -0.2524  -24.8822  -51.5739 H         1 UNK         0.0600 
    214 H214       -0.8786  -23.4503  -50.7621 H         1 UNK         0.0600 
    215 H215       -3.6911  -23.3266  -50.0735 H         1 UNK         0.3000 
    216 H216       -4.6346  -21.0336  -51.5274 H         1 UNK         0.0600 
    217 H217       -5.6220  -22.2575  -48.8985 H         1 UNK         0.0600 
    218 H218       -6.0406  -20.6610  -49.4998 H         1 UNK         0.0600 
    219 H219       -4.3783  -21.0150  -49.0580 H         1 UNK         0.0600 
    220 H220       -6.0471  -24.2277  -50.8133 H         1 UNK         0.3000 
    221 H221       -8.6305  -23.7217  -51.9878 H         1 UNK         0.0600 
    222 H222       -8.2558  -25.5059  -50.2898 H         1 UNK         0.0600 
    223 H223       -7.1966  -26.3687  -51.4047 H         1 UNK         0.0600 
    224 H224       -8.9023  -26.1778  -51.7782 H         1 UNK         0.0600 
    225 H225       -5.5097  -24.8313  -53.2285 H         1 UNK         0.3000 
    226 H226       -6.4538  -25.4384  -55.9116 H         1 UNK         0.0600 
    227 H227       -3.6034  -25.0082  -54.8822 H         1 UNK         0.0600 
    228 H228       -4.4581  -26.5501  -54.8325 H         1 UNK         0.0600 
    229 H229       -4.0768  -25.8007  -56.3749 H         1 UNK         0.0600 
    230 H230       -6.2077  -22.5391  -54.3299 H         1 UNK         0.3000 
    231 H231       -6.3055  -20.4233  -54.8581 H         1 UNK         0.0600 
    232 H232       -6.6361  -21.2228  -57.7929 H         1 UNK         0.0600 
    233 H233       -7.0813  -19.6891  -57.0613 H         1 UNK         0.0600 
    234 H234       -7.9393  -21.1514  -56.6067 H         1 UNK         0.0600 
    235 H235       -3.7311  -21.5303  -54.5055 H         1 UNK         0.3000 
    236 H236       -1.8538  -20.2559  -56.2925 H         1 UNK         0.0600 
    237 H237       -1.3279  -22.2714  -54.8867 H         1 UNK         0.0600 
    238 H238       -0.2007  -20.9544  -54.6025 H         1 UNK         0.0600 
    239 H239       -1.4727  -21.2797  -53.4346 H         1 UNK         0.0600 
    240 H240       -3.9972  -18.8365  -54.1821 H         1 UNK         0.3000 
    241 H241       -2.5016  -16.9047  -52.7971 H         1 UNK         0.0600 
    242 H242       -2.7559  -15.1717  -56.4643 H         1 UNK         0.3800 
    243 H243       -3.1659  -16.8532  -56.2413 H         1 UNK         0.3800 
    244 H244       -5.4063  -16.5657  -53.6782 H         1 UNK         0.0800 
    245 H245       -4.6337  -15.8292  -52.3018 H         1 UNK         0.0800 
    246 H246       -5.2507  -16.6705  -49.9841 H         1 UNK         0.0800 
    247 H247       -5.1107  -18.3410  -49.4973 H         1 UNK         0.0800 
@<TRIPOS>BOND
     1    1    2 1    
     2    1  127 1    
     3    1  128 1    
     4    1  129 1    
     5    2    3 2    
     6    2    4 am   BACKBONE|DICT|INTERRES
     7    4    5 1    
     8    4  130 1    
     9    5    6 1    
    10    5   65 1    
    11    5  131 1    
    12    6    7 1    
    13    6  132 1    
    14    6  133 1    
    15    7    8 1    
    16    8    9 1    
    17    8  134 1    
    18    8  135 1    
    19    9   10 ar   
    20    9   14 ar   
    21   10   11 ar   
    22   10  136 1    
    23   11   12 ar   
    24   11  126 1    
    25   12   13 ar   
    26   12  137 1    
    27   13   14 ar   
    28   13   15 1    
    29   14  138 1    
    30   15   16 1    
    31   15  139 1    
    32   15  140 1    
    33   16   17 1    
    34   17   18 1    
    35   17  141 1    
    36   17  142 1    
    37   18   19 1    
    38   18   67 1    
    39   18  143 1    
    40   19   20 am   BACKBONE|DICT|INTERRES
    41   19  144 1    
    42   20   21 2    
    43   20   22 1    
    44   22   23 1    
    45   22   24 1    
    46   22  145 1    
    47   23  146 1    
    48   23  147 1    
    49   23  148 1    
    50   24   25 am   BACKBONE|DICT|INTERRES
    51   24  149 1    
    52   25   26 2    
    53   25   27 1    
    54   27   28 1    
    55   27   29 1    
    56   27  150 1    
    57   28  151 1    
    58   28  152 1    
    59   28  153 1    
    60   29   30 am   BACKBONE|DICT|INTERRES
    61   29  154 1    
    62   30   31 2    
    63   30   32 1    
    64   32   33 1    
    65   32   34 1    
    66   32  155 1    
    67   33  156 1    
    68   33  157 1    
    69   33  158 1    
    70   34   35 am   BACKBONE|DICT|INTERRES
    71   34  159 1    
    72   35   36 2    
    73   35   37 1    
    74   37   38 1    
    75   37   39 1    
    76   37  160 1    
    77   38  161 1    
    78   38  162 1    
    79   38  163 1    
    80   39   40 am   BACKBONE|DICT|INTERRES
    81   39  164 1    
    82   40   41 2    
    83   40   42 1    
    84   42   43 1    
    85   42   44 1    
    86   42  165 1    
    87   43  166 1    
    88   43  167 1    
    89   43  168 1    
    90   44   45 am   BACKBONE|DICT|INTERRES
    91   44  169 1    
    92   45   46 2    
    93   45   47 1    
    94   47   48 1    
    95   47   49 1    
    96   47  170 1    
    97   48  171 1    
    98   48  172 1    
    99   48  173 1    
   100   49   50 am   BACKBONE|DICT|INTERRES
   101   49  174 1    
   102   50   51 2    
   103   50   52 1    
   104   52   53 1    
   105   52   54 1    
   106   52  175 1    
   107   53  176 1    
   108   53  177 1    
   109   53  178 1    
   110   54   55 am   BACKBONE|DICT|INTERRES
   111   54  179 1    
   112   55   56 2    
   113   55   57 1    
   114   57   58 1    
   115   57   59 1    
   116   57  180 1    
   117   58  181 1    
   118   58  182 1    
   119   58  183 1    
   120   59   60 am   BACKBONE|DICT|INTERRES
   121   59  184 1    
   122   60   61 2    
   123   60   62 1    
   124   62   63 1    
   125   62   64 1    
   126   62  185 1    
   127   63  186 1    
   128   63  187 1    
   129   63  188 1    
   130   64   65 am   BACKBONE|DICT|INTERRES
   131   64  189 1    
   132   65   66 2    
   133   67   68 2    
   134   67   69 am   BACKBONE|DICT|INTERRES
   135   69   70 1    
   136   69  190 1    
   137   70   71 1    
   138   70   72 1    
   139   70  191 1    
   140   71  192 1    
   141   71  193 1    
   142   71  194 1    
   143   72   73 2    
   144   72   74 am   BACKBONE|DICT|INTERRES
   145   74   75 1    
   146   74  195 1    
   147   75   76 1    
   148   75   77 1    
   149   75  196 1    
   150   76  197 1    
   151   76  198 1    
   152   76  199 1    
   153   77   78 2    
   154   77   79 am   BACKBONE|DICT|INTERRES
   155   79   80 1    
   156   79  200 1    
   157   80   81 1    
   158   80   82 1    
   159   80  201 1    
   160   81  202 1    
   161   81  203 1    
   162   81  204 1    
   163   82   83 2    
   164   82   84 am   BACKBONE|DICT|INTERRES
   165   84   85 1    
   166   84  205 1    
   167   85   86 1    
   168   85   87 1    
   169   85  206 1    
   170   86  207 1    
   171   86  208 1    
   172   86  209 1    
   173   87   88 2    
   174   87   89 am   BACKBONE|DICT|INTERRES
   175   89   90 1    
   176   89  210 1    
   177   90   91 1    
   178   90   92 1    
   179   90  211 1    
   180   91  212 1    
   181   91  213 1    
   182   91  214 1    
   183   92   93 2    
   184   92   94 am   BACKBONE|DICT|INTERRES
   185   94   95 1    
   186   94  215 1    
   187   95   96 1    
   188   95   97 1    
   189   95  216 1    
   190   96  217 1    
   191   96  218 1    
   192   96  219 1    
   193   97   98 2    
   194   97   99 am   BACKBONE|DICT|INTERRES
   195   99  100 1    
   196   99  220 1    
   197  100  101 1    
   198  100  102 1    
   199  100  221 1    
   200  101  222 1    
   201  101  223 1    
   202  101  224 1    
   203  102  103 2    
   204  102  104 am   BACKBONE|DICT|INTERRES
   205  104  105 1    
   206  104  225 1    
   207  105  106 1    
   208  105  107 1    
   209  105  226 1    
   210  106  227 1    
   211  106  228 1    
   212  106  229 1    
   213  107  108 2    
   214  107  109 am   BACKBONE|DICT|INTERRES
   215  109  110 1    
   216  109  230 1    
   217  110  111 1    
   218  110  112 1    
   219  110  231 1    
   220  111  232 1    
   221  111  233 1    
   222  111  234 1    
   223  112  113 2    
   224  112  114 am   BACKBONE|DICT|INTERRES
   225  114  115 1    
   226  114  235 1    
   227  115  116 1    
   228  115  117 1    
   229  115  236 1    
   230  116  237 1    
   231  116  238 1    
   232  116  239 1    
   233  117  118 2    
   234  117  119 am   BACKBONE|DICT|INTERRES
   235  119  120 1    
   236  119  240 1    
   237  120  121 1    
   238  120  124 1    
   239  120  241 1    
   240  121  122 am   BACKBONE|DICT|INTERRES
   241  121  123 2    
   242  122  242 1    
   243  122  243 1    
   244  124  125 1    
   245  124  244 1    
   246  124  245 1    
   247  125  126 1    
   248  126  246 1    
   249  126  247 1    
@<TRIPOS>SUBSTRUCTURE
     1 UNK         1 GROUP             0       ****    0 ROOT    
