@<TRIPOS>MOLECULE
3R540
247   249    1
SMALL
USER_CHARGES


@<TRIPOS>ATOM
      1 CA         -0.1325  -11.8726  -52.5213 C.3       0 UNK        -0.1800 
      2 C           0.4354  -13.0881  -51.8027 C.2       0 UNK         0.5000 
      3 O           1.1825  -13.8609  -52.4018 O.2       0 UNK        -0.5000 
      4 N           0.0807  -13.2593  -50.5217 N.am      1 UNK        -0.5000 
      5 CA          0.5041  -14.3811  -49.6719 C.3       1 UNK         0.1400 
      6 C6         -0.3170  -14.4499  -48.3575 C.3       23 UNK        -0.0398 
      7 S7         -2.0664  -14.8838  -48.6487 S.3       23 UNK        -0.2404 
      8 C8         -2.1519  -16.6097  -48.0646 C.3       23 UNK        -0.0205 
      9 C9         -1.4917  -17.5873  -49.0240 C.ar      23 UNK        -0.0193 
     10 C10        -2.2528  -18.2670  -49.9782 C.ar      23 UNK        -0.1150 
     11 C11        -1.6571  -19.1884  -50.8458 C.ar      23 UNK        -0.0193 
     12 C12        -0.2773  -19.4219  -50.7485 C.ar      23 UNK        -0.1150 
     13 C13         0.4987  -18.7264  -49.8160 C.ar      23 UNK        -0.0193 
     14 C14        -0.1193  -17.8273  -48.9462 C.ar      23 UNK        -0.1150 
     15 C15         2.0125  -18.8922  -49.7758 C.3       23 UNK        -0.0205 
     16 S16         2.5615  -20.4240  -48.9639 S.3       23 UNK        -0.2404 
     17 C17         1.9007  -20.2508  -47.2678 C.3       23 UNK        -0.0398 
     18 CA          1.2440  -21.5603  -46.7789 C.3       11 UNK         0.1400 
     19 N           1.0336  -21.5728  -45.3299 N.am      11 UNK        -0.5000 
     20 C           0.7520  -22.6823  -44.6321 C.2       10 UNK         0.5000 
     21 O           0.6809  -23.8028  -45.1344 O.2       10 UNK        -0.5000 
     22 CA          0.4618  -22.5170  -43.1322 C.3       10 UNK         0.1400 
     23 CB          1.7721  -22.4233  -42.3368 C.3       10 UNK        -0.1800 
     24 N          -0.3858  -21.3604  -42.8434 N.am      10 UNK        -0.5000 
     25 C          -1.6464  -21.2146  -43.2769 C.2       9 UNK         0.5000 
     26 O          -2.2407  -22.0608  -43.9437 O.2       9 UNK        -0.5000 
     27 CA         -2.3472  -19.8829  -42.9527 C.3       9 UNK         0.1400 
     28 CB         -2.8640  -19.8726  -41.5068 C.3       9 UNK        -0.1800 
     29 N          -1.4877  -18.7205  -43.1754 N.am      9 UNK        -0.5000 
     30 C          -0.9656  -18.3747  -44.3611 C.2       8 UNK         0.5000 
     31 O          -1.1665  -18.9863  -45.4106 O.2       8 UNK        -0.5000 
     32 CA         -0.0096  -17.1715  -44.3585 C.3       8 UNK         0.1400 
     33 CB         -0.7861  -15.8478  -44.2831 C.3       8 UNK        -0.1800 
     34 N           0.9547  -17.2498  -43.2602 N.am      8 UNK        -0.5000 
     35 C           1.9056  -18.1901  -43.1608 C.2       7 UNK         0.5000 
     36 O           2.1182  -19.0429  -44.0239 O.2       7 UNK        -0.5000 
     37 CA          2.7176  -18.2115  -41.8534 C.3       7 UNK         0.1400 
     38 CB          3.8933  -17.2255  -41.9086 C.3       7 UNK        -0.1800 
     39 N           1.8882  -17.9263  -40.6807 N.am      7 UNK        -0.5000 
     40 C           0.9763  -18.7791  -40.1919 C.2       6 UNK         0.5000 
     41 O           0.7526  -19.8849  -40.6792 O.2       6 UNK        -0.5000 
     42 CA          0.1496  -18.3214  -38.9776 C.3       6 UNK         0.1400 
     43 CB          0.8621  -18.6978  -37.6702 C.3       6 UNK        -0.1800 
     44 N          -0.1467  -16.8899  -38.9694 N.am      6 UNK        -0.5000 
     45 C          -0.8489  -16.2378  -39.9053 C.2       5 UNK         0.5000 
     46 O          -1.3104  -16.7809  -40.9116 O.2       5 UNK        -0.5000 
     47 CA         -1.0653  -14.7228  -39.6943 C.3       5 UNK         0.1400 
     48 CB         -0.4403  -14.1696  -38.3929 C.3       5 UNK        -0.1800 
     49 N          -0.6146  -13.9200  -40.8352 N.am      5 UNK        -0.5000 
     50 C           0.5957  -13.9393  -41.4095 C.2       4 UNK         0.5000 
     51 O           1.5043  -14.7153  -41.0980 O.2       4 UNK        -0.5000 
     52 CA          0.8262  -12.8994  -42.5140 C.3       4 UNK         0.1400 
     53 CB          1.0809  -11.5051  -41.9165 C.3       4 UNK        -0.1800 
     54 N           1.9783  -13.2972  -43.3161 N.am      4 UNK        -0.5000 
     55 C           2.0808  -13.1396  -44.6375 C.2       3 UNK         0.5000 
     56 O           1.2143  -12.6001  -45.3340 O.2       3 UNK        -0.5000 
     57 CA          3.3482  -13.7018  -45.2985 C.3       3 UNK         0.1400 
     58 CB          3.3404  -15.2432  -45.2767 C.3       3 UNK        -0.1800 
     59 N           3.3667  -13.2290  -46.6743 N.am      3 UNK        -0.5000 
     60 C           4.3716  -13.2974  -47.5518 C.2       2 UNK         0.5000 
     61 O           5.5063  -13.6833  -47.2649 O.2       2 UNK        -0.5000 
     62 CA          4.0234  -12.8727  -48.9978 C.3       2 UNK         0.1400 
     63 CB          4.9843  -13.4708  -50.0462 C.3       2 UNK        -0.1800 
     64 N           2.6234  -13.1550  -49.3563 N.am      2 UNK        -0.5000 
     65 C           2.0134  -14.3537  -49.3482 C.2       1 UNK         0.5000 
     66 O           2.5802  -15.4106  -49.0730 O.2       1 UNK        -0.5000 
     67 C          -0.0475  -21.9090  -47.5501 C.2       11 UNK         0.5000 
     68 O           0.0067  -22.7241  -48.4704 O.2       11 UNK        -0.5000 
     69 N          -1.1925  -21.3530  -47.1281 N.am      12 UNK        -0.5000 
     70 CA         -2.5072  -21.6779  -47.6857 C.3       12 UNK         0.1400 
     71 CB         -3.5671  -20.7405  -47.0909 C.3       12 UNK        -0.1800 
     72 C          -2.8933  -23.1573  -47.4813 C.2       12 UNK         0.5000 
     73 O          -3.4316  -23.7773  -48.3998 O.2       12 UNK        -0.5000 
     74 N          -2.5716  -23.7107  -46.3032 N.am      13 UNK        -0.5000 
     75 CA         -2.7351  -25.1275  -45.9783 C.3       13 UNK         0.1400 
     76 CB         -2.5163  -25.3477  -44.4742 C.3       13 UNK        -0.1800 
     77 C          -1.8108  -26.0359  -46.8099 C.2       13 UNK         0.5000 
     78 O          -2.2746  -27.0532  -47.3243 O.2       13 UNK        -0.5000 
     79 N          -0.5393  -25.6403  -46.9716 N.am      14 UNK        -0.5000 
     80 CA          0.4515  -26.3275  -47.8082 C.3       14 UNK         0.1400 
     81 CB          1.8379  -25.7044  -47.5887 C.3       14 UNK        -0.1800 
     82 C           0.0830  -26.3239  -49.3048 C.2       14 UNK         0.5000 
     83 O           0.3396  -27.3086  -49.9981 O.2       14 UNK        -0.5000 
     84 N          -0.5627  -25.2419  -49.7593 N.am      15 UNK        -0.5000 
     85 CA         -1.1603  -25.0979  -51.0879 C.3       15 UNK         0.1400 
     86 CB         -1.3754  -23.6020  -51.3736 C.3       15 UNK        -0.1800 
     87 C          -2.4782  -25.8863  -51.2652 C.2       15 UNK         0.5000 
     88 O          -3.0485  -25.8504  -52.3551 O.2       15 UNK        -0.5000 
     89 N          -2.9442  -26.5718  -50.2092 N.am      16 UNK        -0.5000 
     90 CA         -4.1596  -27.3875  -50.1336 C.3       16 UNK         0.1400 
     91 CB         -4.0783  -28.5961  -51.0902 C.3       16 UNK        -0.1800 
     92 C          -5.4485  -26.5588  -50.3001 C.2       16 UNK         0.5000 
     93 O          -6.4042  -27.0252  -50.9233 O.2       16 UNK        -0.5000 
     94 N          -5.4469  -25.3451  -49.7266 N.am      17 UNK        -0.5000 
     95 CA         -6.5293  -24.3572  -49.7433 C.3       17 UNK         0.1400 
     96 CB         -7.7520  -24.8631  -48.9491 C.3       17 UNK        -0.1800 
     97 C          -6.8754  -23.8829  -51.1696 C.2       17 UNK         0.5000 
     98 O          -8.0517  -23.7742  -51.5234 O.2       17 UNK        -0.5000 
     99 N          -5.8298  -23.6143  -51.9646 N.am      18 UNK        -0.5000 
    100 CA        -5.9151  -23.0493  -53.3117 C.3       18 UNK         0.1400 
    101 CB        -4.5071  -22.9998  -53.9218 C.3       18 UNK        -0.1800 
    102 C         -6.5553  -21.6473  -53.3232 C.2       18 UNK         0.5000 
    103 O         -6.4410  -20.9065  -52.3429 O.2       18 UNK        -0.5000 
    104 N         -7.2184  -21.3187  -54.4381 N.am      19 UNK        -0.5000 
    105 CA        -7.9259  -20.0569  -54.6478 C.3       19 UNK         0.1400 
    106 CB        -8.7203  -20.1454  -55.9602 C.3       19 UNK        -0.1800 
    107 C         -6.9822  -18.8411  -54.6753 C.2       19 UNK         0.5000 
    108 O         -5.8671  -18.9390  -55.1974 O.2       19 UNK        -0.5000 
    109 N         -7.4810  -17.7138  -54.1497 N.am      20 UNK        -0.5000 
    110 CA        -6.8155  -16.4120  -54.0589 C.3       20 UNK         0.1400 
    111 CB        -6.6851  -15.7837  -55.4665 C.3       20 UNK        -0.1800 
    112 C         -5.4875  -16.4863  -53.2719 C.2       20 UNK         0.5000 
    113 O         -5.4238  -17.1642  -52.2445 O.2       20 UNK        -0.5000 
    114 N         -4.4615  -15.7844  -53.7575 N.am      21 UNK        -0.5000 
    115 CA        -3.1086  -15.7765  -53.2221 C.3       21 UNK         0.1400 
    116 CB        -2.9825  -14.6647  -52.1673 C.3       21 UNK        -0.1800 
    117 C         -2.1663  -15.5873  -54.4247 C.2       21 UNK         0.5000 
    118 O         -1.7834  -14.4556  -54.7169 O.2       21 UNK        -0.5000 
    119 N         -1.8492  -16.6409  -55.1861 N.am      22 UNK        -0.5000 
    120 CA        -2.2114  -18.0484  -54.9863 C.3       22 UNK         0.1400 
    121 C         -2.3386  -18.7287  -56.3727 C.2       22 UNK         0.5000 
    122 N         -3.5066  -19.2494  -56.7210 N.am      22 UNK        -0.7600 
    123 O         -1.3778  -18.7860  -57.1371 O.2       22 UNK        -0.5000 
    124 C124       -1.1726  -18.7440  -54.0692 C.3       23 UNK        -0.0398 
    125 S125       -1.7206  -20.3628  -53.4335 S.3       23 UNK        -0.2404 
    126 C126       -2.5399  -19.9122  -51.8638 C.3       23 UNK        -0.0205 
    127 H127       -0.7813  -11.2837  -51.8725 H         1 UNK         0.0600 
    128 H128       -0.7154  -12.1885  -53.3865 H         1 UNK         0.0600 
    129 H129        0.6760  -11.2299  -52.8695 H         1 UNK         0.0600 
    130 H130       -0.5554  -12.6022  -50.0925 H         1 UNK         0.3000 
    131 H131        0.3263  -15.3004  -50.2341 H         1 UNK         0.0600 
    132 H132       -0.2870  -13.4883  -47.8419 H         1 UNK         0.0800 
    133 H133        0.1105  -15.1637  -47.6525 H         1 UNK         0.0800 
    134 H134       -1.6922  -16.6966  -47.0818 H         1 UNK         0.0800 
    135 H135       -3.2002  -16.8793  -47.9284 H         1 UNK         0.0800 
    136 H136       -3.3161  -18.0801  -50.0425 H         1 UNK         0.1150 
    137 H137        0.2029  -20.1299  -51.4085 H         1 UNK         0.1150 
    138 H138        0.4785  -17.3039  -48.2151 H         1 UNK         0.1150 
    139 H139        2.3986  -18.8799  -50.7959 H         1 UNK         0.0800 
    140 H140        2.4779  -18.0454  -49.2702 H         1 UNK         0.0800 
    141 H141        1.2023  -19.4186  -47.1903 H         1 UNK         0.0800 
    142 H142        2.7401  -19.9941  -46.6202 H         1 UNK         0.0800 
    143 H143        1.9553  -22.3634  -46.9845 H         1 UNK         0.0600 
    144 H144        1.1062  -20.6849  -44.8450 H         1 UNK         0.3000 
    145 H145       -0.0718  -23.4094  -42.7989 H         1 UNK         0.0600 
    146 H146        1.5817  -22.4234  -41.2636 H         1 UNK         0.0600 
    147 H147        2.4213  -23.2735  -42.5500 H         1 UNK         0.0600 
    148 H148        2.3266  -21.5165  -42.5796 H         1 UNK         0.0600 
    149 H149        0.0164  -20.6466  -42.2417 H         1 UNK         0.3000 
    150 H150       -3.2059  -19.7894  -43.6207 H         1 UNK         0.0600 
    151 H151       -3.5509  -20.7017  -41.3327 H         1 UNK         0.0600 
    152 H152       -3.4026  -18.9506  -41.2864 H         1 UNK         0.0600 
    153 H153       -2.0504  -19.9644  -40.7877 H         1 UNK         0.0600 
    154 H154       -1.2908  -18.1366  -42.3679 H         1 UNK         0.3000 
    155 H155        0.5409  -17.1887  -45.3016 H         1 UNK         0.0600 
    156 H156       -1.2363  -15.6937  -43.3033 H         1 UNK         0.0600 
    157 H157       -1.5946  -15.8136  -45.0122 H         1 UNK         0.0600 
    158 H158       -0.1345  -15.0026  -44.4921 H         1 UNK         0.0600 
    159 H159        0.8237  -16.6169  -42.4829 H         1 UNK         0.3000 
    160 H160        3.1321  -19.2159  -41.7428 H         1 UNK         0.0600 
    161 H161        3.5544  -16.1909  -41.9526 H         1 UNK         0.0600 
    162 H162        4.5160  -17.4076  -42.7855 H         1 UNK         0.0600 
    163 H163        4.5315  -17.3284  -41.0310 H         1 UNK         0.0600 
    164 H164        1.9783  -17.0091  -40.2643 H         1 UNK         0.3000 
    165 H165       -0.8029  -18.8536  -39.0095 H         1 UNK         0.0600 
    166 H166        0.2450  -18.4643  -36.8024 H         1 UNK         0.0600 
    167 H167        1.0763  -19.7670  -37.6364 H         1 UNK         0.0600 
    168 H168        1.8101  -18.1694  -37.5615 H         1 UNK         0.0600 
    169 H169        0.2101  -16.3614  -38.1868 H         1 UNK         0.3000 
    170 H170       -2.1451  -14.5836  -39.6261 H         1 UNK         0.0600 
    171 H171       -0.8354  -14.6783  -37.5127 H         1 UNK         0.0600 
    172 H172        0.6458  -14.2710  -38.3840 H         1 UNK         0.0600 
    173 H173       -0.6696  -13.1105  -38.2736 H         1 UNK         0.0600 
    174 H174       -1.2999  -13.2701  -41.1939 H         1 UNK         0.3000 
    175 H175       -0.0719  -12.8677  -43.1346 H         1 UNK         0.0600 
    176 H176        1.9646  -11.4983  -41.2771 H         1 UNK         0.0600 
    177 H177        1.2300  -10.7626  -42.7007 H         1 UNK         0.0600 
    178 H178        0.2354  -11.1728  -41.3131 H         1 UNK         0.0600 
    179 H179        2.6860  -13.8084  -42.8046 H         1 UNK         0.3000 
    180 H180        4.2230  -13.3185  -44.7698 H         1 UNK         0.0600 
    181 H181        2.4918  -15.6472  -45.8301 H         1 UNK         0.0600 
    182 H182        3.2790  -15.6228  -44.2586 H         1 UNK         0.0600 
    183 H183        4.2488  -15.6546  -45.7164 H         1 UNK         0.0600 
    184 H184        2.4789  -12.8410  -46.9689 H         1 UNK         0.3000 
    185 H185        4.1358  -11.7881  -49.0292 H         1 UNK         0.0600 
    186 H186        6.0100  -13.1462  -49.8678 H         1 UNK         0.0600 
    187 H187        4.9783  -14.5609  -50.0257 H         1 UNK         0.0600 
    188 H188        4.7148  -13.1533  -51.0536 H         1 UNK         0.0600 
    189 H189        2.0643  -12.3504  -49.6029 H         1 UNK         0.3000 
    190 H190       -1.1675  -20.6587  -46.3861 H         1 UNK         0.3000 
    191 H191       -2.4619  -21.4944  -48.7612 H         1 UNK         0.0600 
    192 H192       -3.6440  -20.8538  -46.0093 H         1 UNK         0.0600 
    193 H193       -4.5507  -20.9436  -47.5159 H         1 UNK         0.0600 
    194 H194       -3.3297  -19.6973  -47.3011 H         1 UNK         0.0600 
    195 H195       -2.1919  -23.1162  -45.5717 H         1 UNK         0.3000 
    196 H196       -3.7657  -25.4041  -46.2107 H         1 UNK         0.0600 
    197 H197       -2.6598  -26.3956  -44.2081 H         1 UNK         0.0600 
    198 H198       -3.2220  -24.7624  -43.8845 H         1 UNK         0.0600 
    199 H199       -1.5099  -25.0654  -44.1658 H         1 UNK         0.0600 
    200 H200       -0.2140  -24.8183  -46.4690 H         1 UNK         0.3000 
    201 H201        0.4932  -27.3688  -47.4824 H         1 UNK         0.0600 
    202 H202        2.1360  -25.7631  -46.5418 H         1 UNK         0.0600 
    203 H203        1.8592  -24.6559  -47.8853 H         1 UNK         0.0600 
    204 H204        2.5971  -26.2258  -48.1728 H         1 UNK         0.0600 
    205 H205       -0.6483  -24.4399  -49.1407 H         1 UNK         0.3000 
    206 H206       -0.4533  -25.4840  -51.8247 H         1 UNK         0.0600 
    207 H207       -0.4454  -23.0412  -51.2771 H         1 UNK         0.0600 
    208 H208       -1.7411  -23.4443  -52.3885 H         1 UNK         0.0600 
    209 H209       -2.1011  -23.1618  -50.6902 H         1 UNK         0.0600 
    210 H210       -2.4167  -26.5247  -49.3455 H         1 UNK         0.3000 
    211 H211       -4.1930  -27.7837  -49.1181 H         1 UNK         0.0600 
    212 H212       -4.1160  -28.2913  -52.1362 H         1 UNK         0.0600 
    213 H213       -4.9081  -29.2833  -50.9214 H         1 UNK         0.0600 
    214 H214       -3.1570  -29.1581  -50.9368 H         1 UNK         0.0600 
    215 H215       -4.5984  -25.0307  -49.2613 H         1 UNK         0.3000 
    216 H216       -6.1450  -23.4796  -49.2213 H         1 UNK         0.0600 
    217 H217       -8.5037  -24.0791  -48.8505 H         1 UNK         0.0600 
    218 H218       -7.4682  -25.1674  -47.9416 H         1 UNK         0.0600 
    219 H219       -8.2304  -25.7138  -49.4349 H         1 UNK         0.0600 
    220 H220       -4.9014  -23.7575  -51.5966 H         1 UNK         0.3000 
    221 H221       -6.5339  -23.7177  -53.9139 H         1 UNK         0.0600 
    222 H222       -3.8273  -22.4192  -53.2995 H         1 UNK         0.0600 
    223 H223       -4.0890  -23.9998  -54.0337 H         1 UNK         0.0600 
    224 H224       -4.5183  -22.5410  -54.9115 H         1 UNK         0.0600 
    225 H225       -7.2306  -21.9688  -55.2100 H         1 UNK         0.3000 
    226 H226       -8.6321  -19.9338  -53.8237 H         1 UNK         0.0600 
    227 H227       -9.4352  -20.9681  -55.9359 H         1 UNK         0.0600 
    228 H228       -9.2866  -19.2300  -56.1374 H         1 UNK         0.0600 
    229 H229       -8.0632  -20.2949  -56.8181 H         1 UNK         0.0600 
    230 H230       -8.3970  -17.7538  -53.7255 H         1 UNK         0.3000 
    231 H231       -7.4760  -15.7720  -53.4723 H         1 UNK         0.0600 
    232 H232       -6.3536  -14.7462  -55.4114 H         1 UNK         0.0600 
    233 H233       -7.6463  -15.7791  -55.9807 H         1 UNK         0.0600 
    234 H234       -5.9797  -16.3295  -56.0946 H         1 UNK         0.0600 
    235 H235       -4.5901  -15.2657  -54.6156 H         1 UNK         0.3000 
    236 H236       -2.8825  -16.7228  -52.7284 H         1 UNK         0.0600 
    237 H237       -3.1629  -13.6738  -52.5854 H         1 UNK         0.0600 
    238 H238       -3.6878  -14.8160  -51.3501 H         1 UNK         0.0600 
    239 H239       -1.9846  -14.6712  -51.7338 H         1 UNK         0.0600 
    240 H240       -1.2923  -16.4846  -56.0148 H         1 UNK         0.3000 
    241 H241       -3.1900  -18.1082  -54.5089 H         1 UNK         0.0600 
    242 H242       -3.5959  -19.6950  -57.6199 H         1 UNK         0.3800 
    243 H243       -4.3263  -19.1783  -56.1179 H         1 UNK         0.3800 
    244 H244       -0.2287  -18.8863  -54.5982 H         1 UNK         0.0800 
    245 H245       -0.9280  -18.1027  -53.2229 H         1 UNK         0.0800 
    246 H246       -2.9214  -20.8221  -51.3997 H         1 UNK         0.0800 
    247 H247       -3.4140  -19.3035  -52.1031 H         1 UNK         0.0800 
@<TRIPOS>BOND
     1    1    2 1    
     2    1  127 1    
     3    1  128 1    
     4    1  129 1    
     5    2    3 2    
     6    2    4 am   BACKBONE|DICT|INTERRES
     7    4    5 1    
     8    4  130 1    
     9    5    6 1    
    10    5   65 1    
    11    5  131 1    
    12    6    7 1    
    13    6  132 1    
    14    6  133 1    
    15    7    8 1    
    16    8    9 1    
    17    8  134 1    
    18    8  135 1    
    19    9   10 ar   
    20    9   14 ar   
    21   10   11 ar   
    22   10  136 1    
    23   11   12 ar   
    24   11  126 1    
    25   12   13 ar   
    26   12  137 1    
    27   13   14 ar   
    28   13   15 1    
    29   14  138 1    
    30   15   16 1    
    31   15  139 1    
    32   15  140 1    
    33   16   17 1    
    34   17   18 1    
    35   17  141 1    
    36   17  142 1    
    37   18   19 1    
    38   18   67 1    
    39   18  143 1    
    40   19   20 am   BACKBONE|DICT|INTERRES
    41   19  144 1    
    42   20   21 2    
    43   20   22 1    
    44   22   23 1    
    45   22   24 1    
    46   22  145 1    
    47   23  146 1    
    48   23  147 1    
    49   23  148 1    
    50   24   25 am   BACKBONE|DICT|INTERRES
    51   24  149 1    
    52   25   26 2    
    53   25   27 1    
    54   27   28 1    
    55   27   29 1    
    56   27  150 1    
    57   28  151 1    
    58   28  152 1    
    59   28  153 1    
    60   29   30 am   BACKBONE|DICT|INTERRES
    61   29  154 1    
    62   30   31 2    
    63   30   32 1    
    64   32   33 1    
    65   32   34 1    
    66   32  155 1    
    67   33  156 1    
    68   33  157 1    
    69   33  158 1    
    70   34   35 am   BACKBONE|DICT|INTERRES
    71   34  159 1    
    72   35   36 2    
    73   35   37 1    
    74   37   38 1    
    75   37   39 1    
    76   37  160 1    
    77   38  161 1    
    78   38  162 1    
    79   38  163 1    
    80   39   40 am   BACKBONE|DICT|INTERRES
    81   39  164 1    
    82   40   41 2    
    83   40   42 1    
    84   42   43 1    
    85   42   44 1    
    86   42  165 1    
    87   43  166 1    
    88   43  167 1    
    89   43  168 1    
    90   44   45 am   BACKBONE|DICT|INTERRES
    91   44  169 1    
    92   45   46 2    
    93   45   47 1    
    94   47   48 1    
    95   47   49 1    
    96   47  170 1    
    97   48  171 1    
    98   48  172 1    
    99   48  173 1    
   100   49   50 am   BACKBONE|DICT|INTERRES
   101   49  174 1    
   102   50   51 2    
   103   50   52 1    
   104   52   53 1    
   105   52   54 1    
   106   52  175 1    
   107   53  176 1    
   108   53  177 1    
   109   53  178 1    
   110   54   55 am   BACKBONE|DICT|INTERRES
   111   54  179 1    
   112   55   56 2    
   113   55   57 1    
   114   57   58 1    
   115   57   59 1    
   116   57  180 1    
   117   58  181 1    
   118   58  182 1    
   119   58  183 1    
   120   59   60 am   BACKBONE|DICT|INTERRES
   121   59  184 1    
   122   60   61 2    
   123   60   62 1    
   124   62   63 1    
   125   62   64 1    
   126   62  185 1    
   127   63  186 1    
   128   63  187 1    
   129   63  188 1    
   130   64   65 am   BACKBONE|DICT|INTERRES
   131   64  189 1    
   132   65   66 2    
   133   67   68 2    
   134   67   69 am   BACKBONE|DICT|INTERRES
   135   69   70 1    
   136   69  190 1    
   137   70   71 1    
   138   70   72 1    
   139   70  191 1    
   140   71  192 1    
   141   71  193 1    
   142   71  194 1    
   143   72   73 2    
   144   72   74 am   BACKBONE|DICT|INTERRES
   145   74   75 1    
   146   74  195 1    
   147   75   76 1    
   148   75   77 1    
   149   75  196 1    
   150   76  197 1    
   151   76  198 1    
   152   76  199 1    
   153   77   78 2    
   154   77   79 am   BACKBONE|DICT|INTERRES
   155   79   80 1    
   156   79  200 1    
   157   80   81 1    
   158   80   82 1    
   159   80  201 1    
   160   81  202 1    
   161   81  203 1    
   162   81  204 1    
   163   82   83 2    
   164   82   84 am   BACKBONE|DICT|INTERRES
   165   84   85 1    
   166   84  205 1    
   167   85   86 1    
   168   85   87 1    
   169   85  206 1    
   170   86  207 1    
   171   86  208 1    
   172   86  209 1    
   173   87   88 2    
   174   87   89 am   BACKBONE|DICT|INTERRES
   175   89   90 1    
   176   89  210 1    
   177   90   91 1    
   178   90   92 1    
   179   90  211 1    
   180   91  212 1    
   181   91  213 1    
   182   91  214 1    
   183   92   93 2    
   184   92   94 am   BACKBONE|DICT|INTERRES
   185   94   95 1    
   186   94  215 1    
   187   95   96 1    
   188   95   97 1    
   189   95  216 1    
   190   96  217 1    
   191   96  218 1    
   192   96  219 1    
   193   97   98 2    
   194   97   99 am   BACKBONE|DICT|INTERRES
   195   99  100 1    
   196   99  220 1    
   197  100  101 1    
   198  100  102 1    
   199  100  221 1    
   200  101  222 1    
   201  101  223 1    
   202  101  224 1    
   203  102  103 2    
   204  102  104 am   BACKBONE|DICT|INTERRES
   205  104  105 1    
   206  104  225 1    
   207  105  106 1    
   208  105  107 1    
   209  105  226 1    
   210  106  227 1    
   211  106  228 1    
   212  106  229 1    
   213  107  108 2    
   214  107  109 am   BACKBONE|DICT|INTERRES
   215  109  110 1    
   216  109  230 1    
   217  110  111 1    
   218  110  112 1    
   219  110  231 1    
   220  111  232 1    
   221  111  233 1    
   222  111  234 1    
   223  112  113 2    
   224  112  114 am   BACKBONE|DICT|INTERRES
   225  114  115 1    
   226  114  235 1    
   227  115  116 1    
   228  115  117 1    
   229  115  236 1    
   230  116  237 1    
   231  116  238 1    
   232  116  239 1    
   233  117  118 2    
   234  117  119 am   BACKBONE|DICT|INTERRES
   235  119  120 1    
   236  119  240 1    
   237  120  121 1    
   238  120  124 1    
   239  120  241 1    
   240  121  122 am   BACKBONE|DICT|INTERRES
   241  121  123 2    
   242  122  242 1    
   243  122  243 1    
   244  124  125 1    
   245  124  244 1    
   246  124  245 1    
   247  125  126 1    
   248  126  246 1    
   249  126  247 1    
@<TRIPOS>SUBSTRUCTURE
     1 UNK         1 GROUP             0       ****    0 ROOT    
