@<TRIPOS>MOLECULE
3R540
247   249    1
SMALL
USER_CHARGES


@<TRIPOS>ATOM
      1 CA          0.1119  -10.4601  -52.5002 C.3       0 UNK        -0.1800 
      2 C           0.4299  -10.9960  -51.1113 C.2       0 UNK         0.5000 
      3 O           0.8303  -10.2293  -50.2348 O.2       0 UNK        -0.5000 
      4 N           0.2626  -12.3082  -50.9114 N.am      1 UNK        -0.5000 
      5 CA          0.4376  -12.9973  -49.6304 C.3       1 UNK         0.1400 
      6 C6          0.5516  -14.5356  -49.8102 C.3       23 UNK        -0.0398 
      7 S7         -0.7971  -15.2861  -50.7934 S.3       23 UNK        -0.2404 
      8 C8         -0.6119  -17.0496  -50.3719 C.3       23 UNK        -0.0205 
      9 C9          0.6806  -17.6862  -50.8737 C.ar      23 UNK        -0.0193 
     10 C10         1.1956  -17.3954  -52.1420 C.ar      23 UNK        -0.1150 
     11 C11         2.3738  -18.0000  -52.5860 C.ar      23 UNK        -0.0193 
     12 C12         3.0172  -18.9310  -51.7656 C.ar      23 UNK        -0.1150 
     13 C13         2.5134  -19.2490  -50.5001 C.ar      23 UNK        -0.0193 
     14 C14         1.3459  -18.6090  -50.0618 C.ar      23 UNK        -0.1150 
     15 C15         3.2621  -20.2950  -49.6662 C.3       23 UNK        -0.0205 
     16 S16         2.8546  -20.3604  -47.8848 S.3       23 UNK        -0.2404 
     17 C17         1.2575  -21.2430  -47.8933 C.3       23 UNK        -0.0398 
     18 CA          1.3310  -22.6636  -47.2846 C.3       11 UNK         0.1400 
     19 N           1.7667  -22.6360  -45.8884 N.am      11 UNK        -0.5000 
     20 C           2.1671  -23.7005  -45.1829 C.2       10 UNK         0.5000 
     21 O           2.3092  -24.8247  -45.6691 O.2       10 UNK        -0.5000 
     22 CA          2.4448  -23.4562  -43.6848 C.3       10 UNK         0.1400 
     23 CB          3.1954  -24.6183  -43.0013 C.3       10 UNK        -0.1800 
     24 N           3.1125  -22.1763  -43.4330 N.am      10 UNK        -0.5000 
     25 C           4.3280  -21.7864  -43.8455 C.2       9 UNK         0.5000 
     26 O           5.1006  -22.5052  -44.4809 O.2       9 UNK        -0.5000 
     27 CA          4.7639  -20.3470  -43.4968 C.3       9 UNK         0.1400 
     28 CB          4.8389  -19.4848  -44.7662 C.3       9 UNK        -0.1800 
     29 N           3.8838  -19.6821  -42.5335 N.am      9 UNK        -0.5000 
     30 C           3.8439  -19.9335  -41.2186 C.2       8 UNK         0.5000 
     31 O           4.6022  -20.7189  -40.6489 O.2       8 UNK        -0.5000 
     32 CA          2.7438  -19.2151  -40.4127 C.3       8 UNK         0.1400 
     33 CB          3.2083  -17.8149  -39.9848 C.3       8 UNK        -0.1800 
     34 N           1.4742  -19.1122  -41.1394 N.am      8 UNK        -0.5000 
     35 C           0.7178  -20.1601  -41.4994 C.2       7 UNK         0.5000 
     36 O           1.0003  -21.3283  -41.2339 O.2       7 UNK        -0.5000 
     37 CA         -0.5396  -19.8654  -42.3368 C.3       7 UNK         0.1400 
     38 CB         -1.6963  -19.3889  -41.4464 C.3       7 UNK        -0.1800 
     39 N          -0.2926  -18.8885  -43.3966 N.am      7 UNK        -0.5000 
     40 C           0.5185  -19.0989  -44.4430 C.2       6 UNK         0.5000 
     41 O           1.0971  -20.1642  -44.6522 O.2       6 UNK        -0.5000 
     42 CA          0.7619  -17.9087  -45.3883 C.3       6 UNK         0.1400 
     43 CB         -0.3945  -17.7454  -46.3835 C.3       6 UNK        -0.1800 
     44 N           0.9506  -16.6513  -44.6690 N.am      6 UNK        -0.5000 
     45 C           1.9496  -16.3981  -43.8133 C.2       5 UNK         0.5000 
     46 O           2.8519  -17.1926  -43.5557 O.2       5 UNK        -0.5000 
     47 CA          1.8991  -15.0469  -43.0835 C.3       5 UNK         0.1400 
     48 CB          2.4215  -13.9174  -43.9841 C.3       5 UNK        -0.1800 
     49 N           0.5473  -14.7306  -42.6224 N.am      5 UNK        -0.5000 
     50 C          -0.0942  -15.3977  -41.6522 C.2       4 UNK         0.5000 
     51 O           0.3986  -16.3335  -41.0223 O.2       4 UNK        -0.5000 
     52 CA         -1.5455  -14.9712  -41.3688 C.3       4 UNK         0.1400 
     53 CB         -1.5811  -13.7365  -40.4559 C.3       4 UNK        -0.1800 
     54 N          -2.2968  -14.6933  -42.5940 N.am      4 UNK        -0.5000 
     55 C          -2.6283  -15.6222  -43.5016 C.2       3 UNK         0.5000 
     56 O          -2.3513  -16.8158  -43.3917 O.2       3 UNK        -0.5000 
     57 CA         -3.3495  -15.1249  -44.7676 C.3       3 UNK         0.1400 
     58 CB         -4.8600  -15.0034  -44.5178 C.3       3 UNK        -0.1800 
     59 N          -2.8329  -13.8490  -45.2735 N.am      3 UNK        -0.5000 
     60 C          -1.5759  -13.6570  -45.6923 C.2       2 UNK         0.5000 
     61 O          -0.6939  -14.5163  -45.6267 O.2       2 UNK        -0.5000 
     62 CA         -1.2281  -12.2679  -46.2457 C.3       2 UNK         0.1400 
     63 CB         -0.5741  -11.4040  -45.1563 C.3       2 UNK        -0.1800 
     64 N          -0.2980  -12.4222  -47.3623 N.am      2 UNK        -0.5000 
     65 C          -0.6768  -12.6145  -48.6312 C.2       1 UNK         0.5000 
     66 O          -1.8454  -12.5197  -49.0163 O.2       1 UNK        -0.5000 
     67 C          -0.0489  -23.3431  -47.4087 C.2       11 UNK         0.5000 
     68 O          -0.8372  -23.3313  -46.4584 O.2       11 UNK        -0.5000 
     69 N          -0.3472  -23.8567  -48.6112 N.am      12 UNK        -0.5000 
     70 CA         -1.6136  -24.5123  -48.9594 C.3       12 UNK         0.1400 
     71 CB         -1.5194  -25.0619  -50.3909 C.3       12 UNK        -0.1800 
     72 C          -2.8601  -23.6166  -48.8150 C.2       12 UNK         0.5000 
     73 O          -3.9587  -24.1440  -48.6445 O.2       12 UNK        -0.5000 
     74 N          -2.6712  -22.2878  -48.8448 N.am      13 UNK        -0.5000 
     75 CA         -3.7030  -21.2588  -48.6734 C.3       13 UNK         0.1400 
     76 CB         -3.0450  -19.8704  -48.7150 C.3       13 UNK        -0.1800 
     77 C          -4.5349  -21.3957  -47.3852 C.2       13 UNK         0.5000 
     78 O          -5.7141  -21.0431  -47.3881 O.2       13 UNK        -0.5000 
     79 N          -3.9224  -21.9446  -46.3263 N.am      14 UNK        -0.5000 
     80 CA         -4.5671  -22.2361  -45.0455 C.3       14 UNK         0.1400 
     81 CB         -3.4910  -22.6751  -44.0409 C.3       14 UNK        -0.1800 
     82 C          -5.6898  -23.2916  -45.1402 C.2       14 UNK         0.5000 
     83 O          -6.5935  -23.2793  -44.3035 O.2       14 UNK        -0.5000 
     84 N          -5.6213  -24.1691  -46.1509 N.am      15 UNK        -0.5000 
     85 CA         -6.6342  -25.1791  -46.4526 C.3       15 UNK         0.1400 
     86 CB         -5.9418  -26.5380  -46.6440 C.3       15 UNK        -0.1800 
     87 C          -7.4377  -24.8072  -47.7106 C.2       15 UNK         0.5000 
     88 O          -8.6531  -25.0039  -47.7328 O.2       15 UNK        -0.5000 
     89 N          -6.7495  -24.2933  -48.7395 N.am      16 UNK        -0.5000 
     90 CA         -7.3111  -24.0036  -50.0589 C.3       16 UNK         0.1400 
     91 CB         -6.1598  -23.8666  -51.0696 C.3       16 UNK        -0.1800 
     92 C          -8.2033  -22.7511  -50.1105 C.2       16 UNK         0.5000 
     93 O          -9.0088  -22.6396  -51.0348 O.2       16 UNK        -0.5000 
     94 N          -8.0126  -21.8096  -49.1736 N.am      17 UNK        -0.5000 
     95 CA         -8.6429  -20.4829  -49.0571 C.3       17 UNK         0.1400 
     96 CB        -10.1768  -20.5838  -48.9523 C.3       17 UNK        -0.1800 
     97 C          -8.2149  -19.4744  -50.1466 C.2       17 UNK         0.5000 
     98 O          -8.0958  -18.2836  -49.8538 O.2       17 UNK        -0.5000 
     99 N          -7.9546  -19.9625  -51.3656 N.am      18 UNK        -0.5000 
    100 CA        -7.2565  -19.2670  -52.4464 C.3       18 UNK         0.1400 
    101 CB        -7.4059  -20.1033  -53.7281 C.3       18 UNK        -0.1800 
    102 C         -5.7663  -19.0503  -52.1093 C.2       18 UNK         0.5000 
    103 O         -5.2673  -19.6054  -51.1283 O.2       18 UNK        -0.5000 
    104 N         -5.0638  -18.2697  -52.9401 N.am      19 UNK        -0.5000 
    105 CA        -3.6551  -17.8889  -52.7754 C.3       19 UNK         0.1400 
    106 CB        -3.3690  -16.6613  -53.6596 C.3       19 UNK        -0.1800 
    107 C         -2.6458  -19.0383  -53.0219 C.2       19 UNK         0.5000 
    108 O         -1.7015  -18.8741  -53.7938 O.2       19 UNK        -0.5000 
    109 N         -2.8557  -20.1803  -52.3542 N.am      20 UNK        -0.5000 
    110 CA        -2.0673  -21.4135  -52.4188 C.3       20 UNK         0.1400 
    111 CB        -0.6932  -21.2026  -51.7363 C.3       20 UNK        -0.1800 
    112 C         -1.9717  -21.9551  -53.8628 C.2       20 UNK         0.5000 
    113 O         -2.9645  -21.9225  -54.5934 O.2       20 UNK        -0.5000 
    114 N         -0.7809  -22.4194  -54.2608 N.am      21 UNK        -0.5000 
    115 CA        -0.4566  -22.8117  -55.6337 C.3       21 UNK         0.1400 
    116 CB         0.7930  -23.7060  -55.6039 C.3       21 UNK        -0.1800 
    117 C         -0.2341  -21.6026  -56.5683 C.2       21 UNK         0.5000 
    118 O         -0.2033  -21.7815  -57.7866 O.2       21 UNK        -0.5000 
    119 N         -0.0690  -20.4056  -55.9909 N.am      22 UNK        -0.5000 
    120 CA         0.1690  -19.1405  -56.7012 C.3       22 UNK         0.1400 
    121 C         -1.1151  -18.4878  -57.2931 C.2       22 UNK         0.5000 
    122 N         -2.3138  -18.9693  -56.9862 N.am      22 UNK        -0.7600 
    123 O         -1.0197  -17.5364  -58.0638 O.2       22 UNK        -0.5000 
    124 C124        0.9519  -18.1334  -55.8193 C.3       23 UNK        -0.0398 
    125 S125        2.5542  -18.7976  -55.2487 S.3       23 UNK        -0.2404 
    126 C126        2.9818  -17.6202  -53.9293 C.3       23 UNK        -0.0205 
    127 H127       -0.2208  -11.2507  -53.1733 H         1 UNK         0.0600 
    128 H128        0.9962   -9.9936  -52.9344 H         1 UNK         0.0600 
    129 H129       -0.6768   -9.7100  -52.4411 H         1 UNK         0.0600 
    130 H130       -0.1056  -12.8839  -51.6553 H         1 UNK         0.3000 
    131 H131        1.3858  -12.6540  -49.2105 H         1 UNK         0.0600 
    132 H132        0.6081  -15.0305  -48.8386 H         1 UNK         0.0800 
    133 H133        1.4917  -14.7688  -50.3122 H         1 UNK         0.0800 
    134 H134       -1.4448  -17.6030  -50.7974 H         1 UNK         0.0800 
    135 H135       -0.7033  -17.1574  -49.2919 H         1 UNK         0.0800 
    136 H136        0.6857  -16.6885  -52.7805 H         1 UNK         0.1150 
    137 H137        3.9230  -19.4068  -52.1152 H         1 UNK         0.1150 
    138 H138        0.9351  -18.8267  -49.0891 H         1 UNK         0.1150 
    139 H139        3.1034  -21.2802  -50.1067 H         1 UNK         0.0800 
    140 H140        4.3322  -20.0970  -49.7431 H         1 UNK         0.0800 
    141 H141        0.8908  -21.2860  -48.9197 H         1 UNK         0.0800 
    142 H142        0.5388  -20.6382  -47.3409 H         1 UNK         0.0800 
    143 H143        2.0545  -23.2506  -47.8544 H         1 UNK         0.0600 
    144 H144        1.6421  -21.7490  -45.4042 H         1 UNK         0.3000 
    145 H145        1.4654  -23.3788  -43.2106 H         1 UNK         0.0600 
    146 H146        3.3603  -24.4116  -41.9438 H         1 UNK         0.0600 
    147 H147        2.6215  -25.5434  -43.0646 H         1 UNK         0.0600 
    148 H148        4.1653  -24.8045  -43.4629 H         1 UNK         0.0600 
    149 H149        2.5547  -21.4963  -42.9331 H         1 UNK         0.3000 
    150 H150        5.7656  -20.4071  -43.0666 H         1 UNK         0.0600 
    151 H151        5.4827  -19.9409  -45.5192 H         1 UNK         0.0600 
    152 H152        5.2427  -18.4961  -44.5480 H         1 UNK         0.0600 
    153 H153        3.8536  -19.3508  -45.2131 H         1 UNK         0.0600 
    154 H154        3.2746  -18.9595  -42.9082 H         1 UNK         0.3000 
    155 H155        2.5622  -19.8009  -39.5092 H         1 UNK         0.0600 
    156 H156        4.1420  -17.8670  -39.4237 H         1 UNK         0.0600 
    157 H157        2.4698  -17.3340  -39.3432 H         1 UNK         0.0600 
    158 H158        3.3771  -17.1660  -40.8445 H         1 UNK         0.0600 
    159 H159        1.1530  -18.1747  -41.3601 H         1 UNK         0.3000 
    160 H160       -0.8435  -20.8006  -42.8112 H         1 UNK         0.0600 
    161 H161       -1.4756  -18.4294  -40.9777 H         1 UNK         0.0600 
    162 H162       -1.8988  -20.1064  -40.6504 H         1 UNK         0.0600 
    163 H163       -2.6144  -19.2758  -42.0231 H         1 UNK         0.0600 
    164 H164       -0.7865  -18.0039  -43.3248 H         1 UNK         0.3000 
    165 H165        1.6749  -18.1086  -45.9528 H         1 UNK         0.0600 
    166 H166       -0.2263  -16.8896  -47.0364 H         1 UNK         0.0600 
    167 H167       -0.4942  -18.6244  -47.0164 H         1 UNK         0.0600 
    168 H168       -1.3474  -17.5936  -45.8763 H         1 UNK         0.0600 
    169 H169        0.2724  -15.9168  -44.8569 H         1 UNK         0.3000 
    170 H170        2.5497  -15.1123  -42.2088 H         1 UNK         0.0600 
    171 H171        3.4516  -14.1096  -44.2869 H         1 UNK         0.0600 
    172 H172        1.8290  -13.8162  -44.8935 H         1 UNK         0.0600 
    173 H173        2.4093  -12.9593  -43.4643 H         1 UNK         0.0600 
    174 H174        0.0504  -14.0118  -43.1258 H         1 UNK         0.3000 
    175 H175       -2.0381  -15.7950  -40.8475 H         1 UNK         0.0600 
    176 H176       -1.0390  -13.9226  -39.5277 H         1 UNK         0.0600 
    177 H177       -1.1271  -12.8670  -40.9328 H         1 UNK         0.0600 
    178 H178       -2.6046  -13.4755  -40.1862 H         1 UNK         0.0600 
    179 H179       -2.5609  -13.7344  -42.7649 H         1 UNK         0.3000 
    180 H180       -3.1950  -15.8746  -45.5464 H         1 UNK         0.0600 
    181 H181       -5.2728  -15.9465  -44.1566 H         1 UNK         0.0600 
    182 H182       -5.0864  -14.2393  -43.7732 H         1 UNK         0.0600 
    183 H183       -5.3922  -14.7480  -45.4343 H         1 UNK         0.0600 
    184 H184       -3.4974  -13.0920  -45.3476 H         1 UNK         0.3000 
    185 H185       -2.1409  -11.7711  -46.5814 H         1 UNK         0.0600 
    186 H186       -1.2477  -11.2658  -44.3098 H         1 UNK         0.0600 
    187 H187        0.3435  -11.8528  -44.7758 H         1 UNK         0.0600 
    188 H188       -0.3266  -10.4134  -45.5382 H         1 UNK         0.0600 
    189 H189        0.6710  -12.5547  -47.1121 H         1 UNK         0.3000 
    190 H190        0.3540  -23.8391  -49.3377 H         1 UNK         0.3000 
    191 H191       -1.7466  -25.3550  -48.2779 H         1 UNK         0.0600 
    192 H192       -1.3487  -24.2696  -51.1196 H         1 UNK         0.0600 
    193 H193       -2.4399  -25.5744  -50.6746 H         1 UNK         0.0600 
    194 H194       -0.7079  -25.7838  -50.4837 H         1 UNK         0.0600 
    195 H195       -1.7284  -21.9564  -48.9681 H         1 UNK         0.3000 
    196 H196       -4.3920  -21.3519  -49.5122 H         1 UNK         0.0600 
    197 H197       -3.7926  -19.0825  -48.6118 H         1 UNK         0.0600 
    198 H198       -2.5298  -19.6941  -49.6564 H         1 UNK         0.0600 
    199 H199       -2.3249  -19.7473  -47.9069 H         1 UNK         0.0600 
    200 H200       -2.9562  -22.2317  -46.4194 H         1 UNK         0.3000 
    201 H201       -5.0184  -21.3109  -44.6812 H         1 UNK         0.0600 
    202 H202       -3.9263  -22.8729  -43.0605 H         1 UNK         0.0600 
    203 H203       -2.9843  -23.5844  -44.3673 H         1 UNK         0.0600 
    204 H204       -2.7359  -21.9001  -43.9109 H         1 UNK         0.0600 
    205 H205       -4.8565  -24.0901  -46.8110 H         1 UNK         0.3000 
    206 H206       -7.3402  -25.2761  -45.6252 H         1 UNK         0.0600 
    207 H207       -5.4167  -26.8414  -45.7382 H         1 UNK         0.0600 
    208 H208       -6.6683  -27.3179  -46.8756 H         1 UNK         0.0600 
    209 H209       -5.2158  -26.5116  -47.4579 H         1 UNK         0.0600 
    210 H210       -5.7392  -24.2020  -48.6580 H         1 UNK         0.3000 
    211 H211       -7.9258  -24.8544  -50.3603 H         1 UNK         0.0600 
    212 H212       -6.5408  -23.7139  -52.0802 H         1 UNK         0.0600 
    213 H213       -5.5412  -24.7641  -51.0886 H         1 UNK         0.0600 
    214 H214       -5.5144  -23.0203  -50.8332 H         1 UNK         0.0600 
    215 H215       -7.2753  -21.9708  -48.4966 H         1 UNK         0.3000 
    216 H216       -8.2811  -20.0788  -48.1104 H         1 UNK         0.0600 
    217 H217      -10.6124  -19.6110  -48.7216 H         1 UNK         0.0600 
    218 H218      -10.4735  -21.2697  -48.1588 H         1 UNK         0.0600 
    219 H219      -10.6305  -20.9274  -49.8820 H         1 UNK         0.0600 
    220 H220       -8.1328  -20.9505  -51.5046 H         1 UNK         0.3000 
    221 H221       -7.7242  -18.2917  -52.5944 H         1 UNK         0.0600 
    222 H222       -6.9292  -21.0796  -53.6275 H         1 UNK         0.0600 
    223 H223       -8.4560  -20.2681  -53.9706 H         1 UNK         0.0600 
    224 H224       -6.9529  -19.6037  -54.5850 H         1 UNK         0.0600 
    225 H225       -5.5297  -17.8839  -53.7484 H         1 UNK         0.3000 
    226 H226       -3.5259  -17.5761  -51.7381 H         1 UNK         0.0600 
    227 H227       -4.0407  -15.8364  -53.4219 H         1 UNK         0.0600 
    228 H228       -2.3509  -16.2990  -53.5090 H         1 UNK         0.0600 
    229 H229       -3.4809  -16.8949  -54.7192 H         1 UNK         0.0600 
    230 H230       -3.6955  -20.2118  -51.7802 H         1 UNK         0.3000 
    231 H231       -2.6196  -22.1599  -51.8468 H         1 UNK         0.0600 
    232 H232       -0.8083  -20.7918  -50.7354 H         1 UNK         0.0600 
    233 H233       -0.0619  -20.5097  -52.2951 H         1 UNK         0.0600 
    234 H234       -0.1471  -22.1400  -51.6304 H         1 UNK         0.0600 
    235 H235       -0.0129  -22.4092  -53.6057 H         1 UNK         0.3000 
    236 H236       -1.2856  -23.3949  -56.0402 H         1 UNK         0.0600 
    237 H237        0.6314  -24.5901  -54.9869 H         1 UNK         0.0600 
    238 H238        1.0495  -24.0534  -56.6056 H         1 UNK         0.0600 
    239 H239        1.6595  -23.1734  -55.2097 H         1 UNK         0.0600 
    240 H240       -0.1601  -20.3264  -54.9880 H         1 UNK         0.3000 
    241 H241        0.8009  -19.3647  -57.5627 H         1 UNK         0.0600 
    242 H242       -2.3989  -19.7228  -56.3211 H         1 UNK         0.3800 
    243 H243       -3.1376  -18.5476  -57.3835 H         1 UNK         0.3800 
    244 H244        1.1525  -17.2148  -56.3733 H         1 UNK         0.0800 
    245 H245        0.3569  -17.8439  -54.9533 H         1 UNK         0.0800 
    246 H246        2.6780  -16.6129  -54.2184 H         1 UNK         0.0800 
    247 H247        4.0681  -17.5881  -53.8335 H         1 UNK         0.0800 
@<TRIPOS>BOND
     1    1    2 1    
     2    1  127 1    
     3    1  128 1    
     4    1  129 1    
     5    2    3 2    
     6    2    4 am   BACKBONE|DICT|INTERRES
     7    4    5 1    
     8    4  130 1    
     9    5    6 1    
    10    5   65 1    
    11    5  131 1    
    12    6    7 1    
    13    6  132 1    
    14    6  133 1    
    15    7    8 1    
    16    8    9 1    
    17    8  134 1    
    18    8  135 1    
    19    9   10 ar   
    20    9   14 ar   
    21   10   11 ar   
    22   10  136 1    
    23   11   12 ar   
    24   11  126 1    
    25   12   13 ar   
    26   12  137 1    
    27   13   14 ar   
    28   13   15 1    
    29   14  138 1    
    30   15   16 1    
    31   15  139 1    
    32   15  140 1    
    33   16   17 1    
    34   17   18 1    
    35   17  141 1    
    36   17  142 1    
    37   18   19 1    
    38   18   67 1    
    39   18  143 1    
    40   19   20 am   BACKBONE|DICT|INTERRES
    41   19  144 1    
    42   20   21 2    
    43   20   22 1    
    44   22   23 1    
    45   22   24 1    
    46   22  145 1    
    47   23  146 1    
    48   23  147 1    
    49   23  148 1    
    50   24   25 am   BACKBONE|DICT|INTERRES
    51   24  149 1    
    52   25   26 2    
    53   25   27 1    
    54   27   28 1    
    55   27   29 1    
    56   27  150 1    
    57   28  151 1    
    58   28  152 1    
    59   28  153 1    
    60   29   30 am   BACKBONE|DICT|INTERRES
    61   29  154 1    
    62   30   31 2    
    63   30   32 1    
    64   32   33 1    
    65   32   34 1    
    66   32  155 1    
    67   33  156 1    
    68   33  157 1    
    69   33  158 1    
    70   34   35 am   BACKBONE|DICT|INTERRES
    71   34  159 1    
    72   35   36 2    
    73   35   37 1    
    74   37   38 1    
    75   37   39 1    
    76   37  160 1    
    77   38  161 1    
    78   38  162 1    
    79   38  163 1    
    80   39   40 am   BACKBONE|DICT|INTERRES
    81   39  164 1    
    82   40   41 2    
    83   40   42 1    
    84   42   43 1    
    85   42   44 1    
    86   42  165 1    
    87   43  166 1    
    88   43  167 1    
    89   43  168 1    
    90   44   45 am   BACKBONE|DICT|INTERRES
    91   44  169 1    
    92   45   46 2    
    93   45   47 1    
    94   47   48 1    
    95   47   49 1    
    96   47  170 1    
    97   48  171 1    
    98   48  172 1    
    99   48  173 1    
   100   49   50 am   BACKBONE|DICT|INTERRES
   101   49  174 1    
   102   50   51 2    
   103   50   52 1    
   104   52   53 1    
   105   52   54 1    
   106   52  175 1    
   107   53  176 1    
   108   53  177 1    
   109   53  178 1    
   110   54   55 am   BACKBONE|DICT|INTERRES
   111   54  179 1    
   112   55   56 2    
   113   55   57 1    
   114   57   58 1    
   115   57   59 1    
   116   57  180 1    
   117   58  181 1    
   118   58  182 1    
   119   58  183 1    
   120   59   60 am   BACKBONE|DICT|INTERRES
   121   59  184 1    
   122   60   61 2    
   123   60   62 1    
   124   62   63 1    
   125   62   64 1    
   126   62  185 1    
   127   63  186 1    
   128   63  187 1    
   129   63  188 1    
   130   64   65 am   BACKBONE|DICT|INTERRES
   131   64  189 1    
   132   65   66 2    
   133   67   68 2    
   134   67   69 am   BACKBONE|DICT|INTERRES
   135   69   70 1    
   136   69  190 1    
   137   70   71 1    
   138   70   72 1    
   139   70  191 1    
   140   71  192 1    
   141   71  193 1    
   142   71  194 1    
   143   72   73 2    
   144   72   74 am   BACKBONE|DICT|INTERRES
   145   74   75 1    
   146   74  195 1    
   147   75   76 1    
   148   75   77 1    
   149   75  196 1    
   150   76  197 1    
   151   76  198 1    
   152   76  199 1    
   153   77   78 2    
   154   77   79 am   BACKBONE|DICT|INTERRES
   155   79   80 1    
   156   79  200 1    
   157   80   81 1    
   158   80   82 1    
   159   80  201 1    
   160   81  202 1    
   161   81  203 1    
   162   81  204 1    
   163   82   83 2    
   164   82   84 am   BACKBONE|DICT|INTERRES
   165   84   85 1    
   166   84  205 1    
   167   85   86 1    
   168   85   87 1    
   169   85  206 1    
   170   86  207 1    
   171   86  208 1    
   172   86  209 1    
   173   87   88 2    
   174   87   89 am   BACKBONE|DICT|INTERRES
   175   89   90 1    
   176   89  210 1    
   177   90   91 1    
   178   90   92 1    
   179   90  211 1    
   180   91  212 1    
   181   91  213 1    
   182   91  214 1    
   183   92   93 2    
   184   92   94 am   BACKBONE|DICT|INTERRES
   185   94   95 1    
   186   94  215 1    
   187   95   96 1    
   188   95   97 1    
   189   95  216 1    
   190   96  217 1    
   191   96  218 1    
   192   96  219 1    
   193   97   98 2    
   194   97   99 am   BACKBONE|DICT|INTERRES
   195   99  100 1    
   196   99  220 1    
   197  100  101 1    
   198  100  102 1    
   199  100  221 1    
   200  101  222 1    
   201  101  223 1    
   202  101  224 1    
   203  102  103 2    
   204  102  104 am   BACKBONE|DICT|INTERRES
   205  104  105 1    
   206  104  225 1    
   207  105  106 1    
   208  105  107 1    
   209  105  226 1    
   210  106  227 1    
   211  106  228 1    
   212  106  229 1    
   213  107  108 2    
   214  107  109 am   BACKBONE|DICT|INTERRES
   215  109  110 1    
   216  109  230 1    
   217  110  111 1    
   218  110  112 1    
   219  110  231 1    
   220  111  232 1    
   221  111  233 1    
   222  111  234 1    
   223  112  113 2    
   224  112  114 am   BACKBONE|DICT|INTERRES
   225  114  115 1    
   226  114  235 1    
   227  115  116 1    
   228  115  117 1    
   229  115  236 1    
   230  116  237 1    
   231  116  238 1    
   232  116  239 1    
   233  117  118 2    
   234  117  119 am   BACKBONE|DICT|INTERRES
   235  119  120 1    
   236  119  240 1    
   237  120  121 1    
   238  120  124 1    
   239  120  241 1    
   240  121  122 am   BACKBONE|DICT|INTERRES
   241  121  123 2    
   242  122  242 1    
   243  122  243 1    
   244  124  125 1    
   245  124  244 1    
   246  124  245 1    
   247  125  126 1    
   248  126  246 1    
   249  126  247 1    
@<TRIPOS>SUBSTRUCTURE
     1 UNK         1 GROUP             0       ****    0 ROOT    
