@<TRIPOS>MOLECULE
3R540
247   249    1
SMALL
USER_CHARGES


@<TRIPOS>ATOM
      1 CA          3.0948  -12.7835  -48.7308 C.3       0 UNK        -0.1800 
      2 C           3.0118  -14.1899  -49.3053 C.2       0 UNK         0.5000 
      3 O           3.9602  -14.9634  -49.1727 O.2       0 UNK        -0.5000 
      4 N           1.8729  -14.5323  -49.9235 N.am      1 UNK        -0.5000 
      5 CA          1.6081  -15.8142  -50.5989 C.3       1 UNK         0.1400 
      6 C6          0.2591  -15.8114  -51.3603 C.3       23 UNK        -0.0398 
      7 S7         -0.0253  -14.3422  -52.4189 S.3       23 UNK        -0.2404 
      8 C8         -1.3037  -13.3960  -51.5120 C.3       23 UNK        -0.0205 
      9 C9         -2.5315  -14.2401  -51.2033 C.ar      23 UNK        -0.0193 
     10 C10        -3.3989  -14.6286  -52.2270 C.ar      23 UNK        -0.1150 
     11 C11        -4.4402  -15.5262  -51.9718 C.ar      23 UNK        -0.0193 
     12 C12        -4.6233  -16.0177  -50.6743 C.ar      23 UNK        -0.1150 
     13 C13        -3.7602  -15.6331  -49.6440 C.ar      23 UNK        -0.0193 
     14 C14        -2.7427  -14.7135  -49.9063 C.ar      23 UNK        -0.1150 
     15 C15        -3.8287  -16.3006  -48.2806 C.3       23 UNK        -0.0205 
     16 S16        -2.4725  -17.5063  -48.1492 S.3       23 UNK        -0.2404 
     17 C17        -2.6701  -18.1637  -46.4641 C.3       23 UNK        -0.0398 
     18 CA         -1.9651  -19.5383  -46.3359 C.3       11 UNK         0.1400 
     19 N          -1.3608  -19.7711  -45.0194 N.am      11 UNK        -0.5000 
     20 C          -0.4236  -20.7107  -44.8110 C.2       10 UNK         0.5000 
     21 O          -0.0008  -21.4492  -45.6993 O.2       10 UNK        -0.5000 
     22 CA          0.1093  -20.9040  -43.3833 C.3       10 UNK         0.1400 
     23 CB          1.3407  -20.0253  -43.1297 C.3       10 UNK        -0.1800 
     24 N          -0.8838  -20.6831  -42.3355 N.am      10 UNK        -0.5000 
     25 C          -1.9657  -21.4507  -42.1434 C.2       9 UNK         0.5000 
     26 O          -2.3128  -22.3418  -42.9199 O.2       9 UNK        -0.5000 
     27 CA         -2.7943  -21.1760  -40.8792 C.3       9 UNK         0.1400 
     28 CB         -2.0860  -21.7445  -39.6396 C.3       9 UNK        -0.1800 
     29 N          -2.9969  -19.7406  -40.6999 N.am      9 UNK        -0.5000 
     30 C          -4.1645  -19.1068  -40.8714 C.2       8 UNK         0.5000 
     31 O          -5.2328  -19.6798  -41.0890 O.2       8 UNK        -0.5000 
     32 CA         -4.1373  -17.5642  -40.8156 C.3       8 UNK         0.1400 
     33 CB         -4.4814  -17.0726  -39.4014 C.3       8 UNK        -0.1800 
     34 N          -2.8609  -16.9722  -41.2274 N.am      8 UNK        -0.5000 
     35 C          -2.2781  -17.1476  -42.4213 C.2       7 UNK         0.5000 
     36 O          -2.7658  -17.8195  -43.3290 O.2       7 UNK        -0.5000 
     37 CA         -0.8840  -16.5294  -42.6217 C.3       7 UNK         0.1400 
     38 CB         -0.9917  -15.1475  -43.2807 C.3       7 UNK        -0.1800 
     39 N          -0.0628  -16.4273  -41.4117 N.am      7 UNK        -0.5000 
     40 C           0.2671  -17.4222  -40.5768 C.2       6 UNK         0.5000 
     41 O          -0.2196  -18.5535  -40.6435 O.2       6 UNK        -0.5000 
     42 CA          1.3345  -17.0971  -39.5091 C.3       6 UNK         0.1400 
     43 CB          1.7445  -18.3381  -38.6956 C.3       6 UNK        -0.1800 
     44 N           2.5410  -16.5038  -40.0951 N.am      6 UNK        -0.5000 
     45 C           2.6774  -15.2321  -40.4961 C.2       5 UNK         0.5000 
     46 O           1.7756  -14.3971  -40.4117 O.2       5 UNK        -0.5000 
     47 CA          4.0303  -14.8244  -41.1117 C.3       5 UNK         0.1400 
     48 CB          4.9140  -14.1436  -40.0552 C.3       5 UNK        -0.1800 
     49 N           4.7737  -15.9384  -41.7082 N.am      5 UNK        -0.5000 
     50 C           4.4222  -16.5730  -42.8341 C.2       4 UNK         0.5000 
     51 O           3.3979  -16.3189  -43.4726 O.2       4 UNK        -0.5000 
     52 CA          5.3673  -17.6960  -43.2983 C.3       4 UNK         0.1400 
     53 CB          5.0593  -19.0044  -42.5554 C.3       4 UNK        -0.1800 
     54 N           5.2384  -17.9260  -44.7351 N.am      4 UNK        -0.5000 
     55 C           5.8471  -17.2091  -45.6857 C.2       3 UNK         0.5000 
     56 O           6.6823  -16.3350  -45.4488 O.2       3 UNK        -0.5000 
     57 CA          5.4488  -17.4981  -47.1470 C.3       3 UNK         0.1400 
     58 CB          6.0304  -18.8353  -47.6458 C.3       3 UNK        -0.1800 
     59 N           4.0049  -17.4022  -47.3937 N.am      3 UNK        -0.5000 
     60 C           3.0158  -18.1904  -46.9430 C.2       2 UNK         0.5000 
     61 O           3.1997  -19.1981  -46.2597 O.2       2 UNK        -0.5000 
     62 CA          1.5698  -17.7633  -47.2637 C.3       2 UNK         0.1400 
     63 CB          0.9288  -17.1501  -46.0112 C.3       2 UNK        -0.1800 
     64 N           1.4718  -16.7839  -48.3437 N.am      2 UNK        -0.5000 
     65 C           1.6568  -17.0337  -49.6468 C.2       1 UNK         0.5000 
     66 O           1.8571  -18.1586  -50.1033 O.2       1 UNK        -0.5000 
     67 C          -2.8888  -20.6959  -46.7562 C.2       11 UNK         0.5000 
     68 O          -2.9273  -21.0332  -47.9380 O.2       11 UNK        -0.5000 
     69 N          -3.5703  -21.3175  -45.7837 N.am      12 UNK        -0.5000 
     70 CA         -4.3744  -22.5192  -45.9953 C.3       12 UNK         0.1400 
     71 CB         -5.3078  -22.7365  -44.7947 C.3       12 UNK        -0.1800 
     72 C          -3.4922  -23.7552  -46.2458 C.2       12 UNK         0.5000 
     73 O          -3.7986  -24.5426  -47.1404 O.2       12 UNK        -0.5000 
     74 N          -2.3991  -23.8828  -45.4785 N.am      13 UNK        -0.5000 
     75 CA         -1.4245  -24.9708  -45.5870 C.3       13 UNK         0.1400 
     76 CB         -0.4539  -24.9114  -44.3981 C.3       13 UNK        -0.1800 
     77 C          -0.6558  -24.9635  -46.9222 C.2       13 UNK         0.5000 
     78 O          -0.5221  -26.0138  -47.5509 O.2       13 UNK        -0.5000 
     79 N          -0.1868  -23.7805  -47.3435 N.am      14 UNK        -0.5000 
     80 CA          0.4993  -23.5679  -48.6216 C.3       14 UNK         0.1400 
     81 CB          1.3322  -22.2777  -48.5306 C.3       14 UNK        -0.1800 
     82 C          -0.4666  -23.4782  -49.8185 C.2       14 UNK         0.5000 
     83 O          -0.0126  -23.5125  -50.9637 O.2       14 UNK        -0.5000 
     84 N          -1.7654  -23.2972  -49.5377 N.am      15 UNK        -0.5000 
     85 CA         -2.8534  -23.0196  -50.4795 C.3       15 UNK         0.1400 
     86 CB         -3.1585  -24.2619  -51.3397 C.3       15 UNK        -0.1800 
     87 C          -2.5856  -21.7533  -51.3198 C.2       15 UNK         0.5000 
     88 O          -2.8737  -21.7399  -52.5165 O.2       15 UNK        -0.5000 
     89 N          -2.0098  -20.7261  -50.6785 N.am      16 UNK        -0.5000 
     90 CA         -1.4945  -19.4834  -51.2667 C.3       16 UNK         0.1400 
     91 CB         -2.6515  -18.5911  -51.7465 C.3       16 UNK        -0.1800 
     92 C          -0.4356  -19.7318  -52.3619 C.2       16 UNK         0.5000 
     93 O          -0.4696  -19.0916  -53.4132 O.2       16 UNK        -0.5000 
     94 N           0.4723  -20.6787  -52.0845 N.am      17 UNK        -0.5000 
     95 CA          1.5119  -21.2020  -52.9737 C.3       17 UNK         0.1400 
     96 CB          2.5255  -20.1052  -53.3649 C.3       17 UNK        -0.1800 
     97 C           0.9004  -21.9451  -54.1787 C.2       17 UNK         0.5000 
     98 O           1.2174  -21.6376  -55.3293 O.2       17 UNK        -0.5000 
     99 N           0.0314  -22.9192  -53.8676 N.am      18 UNK        -0.5000 
    100 CA        -0.6814  -23.8048  -54.7957 C.3       18 UNK         0.1400 
    101 CB         0.3055  -24.7554  -55.5055 C.3       18 UNK        -0.1800 
    102 C         -1.6113  -23.0523  -55.7738 C.2       18 UNK         0.5000 
    103 O         -1.6202  -23.3401  -56.9722 O.2       18 UNK        -0.5000 
    104 N         -2.3942  -22.1132  -55.2319 N.am      19 UNK        -0.5000 
    105 CA        -3.3966  -21.3112  -55.9364 C.3       19 UNK         0.1400 
    106 CB        -2.9774  -19.8321  -55.8749 C.3       19 UNK        -0.1800 
    107 C         -4.8025  -21.5386  -55.3412 C.2       19 UNK         0.5000 
    108 O         -5.6645  -20.6634  -55.4477 O.2       19 UNK        -0.5000 
    109 N         -5.0026  -22.6976  -54.6903 N.am      20 UNK        -0.5000 
    110 CA        -6.2341  -23.1604  -54.0308 C.3       20 UNK         0.1400 
    111 CB        -7.3200  -23.4627  -55.0840 C.3       20 UNK        -0.1800 
    112 C         -6.7435  -22.2148  -52.9188 C.2       20 UNK         0.5000 
    113 O         -7.9437  -22.1821  -52.6382 O.2       20 UNK        -0.5000 
    114 N         -5.8239  -21.4255  -52.3406 N.am      21 UNK        -0.5000 
    115 CA        -6.0539  -20.3434  -51.3756 C.3       21 UNK         0.1400 
    116 CB        -6.4912  -20.9175  -50.0118 C.3       21 UNK        -0.1800 
    117 C         -7.0062  -19.2385  -51.8915 C.2       21 UNK         0.5000 
    118 O         -7.6081  -18.5392  -51.0761 O.2       21 UNK        -0.5000 
    119 N         -7.1396  -19.1261  -53.2255 N.am      22 UNK        -0.5000 
    120 CA        -8.1209  -18.3114  -53.9688 C.3       22 UNK         0.1400 
    121 C         -9.6072  -18.4374  -53.5072 C.2       22 UNK         0.5000 
    122 N        -10.0220  -19.5814  -52.9731 N.am      22 UNK        -0.7600 
    123 O        -10.4052  -17.5172  -53.6660 O.2       22 UNK        -0.5000 
    124 C124       -7.6421  -16.8666  -54.3086 C.3       23 UNK        -0.0398 
    125 S125       -7.0587  -15.8438  -52.9116 S.3       23 UNK        -0.2404 
    126 C126       -5.2663  -16.0716  -53.1263 C.3       23 UNK        -0.0205 
    127 H127        3.9258  -12.2428  -49.1836 H         1 UNK         0.0600 
    128 H128        3.2613  -12.8275  -47.6545 H         1 UNK         0.0600 
    129 H129        2.1811  -12.2167  -48.9115 H         1 UNK         0.0600 
    130 H130        1.1403  -13.8437  -50.0129 H         1 UNK         0.3000 
    131 H131        2.4051  -15.9538  -51.3322 H         1 UNK         0.0600 
    132 H132       -0.5646  -15.9369  -50.6609 H         1 UNK         0.0800 
    133 H133        0.2117  -16.6834  -52.0147 H         1 UNK         0.0800 
    134 H134       -1.6003  -12.5354  -52.1133 H         1 UNK         0.0800 
    135 H135       -0.8729  -12.9921  -50.5949 H         1 UNK         0.0800 
    136 H136       -3.2169  -14.2835  -53.2352 H         1 UNK         0.1150 
    137 H137       -5.3935  -16.7528  -50.4861 H         1 UNK         0.1150 
    138 H138       -2.0557  -14.4438  -49.1163 H         1 UNK         0.1150 
    139 H139       -3.7395  -15.5523  -47.4918 H         1 UNK         0.0800 
    140 H140       -4.7865  -16.8042  -48.1406 H         1 UNK         0.0800 
    141 H141       -3.7257  -18.2146  -46.1903 H         1 UNK         0.0800 
    142 H142       -2.2218  -17.4339  -45.7922 H         1 UNK         0.0800 
    143 H143       -1.1326  -19.5495  -47.0428 H         1 UNK         0.0600 
    144 H144       -1.7188  -19.2185  -44.2469 H         1 UNK         0.3000 
    145 H145        0.4336  -21.9428  -43.3023 H         1 UNK         0.0600 
    146 H146        1.7930  -20.2554  -42.1649 H         1 UNK         0.0600 
    147 H147        2.0994  -20.1924  -43.8951 H         1 UNK         0.0600 
    148 H148        1.0973  -18.9648  -43.1363 H         1 UNK         0.0600 
    149 H149       -0.6599  -19.9591  -41.6562 H         1 UNK         0.3000 
    150 H150       -3.7488  -21.6944  -40.9909 H         1 UNK         0.0600 
    151 H151       -1.9022  -22.8140  -39.7502 H         1 UNK         0.0600 
    152 H152       -2.6946  -21.6098  -38.7453 H         1 UNK         0.0600 
    153 H153       -1.1241  -21.2604  -39.4643 H         1 UNK         0.0600 
    154 H154       -2.1634  -19.1832  -40.5489 H         1 UNK         0.3000 
    155 H155       -4.9044  -17.2005  -41.5022 H         1 UNK         0.0600 
    156 H156       -3.7286  -17.3810  -38.6749 H         1 UNK         0.0600 
    157 H157       -5.4406  -17.4732  -39.0707 H         1 UNK         0.0600 
    158 H158       -4.5564  -15.9855  -39.3681 H         1 UNK         0.0600 
    159 H159       -2.3737  -16.4194  -40.5377 H         1 UNK         0.3000 
    160 H160       -0.3502  -17.1822  -43.3111 H         1 UNK         0.0600 
    161 H161       -1.4734  -14.4246  -42.6213 H         1 UNK         0.0600 
    162 H162       -1.5752  -15.1958  -44.2013 H         1 UNK         0.0600 
    163 H163       -0.0068  -14.7599  -43.5429 H         1 UNK         0.0600 
    164 H164        0.3951  -15.5350  -41.2544 H         1 UNK         0.3000 
    165 H165        0.8888  -16.3784  -38.8186 H         1 UNK         0.0600 
    166 H166        2.4674  -18.0812  -37.9211 H         1 UNK         0.0600 
    167 H167        0.8824  -18.7830  -38.1967 H         1 UNK         0.0600 
    168 H168        2.1897  -19.1058  -39.3299 H         1 UNK         0.0600 
    169 H169        3.3225  -17.1265  -40.2340 H         1 UNK         0.3000 
    170 H170        3.8219  -14.0971  -41.8994 H         1 UNK         0.0600 
    171 H171        4.4027  -13.2893  -39.6092 H         1 UNK         0.0600 
    172 H172        5.1755  -14.8279  -39.2471 H         1 UNK         0.0600 
    173 H173        5.8398  -13.7719  -40.4947 H         1 UNK         0.0600 
    174 H174        5.6251  -16.2105  -41.2376 H         1 UNK         0.3000 
    175 H175        6.3956  -17.4045  -43.0737 H         1 UNK         0.0600 
    176 H176        4.0381  -19.3357  -42.7357 H         1 UNK         0.0600 
    177 H177        5.7303  -19.8036  -42.8707 H         1 UNK         0.0600 
    178 H178        5.1809  -18.8852  -41.4782 H         1 UNK         0.0600 
    179 H179        4.5105  -18.5684  -45.0355 H         1 UNK         0.3000 
    180 H180        5.8955  -16.7086  -47.7535 H         1 UNK         0.0600 
    181 H181        5.6592  -19.6863  -47.0744 H         1 UNK         0.0600 
    182 H182        7.1177  -18.8389  -47.5609 H         1 UNK         0.0600 
    183 H183        5.7853  -19.0034  -48.6945 H         1 UNK         0.0600 
    184 H184        3.7394  -16.5920  -47.9440 H         1 UNK         0.3000 
    185 H185        1.0108  -18.6560  -47.5501 H         1 UNK         0.0600 
    186 H186        0.8650  -17.8881  -45.2140 H         1 UNK         0.0600 
    187 H187        1.5099  -16.3088  -45.6306 H         1 UNK         0.0600 
    188 H188       -0.0781  -16.7905  -46.2125 H         1 UNK         0.0600 
    189 H189        1.3068  -15.8272  -48.0677 H         1 UNK         0.3000 
    190 H190       -3.4477  -21.0122  -44.8289 H         1 UNK         0.3000 
    191 H191       -4.9957  -22.3659  -46.8808 H         1 UNK         0.0600 
    192 H192       -4.7529  -22.8952  -43.8699 H         1 UNK         0.0600 
    193 H193       -5.9421  -23.6102  -44.9493 H         1 UNK         0.0600 
    194 H194       -5.9655  -21.8798  -44.6471 H         1 UNK         0.0600 
    195 H195       -2.2516  -23.2137  -44.7296 H         1 UNK         0.3000 
    196 H196       -1.9740  -25.9125  -45.5255 H         1 UNK         0.0600 
    197 H197        0.2357  -25.7562  -44.4162 H         1 UNK         0.0600 
    198 H198       -0.9880  -24.9465  -43.4483 H         1 UNK         0.0600 
    199 H199        0.1447  -24.0011  -44.4131 H         1 UNK         0.0600 
    200 H200       -0.2816  -22.9648  -46.7414 H         1 UNK         0.3000 
    201 H201        1.1784  -24.4031  -48.8045 H         1 UNK         0.0600 
    202 H202        2.0343  -22.3184  -47.6974 H         1 UNK         0.0600 
    203 H203        0.7012  -21.3989  -48.3895 H         1 UNK         0.0600 
    204 H204        1.9165  -22.1203  -49.4381 H         1 UNK         0.0600 
    205 H205       -2.0255  -23.2550  -48.5620 H         1 UNK         0.3000 
    206 H206       -3.7369  -22.8103  -49.8768 H         1 UNK         0.0600 
    207 H207       -4.0326  -24.0983  -51.9694 H         1 UNK         0.0600 
    208 H208       -3.3703  -25.1279  -50.7126 H         1 UNK         0.0600 
    209 H209       -2.3248  -24.5191  -51.9922 H         1 UNK         0.0600 
    210 H210       -1.9291  -20.8110  -49.6704 H         1 UNK         0.3000 
    211 H211       -0.9806  -18.9523  -50.4643 H         1 UNK         0.0600 
    212 H212       -2.2857  -17.6227  -52.0894 H         1 UNK         0.0600 
    213 H213       -3.3463  -18.4028  -50.9312 H         1 UNK         0.0600 
    214 H214       -3.2068  -19.0437  -52.5668 H         1 UNK         0.0600 
    215 H215        0.3720  -21.1755  -51.2114 H         1 UNK         0.3000 
    216 H216        2.0553  -21.9514  -52.3963 H         1 UNK         0.0600 
    217 H217        3.3657  -20.5327  -53.9129 H         1 UNK         0.0600 
    218 H218        2.9302  -19.6110  -52.4814 H         1 UNK         0.0600 
    219 H219        2.0793  -19.3406  -54.0010 H         1 UNK         0.0600 
    220 H220       -0.1384  -23.0927  -52.8803 H         1 UNK         0.3000 
    221 H221       -1.3351  -24.4230  -54.1800 H         1 UNK         0.0600 
    222 H222        0.9735  -24.2187  -56.1797 H         1 UNK         0.0600 
    223 H223        0.9194  -25.2953  -54.7845 H         1 UNK         0.0600 
    224 H224       -0.2269  -25.5003  -56.0981 H         1 UNK         0.0600 
    225 H225       -2.3495  -21.9551  -54.2257 H         1 UNK         0.3000 
    226 H226       -3.4539  -21.6053  -56.9858 H         1 UNK         0.0600 
    227 H227       -1.9806  -19.6889  -56.2924 H         1 UNK         0.0600 
    228 H228       -3.6616  -19.2014  -56.4436 H         1 UNK         0.0600 
    229 H229       -2.9622  -19.4635  -54.8497 H         1 UNK         0.0600 
    230 H230       -4.2165  -23.3289  -54.6355 H         1 UNK         0.3000 
    231 H231       -5.9845  -24.0997  -53.5362 H         1 UNK         0.0600 
    232 H232       -6.9461  -24.1387  -55.8529 H         1 UNK         0.0600 
    233 H233       -7.6689  -22.5545  -55.5765 H         1 UNK         0.0600 
    234 H234       -8.1876  -23.9416  -54.6286 H         1 UNK         0.0600 
    235 H235       -4.8643  -21.5250  -52.6568 H         1 UNK         0.3000 
    236 H236       -5.0908  -19.8611  -51.2261 H         1 UNK         0.0600 
    237 H237       -6.5141  -20.1392  -49.2482 H         1 UNK         0.0600 
    238 H238       -7.4872  -21.3585  -50.0603 H         1 UNK         0.0600 
    239 H239       -5.8015  -21.6850  -49.6633 H         1 UNK         0.0600 
    240 H240       -6.5937  -19.7527  -53.8070 H         1 UNK         0.3000 
    241 H241       -8.1583  -18.8113  -54.9375 H         1 UNK         0.0600 
    242 H242      -10.9827  -19.6737  -52.6831 H         1 UNK         0.3800 
    243 H243       -9.3809  -20.3528  -52.8415 H         1 UNK         0.3800 
    244 H244       -6.8375  -16.9349  -55.0418 H         1 UNK         0.0800 
    245 H245       -8.4279  -16.3126  -54.8239 H         1 UNK         0.0800 
    246 H246       -5.0463  -17.1351  -53.2265 H         1 UNK         0.0800 
    247 H247       -4.9666  -15.6068  -54.0669 H         1 UNK         0.0800 
@<TRIPOS>BOND
     1    1    2 1    
     2    1  127 1    
     3    1  128 1    
     4    1  129 1    
     5    2    3 2    
     6    2    4 am   BACKBONE|DICT|INTERRES
     7    4    5 1    
     8    4  130 1    
     9    5    6 1    
    10    5   65 1    
    11    5  131 1    
    12    6    7 1    
    13    6  132 1    
    14    6  133 1    
    15    7    8 1    
    16    8    9 1    
    17    8  134 1    
    18    8  135 1    
    19    9   10 ar   
    20    9   14 ar   
    21   10   11 ar   
    22   10  136 1    
    23   11   12 ar   
    24   11  126 1    
    25   12   13 ar   
    26   12  137 1    
    27   13   14 ar   
    28   13   15 1    
    29   14  138 1    
    30   15   16 1    
    31   15  139 1    
    32   15  140 1    
    33   16   17 1    
    34   17   18 1    
    35   17  141 1    
    36   17  142 1    
    37   18   19 1    
    38   18   67 1    
    39   18  143 1    
    40   19   20 am   BACKBONE|DICT|INTERRES
    41   19  144 1    
    42   20   21 2    
    43   20   22 1    
    44   22   23 1    
    45   22   24 1    
    46   22  145 1    
    47   23  146 1    
    48   23  147 1    
    49   23  148 1    
    50   24   25 am   BACKBONE|DICT|INTERRES
    51   24  149 1    
    52   25   26 2    
    53   25   27 1    
    54   27   28 1    
    55   27   29 1    
    56   27  150 1    
    57   28  151 1    
    58   28  152 1    
    59   28  153 1    
    60   29   30 am   BACKBONE|DICT|INTERRES
    61   29  154 1    
    62   30   31 2    
    63   30   32 1    
    64   32   33 1    
    65   32   34 1    
    66   32  155 1    
    67   33  156 1    
    68   33  157 1    
    69   33  158 1    
    70   34   35 am   BACKBONE|DICT|INTERRES
    71   34  159 1    
    72   35   36 2    
    73   35   37 1    
    74   37   38 1    
    75   37   39 1    
    76   37  160 1    
    77   38  161 1    
    78   38  162 1    
    79   38  163 1    
    80   39   40 am   BACKBONE|DICT|INTERRES
    81   39  164 1    
    82   40   41 2    
    83   40   42 1    
    84   42   43 1    
    85   42   44 1    
    86   42  165 1    
    87   43  166 1    
    88   43  167 1    
    89   43  168 1    
    90   44   45 am   BACKBONE|DICT|INTERRES
    91   44  169 1    
    92   45   46 2    
    93   45   47 1    
    94   47   48 1    
    95   47   49 1    
    96   47  170 1    
    97   48  171 1    
    98   48  172 1    
    99   48  173 1    
   100   49   50 am   BACKBONE|DICT|INTERRES
   101   49  174 1    
   102   50   51 2    
   103   50   52 1    
   104   52   53 1    
   105   52   54 1    
   106   52  175 1    
   107   53  176 1    
   108   53  177 1    
   109   53  178 1    
   110   54   55 am   BACKBONE|DICT|INTERRES
   111   54  179 1    
   112   55   56 2    
   113   55   57 1    
   114   57   58 1    
   115   57   59 1    
   116   57  180 1    
   117   58  181 1    
   118   58  182 1    
   119   58  183 1    
   120   59   60 am   BACKBONE|DICT|INTERRES
   121   59  184 1    
   122   60   61 2    
   123   60   62 1    
   124   62   63 1    
   125   62   64 1    
   126   62  185 1    
   127   63  186 1    
   128   63  187 1    
   129   63  188 1    
   130   64   65 am   BACKBONE|DICT|INTERRES
   131   64  189 1    
   132   65   66 2    
   133   67   68 2    
   134   67   69 am   BACKBONE|DICT|INTERRES
   135   69   70 1    
   136   69  190 1    
   137   70   71 1    
   138   70   72 1    
   139   70  191 1    
   140   71  192 1    
   141   71  193 1    
   142   71  194 1    
   143   72   73 2    
   144   72   74 am   BACKBONE|DICT|INTERRES
   145   74   75 1    
   146   74  195 1    
   147   75   76 1    
   148   75   77 1    
   149   75  196 1    
   150   76  197 1    
   151   76  198 1    
   152   76  199 1    
   153   77   78 2    
   154   77   79 am   BACKBONE|DICT|INTERRES
   155   79   80 1    
   156   79  200 1    
   157   80   81 1    
   158   80   82 1    
   159   80  201 1    
   160   81  202 1    
   161   81  203 1    
   162   81  204 1    
   163   82   83 2    
   164   82   84 am   BACKBONE|DICT|INTERRES
   165   84   85 1    
   166   84  205 1    
   167   85   86 1    
   168   85   87 1    
   169   85  206 1    
   170   86  207 1    
   171   86  208 1    
   172   86  209 1    
   173   87   88 2    
   174   87   89 am   BACKBONE|DICT|INTERRES
   175   89   90 1    
   176   89  210 1    
   177   90   91 1    
   178   90   92 1    
   179   90  211 1    
   180   91  212 1    
   181   91  213 1    
   182   91  214 1    
   183   92   93 2    
   184   92   94 am   BACKBONE|DICT|INTERRES
   185   94   95 1    
   186   94  215 1    
   187   95   96 1    
   188   95   97 1    
   189   95  216 1    
   190   96  217 1    
   191   96  218 1    
   192   96  219 1    
   193   97   98 2    
   194   97   99 am   BACKBONE|DICT|INTERRES
   195   99  100 1    
   196   99  220 1    
   197  100  101 1    
   198  100  102 1    
   199  100  221 1    
   200  101  222 1    
   201  101  223 1    
   202  101  224 1    
   203  102  103 2    
   204  102  104 am   BACKBONE|DICT|INTERRES
   205  104  105 1    
   206  104  225 1    
   207  105  106 1    
   208  105  107 1    
   209  105  226 1    
   210  106  227 1    
   211  106  228 1    
   212  106  229 1    
   213  107  108 2    
   214  107  109 am   BACKBONE|DICT|INTERRES
   215  109  110 1    
   216  109  230 1    
   217  110  111 1    
   218  110  112 1    
   219  110  231 1    
   220  111  232 1    
   221  111  233 1    
   222  111  234 1    
   223  112  113 2    
   224  112  114 am   BACKBONE|DICT|INTERRES
   225  114  115 1    
   226  114  235 1    
   227  115  116 1    
   228  115  117 1    
   229  115  236 1    
   230  116  237 1    
   231  116  238 1    
   232  116  239 1    
   233  117  118 2    
   234  117  119 am   BACKBONE|DICT|INTERRES
   235  119  120 1    
   236  119  240 1    
   237  120  121 1    
   238  120  124 1    
   239  120  241 1    
   240  121  122 am   BACKBONE|DICT|INTERRES
   241  121  123 2    
   242  122  242 1    
   243  122  243 1    
   244  124  125 1    
   245  124  244 1    
   246  124  245 1    
   247  125  126 1    
   248  126  246 1    
   249  126  247 1    
@<TRIPOS>SUBSTRUCTURE
     1 UNK         1 GROUP             0       ****    0 ROOT    
