@<TRIPOS>MOLECULE
3R540
247   249    1
SMALL
USER_CHARGES


@<TRIPOS>ATOM
      1 CA         -2.3281  -13.7725  -45.8185 C.3       0 UNK        -0.1800 
      2 C          -1.7208  -12.8844  -46.8919 C.2       0 UNK         0.5000 
      3 O          -2.4052  -12.0086  -47.4225 O.2       0 UNK        -0.5000 
      4 N          -0.4376  -13.0943  -47.2086 N.am      1 UNK        -0.5000 
      5 CA          0.3204  -12.3059  -48.1847 C.3       1 UNK         0.1400 
      6 C6          1.4326  -13.1387  -48.8688 C.3       23 UNK        -0.0398 
      7 S7          0.7493  -14.4618  -49.9215 S.3       23 UNK        -0.2404 
      8 C8          0.9629  -15.8962  -48.8257 C.3       23 UNK        -0.0205 
      9 C9          0.2844  -17.1388  -49.3787 C.ar      23 UNK        -0.0193 
     10 C10        -1.1112  -17.2081  -49.4453 C.ar      23 UNK        -0.1150 
     11 C11        -1.7471  -18.3699  -49.8923 C.ar      23 UNK        -0.0193 
     12 C12        -0.9698  -19.4651  -50.2819 C.ar      23 UNK        -0.1150 
     13 C13         0.4255  -19.4015  -50.2391 C.ar      23 UNK        -0.0193 
     14 C14         1.0477  -18.2365  -49.7848 C.ar      23 UNK        -0.1150 
     15 C15         1.2593  -20.5938  -50.6817 C.3       23 UNK        -0.0205 
     16 S16         1.7446  -21.6452  -49.2780 S.3       23 UNK        -0.2404 
     17 C17         0.1123  -22.2110  -48.6990 C.3       23 UNK        -0.0398 
     18 CA          0.2100  -23.3514  -47.6647 C.3       11 UNK         0.1400 
     19 N           0.8053  -22.9190  -46.3982 N.am      11 UNK        -0.5000 
     20 C           1.1917  -23.7559  -45.4258 C.2       10 UNK         0.5000 
     21 O           1.1463  -24.9827  -45.5233 O.2       10 UNK        -0.5000 
     22 CA          1.6689  -23.1197  -44.1079 C.3       10 UNK         0.1400 
     23 CB          3.1321  -22.6656  -44.2168 C.3       10 UNK        -0.1800 
     24 N           0.8309  -21.9964  -43.6843 N.am      10 UNK        -0.5000 
     25 C          -0.4638  -22.0990  -43.3502 C.2       9 UNK         0.5000 
     26 O          -1.0825  -23.1631  -43.3339 O.2       9 UNK        -0.5000 
     27 CA         -1.2068  -20.7903  -43.0211 C.3       9 UNK         0.1400 
     28 CB         -0.8964  -20.3260  -41.5906 C.3       9 UNK        -0.1800 
     29 N          -0.9062  -19.7132  -43.9645 N.am      9 UNK        -0.5000 
     30 C          -1.1764  -19.7563  -45.2771 C.2       8 UNK         0.5000 
     31 O          -1.7407  -20.6963  -45.8325 O.2       8 UNK        -0.5000 
     32 CA         -0.6846  -18.5747  -46.1253 C.3       8 UNK         0.1400 
     33 CB         -1.6498  -17.3867  -46.0163 C.3       8 UNK        -0.1800 
     34 N           0.6704  -18.1573  -45.7670 N.am      8 UNK        -0.5000 
     35 C           1.7521  -18.9394  -45.8987 C.2       7 UNK         0.5000 
     36 O           1.7228  -20.0843  -46.3468 O.2       7 UNK        -0.5000 
     37 CA          3.0774  -18.3670  -45.3723 C.3       7 UNK         0.1400 
     38 CB          3.6523  -17.3287  -46.3473 C.3       7 UNK        -0.1800 
     39 N           2.9197  -17.7678  -44.0472 N.am      7 UNK        -0.5000 
     40 C           2.5997  -18.4539  -42.9398 C.2       6 UNK         0.5000 
     41 O           2.4596  -19.6757  -42.9073 O.2       6 UNK        -0.5000 
     42 CA          2.3514  -17.6314  -41.6627 C.3       6 UNK         0.1400 
     43 CB          3.6636  -17.4208  -40.8931 C.3       6 UNK        -0.1800 
     44 N           1.7337  -16.3315  -41.9307 N.am      6 UNK        -0.5000 
     45 C           0.5112  -16.1549  -42.4540 C.2       5 UNK         0.5000 
     46 O          -0.2394  -17.0803  -42.7635 O.2       5 UNK        -0.5000 
     47 CA          0.0787  -14.7001  -42.7124 C.3       5 UNK         0.1400 
     48 CB         -0.6185  -14.1112  -41.4782 C.3       5 UNK        -0.1800 
     49 N           1.2103  -13.8488  -43.0818 N.am      5 UNK        -0.5000 
     50 C           1.8548  -13.8961  -44.2537 C.2       4 UNK         0.5000 
     51 O           1.4726  -14.5642  -45.2186 O.2       4 UNK        -0.5000 
     52 CA          3.1435  -13.0550  -44.3309 C.3       4 UNK         0.1400 
     53 CB          3.9975  -13.3568  -45.5726 C.3       4 UNK        -0.1800 
     54 N           2.8505  -11.6234  -44.2724 N.am      4 UNK        -0.5000 
     55 C           2.6468  -10.9334  -43.1403 C.2       3 UNK         0.5000 
     56 O           2.6655  -11.4532  -42.0230 O.2       3 UNK        -0.5000 
     57 CA          2.3748   -9.4204  -43.2602 C.3       3 UNK         0.1400 
     58 CB          3.6686   -8.6245  -43.0308 C.3       3 UNK        -0.1800 
     59 N           1.8024   -9.0329  -44.5494 N.am      3 UNK        -0.5000 
     60 C           0.5506   -9.3060  -44.9373 C.2       2 UNK         0.5000 
     61 O          -0.2753   -9.8772  -44.2235 O.2       2 UNK        -0.5000 
     62 CA          0.1507   -8.9093  -46.3727 C.3       2 UNK         0.1400 
     63 CB          1.1176   -7.9170  -47.0588 C.3       2 UNK        -0.1800 
     64 N          -0.0447  -10.1067  -47.1923 N.am      2 UNK        -0.5000 
     65 C           0.8633  -11.0530  -47.4718 C.2       1 UNK         0.5000 
     66 O           2.0477  -10.9906  -47.1362 O.2       1 UNK        -0.5000 
     67 C          -1.1709  -23.9999  -47.4501 C.2       11 UNK         0.5000 
     68 O          -1.4313  -25.0530  -48.0294 O.2       11 UNK        -0.5000 
     69 N          -2.0222  -23.3870  -46.6143 N.am      12 UNK        -0.5000 
     70 CA         -3.3660  -23.8734  -46.2915 C.3       12 UNK         0.1400 
     71 CB         -4.1275  -22.8126  -45.4846 C.3       12 UNK        -0.1800 
     72 C          -3.3681  -25.2255  -45.5598 C.2       12 UNK         0.5000 
     73 O          -4.2589  -26.0409  -45.8003 O.2       12 UNK        -0.5000 
     74 N          -2.3529  -25.4555  -44.7155 N.am      13 UNK        -0.5000 
     75 CA         -2.1036  -26.7288  -44.0392 C.3       13 UNK         0.1400 
     76 CB         -0.9999  -26.5387  -42.9878 C.3       13 UNK        -0.1800 
     77 C          -1.7439  -27.8737  -45.0081 C.2       13 UNK         0.5000 
     78 O          -2.0161  -29.0324  -44.6908 O.2       13 UNK        -0.5000 
     79 N          -1.1597  -27.5372  -46.1672 N.am      14 UNK        -0.5000 
     80 CA         -0.9117  -28.4671  -47.2646 C.3       14 UNK         0.1400 
     81 CB          0.3134  -28.0110  -48.0769 C.3       14 UNK        -0.1800 
     82 C          -2.1740  -28.6097  -48.1334 C.2       14 UNK         0.5000 
     83 O          -2.7840  -29.6796  -48.1310 O.2       14 UNK        -0.5000 
     84 N          -2.5502  -27.5279  -48.8297 N.am      15 UNK        -0.5000 
     85 CA         -3.7094  -27.4044  -49.7141 C.3       15 UNK         0.1400 
     86 CB         -3.7264  -28.4977  -50.8084 C.3       15 UNK        -0.1800 
     87 C          -3.6887  -26.0077  -50.3577 C.2       15 UNK         0.5000 
     88 O          -3.0141  -25.8147  -51.3713 O.2       15 UNK        -0.5000 
     89 N          -4.4261  -25.0615  -49.7686 N.am      16 UNK        -0.5000 
     90 CA         -4.6570  -23.7100  -50.2791 C.3       16 UNK         0.1400 
     91 CB         -3.3919  -22.8373  -50.1507 C.3       16 UNK        -0.1800 
     92 C          -5.8295  -23.0905  -49.5025 C.2       16 UNK         0.5000 
     93 O          -6.2166  -23.6202  -48.4568 O.2       16 UNK        -0.5000 
     94 N          -6.3587  -21.9747  -50.0132 N.am      17 UNK        -0.5000 
     95 CA         -7.4115  -21.1795  -49.3809 C.3       17 UNK         0.1400 
     96 CB         -8.7752  -21.8979  -49.4392 C.3       17 UNK        -0.1800 
     97 C          -7.4792  -19.8031  -50.0527 C.2       17 UNK         0.5000 
     98 O          -7.3341  -18.7823  -49.3799 O.2       17 UNK        -0.5000 
     99 N          -7.6644  -19.8111  -51.3763 N.am      18 UNK        -0.5000 
    100 CA        -7.6722  -18.6470  -52.2529 C.3       18 UNK         0.1400 
    101 CB        -9.0269  -17.9208  -52.1700 C.3       18 UNK        -0.1800 
    102 C         -7.3927  -19.1390  -53.6786 C.2       18 UNK         0.5000 
    103 O         -7.7584  -20.2723  -54.0066 O.2       18 UNK        -0.5000 
    104 N         -6.7570  -18.2793  -54.4876 N.am      19 UNK        -0.5000 
    105 CA        -6.2604  -18.5435  -55.8458 C.3       19 UNK         0.1400 
    106 CB        -7.4377  -18.7984  -56.8128 C.3       19 UNK        -0.1800 
    107 C         -5.1954  -19.6653  -55.8939 C.2       19 UNK         0.5000 
    108 O         -4.7063  -20.0987  -54.8476 O.2       19 UNK        -0.5000 
    109 N         -4.8283  -20.0931  -57.1119 N.am      20 UNK        -0.5000 
    110 CA        -3.8637  -21.1560  -57.4220 C.3       20 UNK         0.1400 
    111 CB        -4.4785  -22.5379  -57.1043 C.3       20 UNK        -0.1800 
    112 C         -2.4971  -20.9100  -56.7474 C.2       20 UNK         0.5000 
    113 O         -1.7741  -20.0043  -57.1673 O.2       20 UNK        -0.5000 
    114 N         -2.1948  -21.6747  -55.6883 N.am      21 UNK        -0.5000 
    115 CA        -1.0080  -21.5426  -54.8392 C.3       21 UNK         0.1400 
    116 CB        -1.0354  -22.6511  -53.7744 C.3       21 UNK        -0.1800 
    117 C         -0.8658  -20.1611  -54.1679 C.2       21 UNK         0.5000 
    118 O          0.2598  -19.7361  -53.9067 O.2       21 UNK        -0.5000 
    119 N         -1.9948  -19.4816  -53.9276 N.am      22 UNK        -0.5000 
    120 CA        -2.0516  -18.1071  -53.4070 C.3       22 UNK         0.1400 
    121 C         -1.7401  -17.0122  -54.4714 C.2       22 UNK         0.5000 
    122 N         -1.5761  -17.3370  -55.7498 N.am      22 UNK        -0.7600 
    123 O         -1.6447  -15.8366  -54.1310 O.2       22 UNK        -0.5000 
    124 C124       -3.3946  -17.8013  -52.6875 C.3       23 UNK        -0.0398 
    125 S125       -3.9267  -19.0836  -51.4993 S.3       23 UNK        -0.2404 
    126 C126       -3.2695  -18.4445  -49.9238 C.3       23 UNK        -0.0205 
    127 H127       -1.6341  -14.5528  -45.5159 H         1 UNK         0.0600 
    128 H128       -3.2343  -14.2502  -46.1906 H         1 UNK         0.0600 
    129 H129       -2.5841  -13.1809  -44.9396 H         1 UNK         0.0600 
    130 H130        0.1025  -13.7736  -46.6847 H         1 UNK         0.3000 
    131 H131       -0.3515  -11.9596  -48.9735 H         1 UNK         0.0600 
    132 H132        2.0482  -12.5005  -49.5051 H         1 UNK         0.0800 
    133 H133        2.1057  -13.5753  -48.1322 H         1 UNK         0.0800 
    134 H134        2.0295  -16.0723  -48.6814 H         1 UNK         0.0800 
    135 H135        0.5518  -15.6758  -47.8407 H         1 UNK         0.0800 
    136 H136       -1.6999  -16.3580  -49.1302 H         1 UNK         0.1150 
    137 H137       -1.4531  -20.3672  -50.6282 H         1 UNK         0.1150 
    138 H138        2.1265  -18.1935  -49.7340 H         1 UNK         0.1150 
    139 H139        0.7112  -21.1901  -51.4115 H         1 UNK         0.0800 
    140 H140        2.1577  -20.2436  -51.1918 H         1 UNK         0.0800 
    141 H141       -0.4283  -21.3630  -48.2753 H         1 UNK         0.0800 
    142 H142       -0.4489  -22.5369  -49.5761 H         1 UNK         0.0800 
    143 H143        0.8579  -24.1251  -48.0832 H         1 UNK         0.0600 
    144 H144        0.9331  -21.9188  -46.2719 H         1 UNK         0.3000 
    145 H145        1.6104  -23.8864  -43.3325 H         1 UNK         0.0600 
    146 H146        3.5023  -22.2986  -43.2594 H         1 UNK         0.0600 
    147 H147        3.7763  -23.4917  -44.5200 H         1 UNK         0.0600 
    148 H148        3.2536  -21.8675  -44.9496 H         1 UNK         0.0600 
    149 H149        1.2820  -21.0877  -43.6354 H         1 UNK         0.3000 
    150 H150       -2.2777  -20.9925  -43.0850 H         1 UNK         0.0600 
    151 H151       -1.1678  -21.0937  -40.8650 H         1 UNK         0.0600 
    152 H152       -1.4560  -19.4252  -41.3376 H         1 UNK         0.0600 
    153 H153        0.1633  -20.1098  -41.4576 H         1 UNK         0.0600 
    154 H154       -0.4758  -18.8758  -43.5842 H         1 UNK         0.3000 
    155 H155       -0.6637  -18.9070  -47.1645 H         1 UNK         0.0600 
    156 H156       -1.3313  -16.5637  -46.6528 H         1 UNK         0.0600 
    157 H157       -1.7235  -17.0142  -44.9947 H         1 UNK         0.0600 
    158 H158       -2.6530  -17.6719  -46.3353 H         1 UNK         0.0600 
    159 H159        0.7756  -17.2431  -45.3516 H         1 UNK         0.3000 
    160 H160        3.7897  -19.1910  -45.2911 H         1 UNK         0.0600 
    161 H161        3.0016  -16.4594  -46.4418 H         1 UNK         0.0600 
    162 H162        3.7751  -17.7563  -47.3433 H         1 UNK         0.0600 
    163 H163        4.6322  -16.9810  -46.0200 H         1 UNK         0.0600 
    164 H164        2.9962  -16.7643  -43.9876 H         1 UNK         0.3000 
    165 H165        1.6705  -18.2015  -41.0276 H         1 UNK         0.0600 
    166 H166        4.3788  -16.8308  -41.4677 H         1 UNK         0.0600 
    167 H167        3.4883  -16.9088  -39.9468 H         1 UNK         0.0600 
    168 H168        4.1371  -18.3759  -40.6612 H         1 UNK         0.0600 
    169 H169        2.2787  -15.5145  -41.6991 H         1 UNK         0.3000 
    170 H170       -0.6367  -14.7088  -43.5333 H         1 UNK         0.0600 
    171 H171       -1.4786  -14.7170  -41.1899 H         1 UNK         0.0600 
    172 H172        0.0524  -14.0618  -40.6197 H         1 UNK         0.0600 
    173 H173       -0.9835  -13.1033  -41.6773 H         1 UNK         0.0600 
    174 H174        1.5648  -13.2161  -42.3728 H         1 UNK         0.3000 
    175 H175        3.7501  -13.3285  -43.4648 H         1 UNK         0.0600 
    176 H176        3.4982  -13.0628  -46.4918 H         1 UNK         0.0600 
    177 H177        4.9482  -12.8253  -45.5304 H         1 UNK         0.0600 
    178 H178        4.2256  -14.4202  -45.6445 H         1 UNK         0.0600 
    179 H179        2.7462  -11.1518  -45.1646 H         1 UNK         0.3000 
    180 H180        1.6659   -9.1510  -42.4743 H         1 UNK         0.0600 
    181 H181        3.4787   -7.5510  -43.0396 H         1 UNK         0.0600 
    182 H182        4.1103   -8.8670  -42.0633 H         1 UNK         0.0600 
    183 H183        4.4154   -8.8407  -43.7960 H         1 UNK         0.0600 
    184 H184        2.4236   -8.5846  -45.2073 H         1 UNK         0.3000 
    185 H185       -0.8219   -8.4210  -46.2962 H         1 UNK         0.0600 
    186 H186        1.2250   -7.0053  -46.4697 H         1 UNK         0.0600 
    187 H187        2.1134   -8.3345  -47.2091 H         1 UNK         0.0600 
    188 H188        0.7372   -7.6217  -48.0366 H         1 UNK         0.0600 
    189 H189       -1.0071  -10.3135  -47.4344 H         1 UNK         0.3000 
    190 H190       -1.7610  -22.4913  -46.2064 H         1 UNK         0.3000 
    191 H191       -3.8933  -24.0206  -47.2326 H         1 UNK         0.0600 
    192 H192       -5.1353  -23.1536  -45.2446 H         1 UNK         0.0600 
    193 H193       -4.2268  -21.8860  -46.0503 H         1 UNK         0.0600 
    194 H194       -3.6229  -22.5830  -44.5459 H         1 UNK         0.0600 
    195 H195       -1.7054  -24.6993  -44.5164 H         1 UNK         0.3000 
    196 H196       -3.0206  -27.0152  -43.5202 H         1 UNK         0.0600 
    197 H197       -0.8106  -27.4667  -42.4470 H         1 UNK         0.0600 
    198 H198       -1.2819  -25.7856  -42.2518 H         1 UNK         0.0600 
    199 H199       -0.0599  -26.2261  -43.4429 H         1 UNK         0.0600 
    200 H200       -0.9966  -26.5576  -46.3600 H         1 UNK         0.3000 
    201 H201       -0.6764  -29.4519  -46.8551 H         1 UNK         0.0600 
    202 H202        1.2071  -27.9879  -47.4531 H         1 UNK         0.0600 
    203 H203        0.1864  -27.0176  -48.5052 H         1 UNK         0.0600 
    204 H204        0.5097  -28.6987  -48.9003 H         1 UNK         0.0600 
    205 H205       -2.0217  -26.6653  -48.7027 H         1 UNK         0.3000 
    206 H206       -4.6144  -27.4986  -49.1110 H         1 UNK         0.0600 
    207 H207       -3.9603  -29.4799  -50.3997 H         1 UNK         0.0600 
    208 H208       -4.4874  -28.2859  -51.5607 H         1 UNK         0.0600 
    209 H209       -2.7674  -28.5669  -51.3231 H         1 UNK         0.0600 
    210 H210       -4.9693  -25.2776  -48.9408 H         1 UNK         0.3000 
    211 H211       -4.9420  -23.7841  -51.3306 H         1 UNK         0.0600 
    212 H212       -3.1623  -22.6088  -49.1111 H         1 UNK         0.0600 
    213 H213       -3.5247  -21.8873  -50.6663 H         1 UNK         0.0600 
    214 H214       -2.5192  -23.3163  -50.5927 H         1 UNK         0.0600 
    215 H215       -5.9510  -21.5716  -50.8463 H         1 UNK         0.3000 
    216 H216       -7.1446  -21.0213  -48.3336 H         1 UNK         0.0600 
    217 H217       -9.5685  -21.2605  -49.0466 H         1 UNK         0.0600 
    218 H218       -8.7725  -22.8091  -48.8416 H         1 UNK         0.0600 
    219 H219       -9.0464  -22.1704  -50.4596 H         1 UNK         0.0600 
    220 H220       -7.7718  -20.6882  -51.8710 H         1 UNK         0.3000 
    221 H221       -6.8717  -17.9683  -51.9508 H         1 UNK         0.0600 
    222 H222       -9.8514  -18.5795  -52.4456 H         1 UNK         0.0600 
    223 H223       -9.2178  -17.5488  -51.1633 H         1 UNK         0.0600 
    224 H224       -9.0520  -17.0625  -52.8423 H         1 UNK         0.0600 
    225 H225       -6.5095  -17.3751  -54.1127 H         1 UNK         0.3000 
    226 H226       -5.7564  -17.6299  -56.1641 H         1 UNK         0.0600 
    227 H227       -8.2097  -18.0369  -56.7013 H         1 UNK         0.0600 
    228 H228       -7.1134  -18.7703  -57.8532 H         1 UNK         0.0600 
    229 H229       -7.9015  -19.7703  -56.6408 H         1 UNK         0.0600 
    230 H230       -5.2469  -19.6476  -57.9159 H         1 UNK         0.3000 
    231 H231       -3.6844  -21.1148  -58.4974 H         1 UNK         0.0600 
    232 H232       -3.7823  -23.3435  -57.3412 H         1 UNK         0.0600 
    233 H233       -5.3761  -22.7067  -57.6993 H         1 UNK         0.0600 
    234 H234       -4.7606  -22.6360  -56.0554 H         1 UNK         0.0600 
    235 H235       -2.8777  -22.3573  -55.3941 H         1 UNK         0.3000 
    236 H236       -0.1319  -21.6927  -55.4729 H         1 UNK         0.0600 
    237 H237       -1.0871  -23.6394  -54.2316 H         1 UNK         0.0600 
    238 H238       -0.1339  -22.6273  -53.1617 H         1 UNK         0.0600 
    239 H239       -1.8906  -22.5450  -53.1054 H         1 UNK         0.0600 
    240 H240       -2.8888  -19.8922  -54.1827 H         1 UNK         0.3000 
    241 H241       -1.2602  -18.0095  -52.6632 H         1 UNK         0.0600 
    242 H242       -1.6338  -18.2997  -56.0627 H         1 UNK         0.3800 
    243 H243       -1.3704  -16.6115  -56.4180 H         1 UNK         0.3800 
    244 H244       -3.3375  -16.8428  -52.1688 H         1 UNK         0.0800 
    245 H245       -4.1913  -17.6963  -53.4236 H         1 UNK         0.0800 
    246 H246       -3.6004  -19.1002  -49.1174 H         1 UNK         0.0800 
    247 H247       -3.7131  -17.4672  -49.7279 H         1 UNK         0.0800 
@<TRIPOS>BOND
     1    1    2 1    
     2    1  127 1    
     3    1  128 1    
     4    1  129 1    
     5    2    3 2    
     6    2    4 am   BACKBONE|DICT|INTERRES
     7    4    5 1    
     8    4  130 1    
     9    5    6 1    
    10    5   65 1    
    11    5  131 1    
    12    6    7 1    
    13    6  132 1    
    14    6  133 1    
    15    7    8 1    
    16    8    9 1    
    17    8  134 1    
    18    8  135 1    
    19    9   10 ar   
    20    9   14 ar   
    21   10   11 ar   
    22   10  136 1    
    23   11   12 ar   
    24   11  126 1    
    25   12   13 ar   
    26   12  137 1    
    27   13   14 ar   
    28   13   15 1    
    29   14  138 1    
    30   15   16 1    
    31   15  139 1    
    32   15  140 1    
    33   16   17 1    
    34   17   18 1    
    35   17  141 1    
    36   17  142 1    
    37   18   19 1    
    38   18   67 1    
    39   18  143 1    
    40   19   20 am   BACKBONE|DICT|INTERRES
    41   19  144 1    
    42   20   21 2    
    43   20   22 1    
    44   22   23 1    
    45   22   24 1    
    46   22  145 1    
    47   23  146 1    
    48   23  147 1    
    49   23  148 1    
    50   24   25 am   BACKBONE|DICT|INTERRES
    51   24  149 1    
    52   25   26 2    
    53   25   27 1    
    54   27   28 1    
    55   27   29 1    
    56   27  150 1    
    57   28  151 1    
    58   28  152 1    
    59   28  153 1    
    60   29   30 am   BACKBONE|DICT|INTERRES
    61   29  154 1    
    62   30   31 2    
    63   30   32 1    
    64   32   33 1    
    65   32   34 1    
    66   32  155 1    
    67   33  156 1    
    68   33  157 1    
    69   33  158 1    
    70   34   35 am   BACKBONE|DICT|INTERRES
    71   34  159 1    
    72   35   36 2    
    73   35   37 1    
    74   37   38 1    
    75   37   39 1    
    76   37  160 1    
    77   38  161 1    
    78   38  162 1    
    79   38  163 1    
    80   39   40 am   BACKBONE|DICT|INTERRES
    81   39  164 1    
    82   40   41 2    
    83   40   42 1    
    84   42   43 1    
    85   42   44 1    
    86   42  165 1    
    87   43  166 1    
    88   43  167 1    
    89   43  168 1    
    90   44   45 am   BACKBONE|DICT|INTERRES
    91   44  169 1    
    92   45   46 2    
    93   45   47 1    
    94   47   48 1    
    95   47   49 1    
    96   47  170 1    
    97   48  171 1    
    98   48  172 1    
    99   48  173 1    
   100   49   50 am   BACKBONE|DICT|INTERRES
   101   49  174 1    
   102   50   51 2    
   103   50   52 1    
   104   52   53 1    
   105   52   54 1    
   106   52  175 1    
   107   53  176 1    
   108   53  177 1    
   109   53  178 1    
   110   54   55 am   BACKBONE|DICT|INTERRES
   111   54  179 1    
   112   55   56 2    
   113   55   57 1    
   114   57   58 1    
   115   57   59 1    
   116   57  180 1    
   117   58  181 1    
   118   58  182 1    
   119   58  183 1    
   120   59   60 am   BACKBONE|DICT|INTERRES
   121   59  184 1    
   122   60   61 2    
   123   60   62 1    
   124   62   63 1    
   125   62   64 1    
   126   62  185 1    
   127   63  186 1    
   128   63  187 1    
   129   63  188 1    
   130   64   65 am   BACKBONE|DICT|INTERRES
   131   64  189 1    
   132   65   66 2    
   133   67   68 2    
   134   67   69 am   BACKBONE|DICT|INTERRES
   135   69   70 1    
   136   69  190 1    
   137   70   71 1    
   138   70   72 1    
   139   70  191 1    
   140   71  192 1    
   141   71  193 1    
   142   71  194 1    
   143   72   73 2    
   144   72   74 am   BACKBONE|DICT|INTERRES
   145   74   75 1    
   146   74  195 1    
   147   75   76 1    
   148   75   77 1    
   149   75  196 1    
   150   76  197 1    
   151   76  198 1    
   152   76  199 1    
   153   77   78 2    
   154   77   79 am   BACKBONE|DICT|INTERRES
   155   79   80 1    
   156   79  200 1    
   157   80   81 1    
   158   80   82 1    
   159   80  201 1    
   160   81  202 1    
   161   81  203 1    
   162   81  204 1    
   163   82   83 2    
   164   82   84 am   BACKBONE|DICT|INTERRES
   165   84   85 1    
   166   84  205 1    
   167   85   86 1    
   168   85   87 1    
   169   85  206 1    
   170   86  207 1    
   171   86  208 1    
   172   86  209 1    
   173   87   88 2    
   174   87   89 am   BACKBONE|DICT|INTERRES
   175   89   90 1    
   176   89  210 1    
   177   90   91 1    
   178   90   92 1    
   179   90  211 1    
   180   91  212 1    
   181   91  213 1    
   182   91  214 1    
   183   92   93 2    
   184   92   94 am   BACKBONE|DICT|INTERRES
   185   94   95 1    
   186   94  215 1    
   187   95   96 1    
   188   95   97 1    
   189   95  216 1    
   190   96  217 1    
   191   96  218 1    
   192   96  219 1    
   193   97   98 2    
   194   97   99 am   BACKBONE|DICT|INTERRES
   195   99  100 1    
   196   99  220 1    
   197  100  101 1    
   198  100  102 1    
   199  100  221 1    
   200  101  222 1    
   201  101  223 1    
   202  101  224 1    
   203  102  103 2    
   204  102  104 am   BACKBONE|DICT|INTERRES
   205  104  105 1    
   206  104  225 1    
   207  105  106 1    
   208  105  107 1    
   209  105  226 1    
   210  106  227 1    
   211  106  228 1    
   212  106  229 1    
   213  107  108 2    
   214  107  109 am   BACKBONE|DICT|INTERRES
   215  109  110 1    
   216  109  230 1    
   217  110  111 1    
   218  110  112 1    
   219  110  231 1    
   220  111  232 1    
   221  111  233 1    
   222  111  234 1    
   223  112  113 2    
   224  112  114 am   BACKBONE|DICT|INTERRES
   225  114  115 1    
   226  114  235 1    
   227  115  116 1    
   228  115  117 1    
   229  115  236 1    
   230  116  237 1    
   231  116  238 1    
   232  116  239 1    
   233  117  118 2    
   234  117  119 am   BACKBONE|DICT|INTERRES
   235  119  120 1    
   236  119  240 1    
   237  120  121 1    
   238  120  124 1    
   239  120  241 1    
   240  121  122 am   BACKBONE|DICT|INTERRES
   241  121  123 2    
   242  122  242 1    
   243  122  243 1    
   244  124  125 1    
   245  124  244 1    
   246  124  245 1    
   247  125  126 1    
   248  126  246 1    
   249  126  247 1    
@<TRIPOS>SUBSTRUCTURE
     1 UNK         1 GROUP             0       ****    0 ROOT    
