@<TRIPOS>MOLECULE
3R540
247   249    1
SMALL
USER_CHARGES


@<TRIPOS>ATOM
      1 CA          0.8627  -13.5368  -54.2793 C.3       0 UNK        -0.1800 
      2 C           1.1806  -13.5111  -52.7907 C.2       0 UNK         0.5000 
      3 O           1.6245  -12.4841  -52.2762 O.2       0 UNK        -0.5000 
      4 N           0.9623  -14.6354  -52.1010 N.am      1 UNK        -0.5000 
      5 CA          1.1166  -14.7788  -50.6533 C.3       1 UNK         0.1400 
      6 C6          1.2382  -16.2711  -50.2465 C.3       23 UNK        -0.0398 
      7 S7          2.2928  -16.5199  -48.7775 S.3       23 UNK        -0.2404 
      8 C8          3.8632  -17.0618  -49.5304 C.3       23 UNK        -0.0205 
      9 C9          3.8077  -18.5055  -50.0143 C.ar      23 UNK        -0.0193 
     10 C10         3.5506  -18.7950  -51.3576 C.ar      23 UNK        -0.1150 
     11 C11         3.4835  -20.1191  -51.8005 C.ar      23 UNK        -0.0193 
     12 C12         3.7040  -21.1582  -50.8929 C.ar      23 UNK        -0.1150 
     13 C13         3.9820  -20.8874  -49.5501 C.ar      23 UNK        -0.0193 
     14 C14         4.0346  -19.5553  -49.1194 C.ar      23 UNK        -0.1150 
     15 C15         4.2629  -22.0461  -48.5967 C.3       23 UNK        -0.0205 
     16 S16         3.5325  -21.8388  -46.9407 S.3       23 UNK        -0.2404 
     17 C17         1.7437  -21.9314  -47.2878 C.3       23 UNK        -0.0398 
     18 CA          1.0384  -23.0232  -46.4481 C.3       11 UNK         0.1400 
     19 N           1.2739  -22.8572  -45.0114 N.am      11 UNK        -0.5000 
     20 C           1.0087  -23.7542  -44.0545 C.2       10 UNK         0.5000 
     21 O           0.5681  -24.8803  -44.2885 O.2       10 UNK        -0.5000 
     22 CA          1.2107  -23.2901  -42.5950 C.3       10 UNK         0.1400 
     23 CB          1.7133  -24.4203  -41.6737 C.3       10 UNK        -0.1800 
     24 N           2.0339  -22.0799  -42.4653 N.am      10 UNK        -0.5000 
     25 C           3.3431  -21.9359  -42.7247 C.2       9 UNK         0.5000 
     26 O           4.0788  -22.8605  -43.0705 O.2       9 UNK        -0.5000 
     27 CA          3.9358  -20.5159  -42.5999 C.3       9 UNK         0.1400 
     28 CB          4.3385  -19.9728  -43.9790 C.3       9 UNK        -0.1800 
     29 N           3.0266  -19.5549  -41.9726 N.am      9 UNK        -0.5000 
     30 C           2.8044  -19.4627  -40.6554 C.2       8 UNK         0.5000 
     31 O           3.3697  -20.1633  -39.8151 O.2       8 UNK        -0.5000 
     32 CA          1.7530  -18.4322  -40.2044 C.3       8 UNK         0.1400 
     33 CB          2.3767  -17.0317  -40.1070 C.3       8 UNK        -0.1800 
     34 N           0.5756  -18.3854  -41.0759 N.am      8 UNK        -0.5000 
     35 C          -0.2870  -19.3979  -41.2479 C.2       7 UNK         0.5000 
     36 O          -0.1728  -20.4948  -40.7009 O.2       7 UNK        -0.5000 
     37 CA         -1.4556  -19.1624  -42.2206 C.3       7 UNK         0.1400 
     38 CB         -2.5439  -18.2920  -41.5754 C.3       7 UNK        -0.1800 
     39 N          -1.0198  -18.5647  -43.4820 N.am      7 UNK        -0.5000 
     40 C          -0.2429  -19.1865  -44.3796 C.2       6 UNK         0.5000 
     41 O           0.1205  -20.3562  -44.2677 O.2       6 UNK        -0.5000 
     42 CA          0.2329  -18.3681  -45.5918 C.3       6 UNK         0.1400 
     43 CB         -0.8264  -18.3720  -46.7048 C.3       6 UNK        -0.1800 
     44 N           0.5797  -16.9937  -45.2396 N.am      6 UNK        -0.5000 
     45 C           1.5577  -16.6492  -44.3901 C.2       5 UNK         0.5000 
     46 O           2.2974  -17.4557  -43.8275 O.2       5 UNK        -0.5000 
     47 CA          1.6874  -15.1535  -44.0661 C.3       5 UNK         0.1400 
     48 CB          2.3914  -14.4017  -45.2062 C.3       5 UNK        -0.1800 
     49 N           0.3848  -14.5460  -43.7900 N.am      5 UNK        -0.5000 
     50 C          -0.3652  -14.8263  -42.7140 C.2       4 UNK         0.5000 
     51 O          -0.0235  -15.6066  -41.8260 O.2       4 UNK        -0.5000 
     52 CA         -1.7446  -14.1484  -42.6341 C.3       4 UNK         0.1400 
     53 CB         -1.6187  -12.7293  -42.0604 C.3       4 UNK        -0.1800 
     54 N          -2.4181  -14.0899  -43.9313 N.am      4 UNK        -0.5000 
     55 C          -2.8689  -15.1611  -44.5998 C.2       3 UNK         0.5000 
     56 O          -2.7892  -16.3146  -44.1802 O.2       3 UNK        -0.5000 
     57 CA         -3.4575  -14.8971  -45.9982 C.3       3 UNK         0.1400 
     58 CB         -4.9261  -14.4608  -45.8932 C.3       3 UNK        -0.1800 
     59 N          -2.7045  -13.8942  -46.7589 N.am      3 UNK        -0.5000 
     60 C          -1.4166  -14.0234  -47.1009 C.2       2 UNK         0.5000 
     61 O          -0.7144  -14.9789  -46.7643 O.2       2 UNK        -0.5000 
     62 CA         -0.7910  -12.8786  -47.9146 C.3       2 UNK         0.1400 
     63 CB         -0.1479  -11.8422  -46.9805 C.3       2 UNK        -0.1800 
     64 N           0.2266  -13.4060  -48.8222 N.am      2 UNK        -0.5000 
     65 C          -0.0621  -14.0953  -49.9321 C.2       1 UNK         0.5000 
     66 O          -1.2067  -14.2216  -50.3760 O.2       1 UNK        -0.5000 
     67 C          -0.4697  -23.0461  -46.7659 C.2       11 UNK         0.5000 
     68 O          -0.8733  -23.7126  -47.7181 O.2       11 UNK        -0.5000 
     69 N          -1.2753  -22.3691  -45.9298 N.am      12 UNK        -0.5000 
     70 CA         -2.7384  -22.2996  -45.9980 C.3       12 UNK         0.1400 
     71 CB         -3.2582  -21.4312  -44.8432 C.3       12 UNK        -0.1800 
     72 C          -3.4448  -23.6705  -45.9952 C.2       12 UNK         0.5000 
     73 O          -4.5360  -23.7890  -46.5524 O.2       12 UNK        -0.5000 
     74 N          -2.8053  -24.6802  -45.3874 N.am      13 UNK        -0.5000 
     75 CA         -3.2626  -26.0688  -45.3760 C.3       13 UNK         0.1400 
     76 CB         -2.4993  -26.8348  -44.2848 C.3       13 UNK        -0.1800 
     77 C          -3.1038  -26.7711  -46.7398 C.2       13 UNK         0.5000 
     78 O          -3.8596  -27.7014  -47.0235 O.2       13 UNK        -0.5000 
     79 N          -2.1365  -26.3265  -47.5550 N.am      14 UNK        -0.5000 
     80 CA         -1.9063  -26.8244  -48.9101 C.3       14 UNK         0.1400 
     81 CB         -0.4135  -26.7146  -49.2619 C.3       14 UNK        -0.1800 
     82 C          -2.7747  -26.0617  -49.9228 C.2       14 UNK         0.5000 
     83 O          -3.4379  -26.6933  -50.7465 O.2       14 UNK        -0.5000 
     84 N          -2.7832  -24.7264  -49.8258 N.am      15 UNK        -0.5000 
     85 CA         -3.6168  -23.8366  -50.6271 C.3       15 UNK         0.1400 
     86 CB         -3.0075  -23.6332  -52.0236 C.3       15 UNK        -0.1800 
     87 C          -3.7682  -22.5050  -49.8832 C.2       15 UNK         0.5000 
     88 O          -2.7744  -21.9600  -49.4049 O.2       15 UNK        -0.5000 
     89 N          -5.0092  -22.0108  -49.7951 N.am      16 UNK        -0.5000 
     90 CA         -5.4171  -20.8646  -48.9759 C.3       16 UNK         0.1400 
     91 CB         -6.9526  -20.7882  -48.9842 C.3       16 UNK        -0.1800 
     92 C          -4.8242  -19.4988  -49.3784 C.2       16 UNK         0.5000 
     93 O          -4.9051  -18.5635  -48.5817 O.2       16 UNK        -0.5000 
     94 N          -4.2931  -19.3859  -50.6043 N.am      17 UNK        -0.5000 
     95 CA         -3.6829  -18.2108  -51.2449 C.3       17 UNK         0.1400 
     96 CB         -2.4456  -17.7273  -50.4656 C.3       17 UNK        -0.1800 
     97 C          -4.6430  -17.0400  -51.5452 C.2       17 UNK         0.5000 
     98 O          -4.5088  -16.4044  -52.5908 O.2       17 UNK        -0.5000 
     99 N          -5.6017  -16.7782  -50.6494 N.am      18 UNK        -0.5000 
    100 CA        -6.6011  -15.7140  -50.7611 C.3       18 UNK         0.1400 
    101 CB        -7.3165  -15.5656  -49.4100 C.3       18 UNK        -0.1800 
    102 C         -7.6280  -15.9488  -51.8860 C.2       18 UNK         0.5000 
    103 O         -8.1309  -14.9820  -52.4600 O.2       18 UNK        -0.5000 
    104 N         -7.9195  -17.2219  -52.1757 N.am      19 UNK        -0.5000 
    105 CA        -8.8647  -17.6670  -53.1986 C.3       19 UNK         0.1400 
    106 CB       -10.3087  -17.5672  -52.6657 C.3       19 UNK        -0.1800 
    107 C         -8.4874  -19.0838  -53.6655 C.2       19 UNK         0.5000 
    108 O         -9.3550  -19.9489  -53.7970 O.2       19 UNK        -0.5000 
    109 N         -7.1857  -19.3071  -53.8740 N.am      20 UNK        -0.5000 
    110 CA        -6.5871  -20.5792  -54.2664 C.3       20 UNK         0.1400 
    111 CB        -6.5108  -21.5173  -53.0434 C.3       20 UNK        -0.1800 
    112 C         -5.1977  -20.3076  -54.8670 C.2       20 UNK         0.5000 
    113 O         -4.8177  -19.1444  -55.0385 O.2       20 UNK        -0.5000 
    114 N         -4.4530  -21.3839  -55.1567 N.am      21 UNK        -0.5000 
    115 CA        -3.0495  -21.3464  -55.5774 C.3       21 UNK         0.1400 
    116 CB        -2.5578  -22.7808  -55.8246 C.3       21 UNK        -0.1800 
    117 C         -2.1525  -20.6328  -54.5458 C.2       21 UNK         0.5000 
    118 O         -2.4377  -20.6876  -53.3481 O.2       21 UNK        -0.5000 
    119 N         -1.1118  -19.9566  -55.0449 N.am      22 UNK        -0.5000 
    120 CA        -0.2409  -19.0258  -54.3010 C.3       22 UNK         0.1400 
    121 C         -0.9126  -17.6650  -53.9445 C.2       22 UNK         0.5000 
    122 N         -2.1335  -17.3778  -54.3791 N.am      22 UNK        -0.7600 
    123 O         -0.2986  -16.8349  -53.2827 O.2       22 UNK        -0.5000 
    124 C124        0.4662  -19.6546  -53.0653 C.3       23 UNK        -0.0398 
    125 S125        1.5009  -21.0984  -53.4877 S.3       23 UNK        -0.2404 
    126 C126        3.1817  -20.4306  -53.2605 C.3       23 UNK        -0.0205 
    127 H127        0.1010  -12.7929  -54.5128 H         1 UNK         0.0600 
    128 H128        0.4936  -14.5120  -54.5982 H         1 UNK         0.0600 
    129 H129        1.7567  -13.3061  -54.8587 H         1 UNK         0.0600 
    130 H130        0.5275  -15.4293  -52.5718 H         1 UNK         0.3000 
    131 H131        2.0409  -14.2652  -50.3787 H         1 UNK         0.0600 
    132 H132        0.2631  -16.7200  -50.0531 H         1 UNK         0.0800 
    133 H133        1.6508  -16.8494  -51.0706 H         1 UNK         0.0800 
    134 H134        4.6573  -16.9604  -48.7892 H         1 UNK         0.0800 
    135 H135        4.1275  -16.3906  -50.3492 H         1 UNK         0.0800 
    136 H136        3.3951  -17.9886  -52.0601 H         1 UNK         0.1150 
    137 H137        3.6618  -22.1815  -51.2394 H         1 UNK         0.1150 
    138 H138        4.2533  -19.3308  -48.0850 H         1 UNK         0.1150 
    139 H139        3.9085  -22.9887  -49.0172 H         1 UNK         0.0800 
    140 H140        5.3435  -22.1447  -48.4879 H         1 UNK         0.0800 
    141 H141        1.5906  -22.1177  -48.3525 H         1 UNK         0.0800 
    142 H142        1.3126  -20.9497  -47.0883 H         1 UNK         0.0800 
    143 H143        1.4462  -23.9932  -46.7405 H         1 UNK         0.0600 
    144 H144        1.5547  -21.9322  -44.7136 H         1 UNK         0.3000 
    145 H145        0.2194  -23.0027  -42.2417 H         1 UNK         0.0600 
    146 H146        1.8448  -24.0661  -40.6513 H         1 UNK         0.0600 
    147 H147        0.9987  -25.2435  -41.6412 H         1 UNK         0.0600 
    148 H148        2.6642  -24.8308  -42.0137 H         1 UNK         0.0600 
    149 H149        1.5241  -21.2492  -42.1930 H         1 UNK         0.3000 
    150 H150        4.8388  -20.5936  -41.9910 H         1 UNK         0.0600 
    151 H151        5.0446  -20.6398  -44.4750 H         1 UNK         0.0600 
    152 H152        4.8184  -18.9977  -43.8945 H         1 UNK         0.0600 
    153 H153        3.4724  -19.8617  -44.6325 H         1 UNK         0.0600 
    154 H154        2.5667  -18.8949  -42.5957 H         1 UNK         0.3000 
    155 H155        1.4153  -18.7217  -39.2072 H         1 UNK         0.0600 
    156 H156        3.2547  -17.0373  -39.4599 H         1 UNK         0.0600 
    157 H157        1.6701  -16.3145  -39.6893 H         1 UNK         0.0600 
    158 H158        2.6895  -16.6624  -41.0844 H         1 UNK         0.0600 
    159 H159        0.3953  -17.5004  -41.5415 H         1 UNK         0.3000 
    160 H160       -1.8967  -20.1353  -42.4439 H         1 UNK         0.0600 
    161 H161       -2.1857  -17.2835  -41.3683 H         1 UNK         0.0600 
    162 H162       -2.8808  -18.7223  -40.6316 H         1 UNK         0.0600 
    163 H163       -3.4159  -18.2100  -42.2243 H         1 UNK         0.0600 
    164 H164       -1.3445  -17.6234  -43.6779 H         1 UNK         0.3000 
    165 H165        1.1371  -18.8420  -45.9781 H         1 UNK         0.0600 
    166 H166       -0.4657  -17.8525  -47.5930 H         1 UNK         0.0600 
    167 H167       -1.0798  -19.3902  -47.0035 H         1 UNK         0.0600 
    168 H168       -1.7477  -17.8836  -46.3854 H         1 UNK         0.0600 
    169 H169        0.0416  -16.2574  -45.6927 H         1 UNK         0.3000 
    170 H170        2.3022  -15.0576  -43.1686 H         1 UNK         0.0600 
    171 H171        3.3837  -14.8166  -45.3877 H         1 UNK         0.0600 
    172 H172        1.8375  -14.4698  -46.1425 H         1 UNK         0.0600 
    173 H173        2.5199  -13.3468  -44.9643 H         1 UNK         0.0600 
    174 H174        0.0033  -13.9437  -44.5028 H         1 UNK         0.3000 
    175 H175       -2.3656  -14.7368  -41.9552 H         1 UNK         0.0600 
    176 H176       -1.1331  -12.7456  -41.0837 H         1 UNK         0.0600 
    177 H177       -1.0288  -12.0811  -42.7096 H         1 UNK         0.0600 
    178 H178       -2.5983  -12.2698  -41.9270 H         1 UNK         0.0600 
    179 H179       -2.5221  -13.1794  -44.3536 H         1 UNK         0.3000 
    180 H180       -3.4185  -15.8350  -46.5569 H         1 UNK         0.0600 
    181 H181       -5.0326  -13.5290  -45.3365 H         1 UNK         0.0600 
    182 H182       -5.5220  -15.2190  -45.3832 H         1 UNK         0.0600 
    183 H183       -5.3647  -14.3121  -46.8792 H         1 UNK         0.0600 
    184 H184       -3.2163  -13.0777  -47.0607 H         1 UNK         0.3000 
    185 H185       -1.5711  -12.3866  -48.4996 H         1 UNK         0.0600 
    186 H186       -0.8866  -11.4160  -46.3005 H         1 UNK         0.0600 
    187 H187        0.6442  -12.2786  -46.3722 H         1 UNK         0.0600 
    188 H188        0.2833  -11.0168  -47.5474 H         1 UNK         0.0600 
    189 H189        1.1800  -13.3824  -48.4923 H         1 UNK         0.3000 
    190 H190       -0.8337  -21.8331  -45.1894 H         1 UNK         0.3000 
    191 H191       -2.9980  -21.7969  -46.9271 H         1 UNK         0.0600 
    192 H192       -2.9522  -21.8275  -43.8745 H         1 UNK         0.0600 
    193 H193       -4.3479  -21.3813  -44.8491 H         1 UNK         0.0600 
    194 H194       -2.8933  -20.4079  -44.9241 H         1 UNK         0.0600 
    195 H195       -1.9055  -24.4984  -44.9649 H         1 UNK         0.3000 
    196 H196       -4.3242  -26.0784  -45.1200 H         1 UNK         0.0600 
    197 H197       -2.8437  -27.8677  -44.2191 H         1 UNK         0.0600 
    198 H198       -2.6475  -26.3802  -43.3051 H         1 UNK         0.0600 
    199 H199       -1.4274  -26.8584  -44.4852 H         1 UNK         0.0600 
    200 H200       -1.6029  -25.5074  -47.2858 H         1 UNK         0.3000 
    201 H201       -2.1781  -27.8811  -48.9593 H         1 UNK         0.0600 
    202 H202        0.1998  -27.2672  -48.5502 H         1 UNK         0.0600 
    203 H203       -0.0673  -25.6811  -49.2697 H         1 UNK         0.0600 
    204 H204       -0.2182  -27.1301  -50.2512 H         1 UNK         0.0600 
    205 H205       -2.2068  -24.2656  -49.1250 H         1 UNK         0.3000 
    206 H206       -4.6049  -24.2889  -50.7362 H         1 UNK         0.0600 
    207 H207       -2.9093  -24.5764  -52.5605 H         1 UNK         0.0600 
    208 H208       -3.6403  -22.9826  -52.6267 H         1 UNK         0.0600 
    209 H209       -2.0196  -23.1736  -51.9679 H         1 UNK         0.0600 
    210 H210       -5.7625  -22.5286  -50.2235 H         1 UNK         0.3000 
    211 H211       -5.0941  -21.0608  -47.9518 H         1 UNK         0.0600 
    212 H212       -7.3103  -19.9727  -48.3538 H         1 UNK         0.0600 
    213 H213       -7.3957  -21.7074  -48.6002 H         1 UNK         0.0600 
    214 H214       -7.3421  -20.6205  -49.9892 H         1 UNK         0.0600 
    215 H215       -4.2592  -20.2266  -51.1629 H         1 UNK         0.3000 
    216 H216       -3.3371  -18.5651  -52.2141 H         1 UNK         0.0600 
    217 H217       -1.9549  -16.9109  -50.9963 H         1 UNK         0.0600 
    218 H218       -1.7150  -18.5282  -50.3513 H         1 UNK         0.0600 
    219 H219       -2.7008  -17.3579  -49.4720 H         1 UNK         0.0600 
    220 H220       -5.5939  -17.3239  -49.7916 H         1 UNK         0.3000 
    221 H221       -6.0777  -14.7805  -50.9781 H         1 UNK         0.0600 
    222 H222       -7.8528  -16.4754  -49.1368 H         1 UNK         0.0600 
    223 H223       -6.6086  -15.3439  -48.6125 H         1 UNK         0.0600 
    224 H224       -8.0416  -14.7512  -49.4379 H         1 UNK         0.0600 
    225 H225       -7.4480  -17.9527  -51.6620 H         1 UNK         0.3000 
    226 H226       -8.7735  -17.0198  -54.0733 H         1 UNK         0.0600 
    227 H227      -10.5592  -16.5444  -52.3841 H         1 UNK         0.0600 
    228 H228      -11.0297  -17.8763  -53.4234 H         1 UNK         0.0600 
    229 H229      -10.4559  -18.2007  -51.7903 H         1 UNK         0.0600 
    230 H230       -6.5299  -18.5352  -53.8427 H         1 UNK         0.3000 
    231 H231       -7.2005  -21.0389  -55.0439 H         1 UNK         0.0600 
    232 H232       -7.4903  -21.6653  -52.5888 H         1 UNK         0.0600 
    233 H233       -5.8480  -21.1112  -52.2815 H         1 UNK         0.0600 
    234 H234       -6.1382  -22.5048  -53.3160 H         1 UNK         0.0600 
    235 H235       -4.8366  -22.3000  -54.9801 H         1 UNK         0.3000 
    236 H236       -3.0038  -20.7949  -56.5188 H         1 UNK         0.0600 
    237 H237       -1.5223  -22.7853  -56.1674 H         1 UNK         0.0600 
    238 H238       -2.6035  -23.3852  -54.9186 H         1 UNK         0.0600 
    239 H239       -3.1543  -23.2770  -56.5903 H         1 UNK         0.0600 
    240 H240       -0.9546  -19.9806  -56.0422 H         1 UNK         0.3000 
    241 H241        0.5445  -18.7539  -55.0069 H         1 UNK         0.0600 
    242 H242       -2.5599  -16.5052  -54.1074 H         1 UNK         0.3800 
    243 H243       -2.6839  -18.0537  -54.8873 H         1 UNK         0.3800 
    244 H244        1.0896  -18.9093  -52.5740 H         1 UNK         0.0800 
    245 H245       -0.2577  -19.9584  -52.3089 H         1 UNK         0.0800 
    246 H246        3.9036  -21.1619  -53.6268 H         1 UNK         0.0800 
    247 H247        3.3052  -19.5428  -53.8827 H         1 UNK         0.0800 
@<TRIPOS>BOND
     1    1    2 1    
     2    1  127 1    
     3    1  128 1    
     4    1  129 1    
     5    2    3 2    
     6    2    4 am   BACKBONE|DICT|INTERRES
     7    4    5 1    
     8    4  130 1    
     9    5    6 1    
    10    5   65 1    
    11    5  131 1    
    12    6    7 1    
    13    6  132 1    
    14    6  133 1    
    15    7    8 1    
    16    8    9 1    
    17    8  134 1    
    18    8  135 1    
    19    9   10 ar   
    20    9   14 ar   
    21   10   11 ar   
    22   10  136 1    
    23   11   12 ar   
    24   11  126 1    
    25   12   13 ar   
    26   12  137 1    
    27   13   14 ar   
    28   13   15 1    
    29   14  138 1    
    30   15   16 1    
    31   15  139 1    
    32   15  140 1    
    33   16   17 1    
    34   17   18 1    
    35   17  141 1    
    36   17  142 1    
    37   18   19 1    
    38   18   67 1    
    39   18  143 1    
    40   19   20 am   BACKBONE|DICT|INTERRES
    41   19  144 1    
    42   20   21 2    
    43   20   22 1    
    44   22   23 1    
    45   22   24 1    
    46   22  145 1    
    47   23  146 1    
    48   23  147 1    
    49   23  148 1    
    50   24   25 am   BACKBONE|DICT|INTERRES
    51   24  149 1    
    52   25   26 2    
    53   25   27 1    
    54   27   28 1    
    55   27   29 1    
    56   27  150 1    
    57   28  151 1    
    58   28  152 1    
    59   28  153 1    
    60   29   30 am   BACKBONE|DICT|INTERRES
    61   29  154 1    
    62   30   31 2    
    63   30   32 1    
    64   32   33 1    
    65   32   34 1    
    66   32  155 1    
    67   33  156 1    
    68   33  157 1    
    69   33  158 1    
    70   34   35 am   BACKBONE|DICT|INTERRES
    71   34  159 1    
    72   35   36 2    
    73   35   37 1    
    74   37   38 1    
    75   37   39 1    
    76   37  160 1    
    77   38  161 1    
    78   38  162 1    
    79   38  163 1    
    80   39   40 am   BACKBONE|DICT|INTERRES
    81   39  164 1    
    82   40   41 2    
    83   40   42 1    
    84   42   43 1    
    85   42   44 1    
    86   42  165 1    
    87   43  166 1    
    88   43  167 1    
    89   43  168 1    
    90   44   45 am   BACKBONE|DICT|INTERRES
    91   44  169 1    
    92   45   46 2    
    93   45   47 1    
    94   47   48 1    
    95   47   49 1    
    96   47  170 1    
    97   48  171 1    
    98   48  172 1    
    99   48  173 1    
   100   49   50 am   BACKBONE|DICT|INTERRES
   101   49  174 1    
   102   50   51 2    
   103   50   52 1    
   104   52   53 1    
   105   52   54 1    
   106   52  175 1    
   107   53  176 1    
   108   53  177 1    
   109   53  178 1    
   110   54   55 am   BACKBONE|DICT|INTERRES
   111   54  179 1    
   112   55   56 2    
   113   55   57 1    
   114   57   58 1    
   115   57   59 1    
   116   57  180 1    
   117   58  181 1    
   118   58  182 1    
   119   58  183 1    
   120   59   60 am   BACKBONE|DICT|INTERRES
   121   59  184 1    
   122   60   61 2    
   123   60   62 1    
   124   62   63 1    
   125   62   64 1    
   126   62  185 1    
   127   63  186 1    
   128   63  187 1    
   129   63  188 1    
   130   64   65 am   BACKBONE|DICT|INTERRES
   131   64  189 1    
   132   65   66 2    
   133   67   68 2    
   134   67   69 am   BACKBONE|DICT|INTERRES
   135   69   70 1    
   136   69  190 1    
   137   70   71 1    
   138   70   72 1    
   139   70  191 1    
   140   71  192 1    
   141   71  193 1    
   142   71  194 1    
   143   72   73 2    
   144   72   74 am   BACKBONE|DICT|INTERRES
   145   74   75 1    
   146   74  195 1    
   147   75   76 1    
   148   75   77 1    
   149   75  196 1    
   150   76  197 1    
   151   76  198 1    
   152   76  199 1    
   153   77   78 2    
   154   77   79 am   BACKBONE|DICT|INTERRES
   155   79   80 1    
   156   79  200 1    
   157   80   81 1    
   158   80   82 1    
   159   80  201 1    
   160   81  202 1    
   161   81  203 1    
   162   81  204 1    
   163   82   83 2    
   164   82   84 am   BACKBONE|DICT|INTERRES
   165   84   85 1    
   166   84  205 1    
   167   85   86 1    
   168   85   87 1    
   169   85  206 1    
   170   86  207 1    
   171   86  208 1    
   172   86  209 1    
   173   87   88 2    
   174   87   89 am   BACKBONE|DICT|INTERRES
   175   89   90 1    
   176   89  210 1    
   177   90   91 1    
   178   90   92 1    
   179   90  211 1    
   180   91  212 1    
   181   91  213 1    
   182   91  214 1    
   183   92   93 2    
   184   92   94 am   BACKBONE|DICT|INTERRES
   185   94   95 1    
   186   94  215 1    
   187   95   96 1    
   188   95   97 1    
   189   95  216 1    
   190   96  217 1    
   191   96  218 1    
   192   96  219 1    
   193   97   98 2    
   194   97   99 am   BACKBONE|DICT|INTERRES
   195   99  100 1    
   196   99  220 1    
   197  100  101 1    
   198  100  102 1    
   199  100  221 1    
   200  101  222 1    
   201  101  223 1    
   202  101  224 1    
   203  102  103 2    
   204  102  104 am   BACKBONE|DICT|INTERRES
   205  104  105 1    
   206  104  225 1    
   207  105  106 1    
   208  105  107 1    
   209  105  226 1    
   210  106  227 1    
   211  106  228 1    
   212  106  229 1    
   213  107  108 2    
   214  107  109 am   BACKBONE|DICT|INTERRES
   215  109  110 1    
   216  109  230 1    
   217  110  111 1    
   218  110  112 1    
   219  110  231 1    
   220  111  232 1    
   221  111  233 1    
   222  111  234 1    
   223  112  113 2    
   224  112  114 am   BACKBONE|DICT|INTERRES
   225  114  115 1    
   226  114  235 1    
   227  115  116 1    
   228  115  117 1    
   229  115  236 1    
   230  116  237 1    
   231  116  238 1    
   232  116  239 1    
   233  117  118 2    
   234  117  119 am   BACKBONE|DICT|INTERRES
   235  119  120 1    
   236  119  240 1    
   237  120  121 1    
   238  120  124 1    
   239  120  241 1    
   240  121  122 am   BACKBONE|DICT|INTERRES
   241  121  123 2    
   242  122  242 1    
   243  122  243 1    
   244  124  125 1    
   245  124  244 1    
   246  124  245 1    
   247  125  126 1    
   248  126  246 1    
   249  126  247 1    
@<TRIPOS>SUBSTRUCTURE
     1 UNK         1 GROUP             0       ****    0 ROOT    
