@<TRIPOS>MOLECULE
3R540
247   249    1
SMALL
USER_CHARGES


@<TRIPOS>ATOM
      1 CA         -3.9122  -15.6615  -44.7550 C.3       0 UNK        -0.1800 
      2 C          -3.1937  -14.6063  -45.5849 C.2       0 UNK         0.5000 
      3 O          -3.8238  -13.6535  -46.0447 O.2       0 UNK        -0.5000 
      4 N          -1.8825  -14.7791  -45.7851 N.am      1 UNK        -0.5000 
      5 CA         -1.0120  -13.8615  -46.5282 C.3       1 UNK         0.1400 
      6 C6          0.3522  -14.5126  -46.8599 C.3       23 UNK        -0.0398 
      7 S7          0.1702  -16.0597  -47.8063 S.3       23 UNK        -0.2404 
      8 C8          1.4069  -15.8608  -49.1176 C.3       23 UNK        -0.0205 
      9 C9          1.5080  -17.1277  -49.9519 C.ar      23 UNK        -0.0193 
     10 C10         0.7913  -17.2500  -51.1466 C.ar      23 UNK        -0.1150 
     11 C11         0.8982  -18.4041  -51.9311 C.ar      23 UNK        -0.0193 
     12 C12         1.7348  -19.4403  -51.4990 C.ar      23 UNK        -0.1150 
     13 C13         2.4439  -19.3379  -50.2993 C.ar      23 UNK        -0.0193 
     14 C14         2.3283  -18.1774  -49.5303 C.ar      23 UNK        -0.1150 
     15 C15         3.3576  -20.4716  -49.8569 C.3       23 UNK        -0.0205 
     16 S16         2.4260  -21.9068  -49.2361 S.3       23 UNK        -0.2404 
     17 C17         1.9030  -21.3156  -47.5922 C.3       23 UNK        -0.0398 
     18 CA          0.6336  -22.0376  -47.0807 C.3       11 UNK         0.1400 
     19 N           0.5315  -21.9985  -45.6188 N.am      11 UNK        -0.5000 
     20 C          -0.3631  -22.6878  -44.8957 C.2       10 UNK         0.5000 
     21 O          -1.1630  -23.4869  -45.3810 O.2       10 UNK        -0.5000 
     22 CA         -0.4092  -22.3968  -43.3841 C.3       10 UNK         0.1400 
     23 CB          0.6903  -23.1691  -42.6405 C.3       10 UNK        -0.1800 
     24 N          -0.2998  -20.9671  -43.0897 N.am      10 UNK        -0.5000 
     25 C          -1.2094  -20.0520  -43.4548 C.2       9 UNK         0.5000 
     26 O          -2.2758  -20.3340  -44.0014 O.2       9 UNK        -0.5000 
     27 CA         -0.8460  -18.5724  -43.2261 C.3       9 UNK         0.1400 
     28 CB         -1.1645  -18.1405  -41.7879 C.3       9 UNK        -0.1800 
     29 N           0.5543  -18.2747  -43.5310 N.am      9 UNK        -0.5000 
     30 C           1.1155  -18.4091  -44.7405 C.2       8 UNK         0.5000 
     31 O           0.4952  -18.7609  -45.7397 O.2       8 UNK        -0.5000 
     32 CA          2.6335  -18.1854  -44.8390 C.3       8 UNK         0.1400 
     33 CB          2.9829  -16.6927  -44.9248 C.3       8 UNK        -0.1800 
     34 N           3.3377  -18.7978  -43.7143 N.am      8 UNK        -0.5000 
     35 C           3.4696  -20.1206  -43.5440 C.2       7 UNK         0.5000 
     36 O           3.0389  -20.9571  -44.3376 O.2       7 UNK        -0.5000 
     37 CA          4.1648  -20.5837  -42.2512 C.3       7 UNK         0.1400 
     38 CB          5.6909  -20.5727  -42.4232 C.3       7 UNK        -0.1800 
     39 N           3.7999  -19.7630  -41.0954 N.am      7 UNK        -0.5000 
     40 C           2.5758  -19.7306  -40.5504 C.2       6 UNK         0.5000 
     41 O           1.6324  -20.4139  -40.9472 O.2       6 UNK        -0.5000 
     42 CA          2.3591  -18.7275  -39.4023 C.3       6 UNK         0.1400 
     43 CB          2.8082  -19.3315  -38.0635 C.3       6 UNK        -0.1800 
     44 N           3.0391  -17.4449  -39.6129 N.am      6 UNK        -0.5000 
     45 C           2.7820  -16.6109  -40.6287 C.2       5 UNK         0.5000 
     46 O           1.9846  -16.8634  -41.5341 O.2       5 UNK        -0.5000 
     47 CA          3.5811  -15.2987  -40.6717 C.3       5 UNK         0.1400 
     48 CB          4.8445  -15.4685  -41.5293 C.3       5 UNK        -0.1800 
     49 N           2.7699  -14.2198  -41.2320 N.am      5 UNK        -0.5000 
     50 C           1.7867  -13.5864  -40.5793 C.2       4 UNK         0.5000 
     51 O           1.5135  -13.8072  -39.3977 O.2       4 UNK        -0.5000 
     52 CA          0.9557  -12.5510  -41.3720 C.3       4 UNK         0.1400 
     53 CB          0.5716  -11.3275  -40.5142 C.3       4 UNK        -0.1800 
     54 N           1.5456  -12.1197  -42.6466 N.am      4 UNK        -0.5000 
     55 C           2.6999  -11.4591  -42.8394 C.2       3 UNK         0.5000 
     56 O           3.4816  -11.1602  -41.9365 O.2       3 UNK        -0.5000 
     57 CA          3.0507  -11.0735  -44.2921 C.3       3 UNK         0.1400 
     58 CB          3.9866  -12.1268  -44.9069 C.3       3 UNK        -0.1800 
     59 N           1.8782  -10.9243  -45.1566 N.am      3 UNK        -0.5000 
     60 C           0.9325   -9.9826  -45.0242 C.2       2 UNK         0.5000 
     61 O           1.0011   -9.0561  -44.2159 O.2       2 UNK        -0.5000 
     62 CA         -0.3131  -10.1074  -45.9282 C.3       2 UNK         0.1400 
     63 CB         -0.2281   -9.1131  -47.0966 C.3       2 UNK        -0.1800 
     64 N          -0.5525  -11.4531  -46.4676 N.am      2 UNK        -0.5000 
     65 C          -0.7856  -12.5550  -45.7400 C.2       1 UNK         0.5000 
     66 O          -0.7589  -12.5772  -44.5064 O.2       1 UNK        -0.5000 
     67 C          -0.6473  -21.5073  -47.7607 C.2       11 UNK         0.5000 
     68 O          -1.1339  -22.1299  -48.7047 O.2       11 UNK        -0.5000 
     69 N          -1.2068  -20.4079  -47.2352 N.am      12 UNK        -0.5000 
     70 CA         -2.4704  -19.8261  -47.6818 C.3       12 UNK         0.1400 
     71 CB         -2.7353  -18.4948  -46.9637 C.3       12 UNK        -0.1800 
     72 C          -3.6568  -20.7851  -47.4949 C.2       12 UNK         0.5000 
     73 O          -4.4218  -20.9921  -48.4356 O.2       12 UNK        -0.5000 
     74 N          -3.7610  -21.3874  -46.3031 N.am      13 UNK        -0.5000 
     75 CA         -4.7806  -22.3818  -45.9669 C.3       13 UNK         0.1400 
     76 CB         -4.6803  -22.7230  -44.4726 C.3       13 UNK        -0.1800 
     77 C          -4.6938  -23.6597  -46.8243 C.2       13 UNK         0.5000 
     78 O          -5.7280  -24.2532  -47.1312 O.2       13 UNK        -0.5000 
     79 N          -3.4701  -24.0548  -47.1962 N.am      14 UNK        -0.5000 
     80 CA         -3.1995  -25.2039  -48.0512 C.3       14 UNK         0.1400 
     81 CB         -1.7516  -25.6742  -47.8337 C.3       14 UNK        -0.1800 
     82 C          -3.4657  -24.9115  -49.5384 C.2       14 UNK         0.5000 
     83 O          -4.2378  -25.6385  -50.1650 O.2       14 UNK        -0.5000 
     84 N          -2.7876  -23.8943  -50.0870 N.am      15 UNK        -0.5000 
     85 CA         -2.6604  -23.6909  -51.5287 C.3       15 UNK         0.1400 
     86 CB         -1.1768  -23.5153  -51.8815 C.3       15 UNK        -0.1800 
     87 C          -3.4761  -22.5049  -52.0576 C.2       15 UNK         0.5000 
     88 O          -4.0812  -22.6323  -53.1218 O.2       15 UNK        -0.5000 
     89 N          -3.4963  -21.3690  -51.3473 N.am      16 UNK        -0.5000 
     90 CA         -4.2135  -20.1723  -51.8095 C.3       16 UNK         0.1400 
     91 CB         -3.7473  -18.9201  -51.0539 C.3       16 UNK        -0.1800 
     92 C          -5.7398  -20.3444  -51.7178 C.2       16 UNK         0.5000 
     93 O          -6.4567  -19.8969  -52.6123 O.2       16 UNK        -0.5000 
     94 N          -6.1945  -21.0481  -50.6747 N.am      17 UNK        -0.5000 
     95 CA         -7.5882  -21.4110  -50.4168 C.3       17 UNK         0.1400 
     96 CB         -7.7600  -21.6084  -48.9019 C.3       17 UNK        -0.1800 
     97 C          -8.0679  -22.6575  -51.1956 C.2       17 UNK         0.5000 
     98 O          -9.2064  -23.0824  -50.9952 O.2       17 UNK        -0.5000 
     99 N          -7.2175  -23.2234  -52.0665 N.am      18 UNK        -0.5000 
    100 CA        -7.5068  -24.4049  -52.8822 C.3       18 UNK         0.1400 
    101 CB        -6.2346  -24.8755  -53.5976 C.3       18 UNK        -0.1800 
    102 C         -8.6962  -24.3255  -53.8757 C.2       18 UNK         0.5000 
    103 O         -9.3569  -25.3508  -54.0364 O.2       18 UNK        -0.5000 
    104 N         -9.0386  -23.2104  -54.5447 N.am      19 UNK        -0.5000 
    105 CA        -8.3961  -21.9000  -54.6398 C.3       19 UNK         0.1400 
    106 CB        -9.4382  -20.8972  -55.1597 C.3       19 UNK        -0.1800 
    107 C         -7.1732  -21.8942  -55.5717 C.2       19 UNK         0.5000 
    108 O         -7.1834  -22.5701  -56.6023 O.2       19 UNK        -0.5000 
    109 N         -6.1922  -21.0554  -55.2146 N.am      20 UNK        -0.5000 
    110 CA        -5.0693  -20.5763  -56.0272 C.3       20 UNK         0.1400 
    111 CB        -5.5872  -19.5551  -57.0609 C.3       20 UNK        -0.1800 
    112 C         -4.1854  -21.6675  -56.6694 C.2       20 UNK         0.5000 
    113 O         -3.7149  -21.4888  -57.7951 O.2       20 UNK        -0.5000 
    114 N         -3.9160  -22.7568  -55.9369 N.am      21 UNK        -0.5000 
    115 CA        -3.0122  -23.8298  -56.3718 C.3       21 UNK         0.1400 
    116 CB        -3.1608  -25.0475  -55.4487 C.3       21 UNK        -0.1800 
    117 C         -1.5403  -23.3772  -56.4448 C.2       21 UNK         0.5000 
    118 O         -0.7729  -23.9245  -57.2371 O.2       21 UNK        -0.5000 
    119 N         -1.1899  -22.3646  -55.6430 N.am      22 UNK        -0.5000 
    120 CA         0.0884  -21.6416  -55.6889 C.3       22 UNK         0.1400 
    121 C          0.1693  -20.5401  -56.7904 C.2       22 UNK         0.5000 
    122 N         -0.8592  -20.3146  -57.6012 N.am      22 UNK        -0.7600 
    123 O          1.1983  -19.8840  -56.9265 O.2       22 UNK        -0.5000 
    124 C124        0.4904  -21.1128  -54.2873 C.3       23 UNK        -0.0398 
    125 S125       -0.7723  -20.0498  -53.4933 S.3       23 UNK        -0.2404 
    126 C126        0.1422  -18.4882  -53.2574 C.3       23 UNK        -0.0205 
    127 H127       -4.4249  -15.1935  -43.9146 H         1 UNK         0.0600 
    128 H128       -4.6539  -16.1774  -45.3648 H         1 UNK         0.0600 
    129 H129       -3.2220  -16.4052  -44.3580 H         1 UNK         0.0600 
    130 H130       -1.4192  -15.5796  -45.3824 H         1 UNK         0.3000 
    131 H131       -1.5126  -13.6122  -47.4665 H         1 UNK         0.0600 
    132 H132        0.8979  -14.7355  -45.9422 H         1 UNK         0.0800 
    133 H133        0.9769  -13.8220  -47.4293 H         1 UNK         0.0800 
    134 H134        1.1405  -15.0094  -49.7458 H         1 UNK         0.0800 
    135 H135        2.3769  -15.6318  -48.6734 H         1 UNK         0.0800 
    136 H136        0.1570  -16.4367  -51.4702 H         1 UNK         0.1150 
    137 H137        1.8409  -20.3373  -52.0883 H         1 UNK         0.1150 
    138 H138        2.8780  -18.0865  -48.6039 H         1 UNK         0.1150 
    139 H139        3.9652  -20.7898  -50.7052 H         1 UNK         0.0800 
    140 H140        4.0586  -20.1332  -49.0921 H         1 UNK         0.0800 
    141 H141        2.7381  -21.5025  -46.9166 H         1 UNK         0.0800 
    142 H142        1.7615  -20.2342  -47.6032 H         1 UNK         0.0800 
    143 H143        0.7208  -23.0939  -47.3444 H         1 UNK         0.0600 
    144 H144        1.1831  -21.3903  -45.1353 H         1 UNK         0.3000 
    145 H145       -1.3754  -22.7416  -43.0099 H         1 UNK         0.0600 
    146 H146        0.6131  -23.0234  -41.5629 H         1 UNK         0.0600 
    147 H147        0.6113  -24.2401  -42.8307 H         1 UNK         0.0600 
    148 H148        1.6867  -22.8533  -42.9491 H         1 UNK         0.0600 
    149 H149        0.5231  -20.6659  -42.5771 H         1 UNK         0.3000 
    150 H150       -1.4605  -17.9767  -43.9026 H         1 UNK         0.0600 
    151 H151       -2.2149  -18.3145  -41.5516 H         1 UNK         0.0600 
    152 H152       -0.9688  -17.0778  -41.6432 H         1 UNK         0.0600 
    153 H153       -0.5677  -18.6919  -41.0612 H         1 UNK         0.0600 
    154 H154        1.1254  -17.9297  -42.7624 H         1 UNK         0.3000 
    155 H155        2.9839  -18.6628  -45.7569 H         1 UNK         0.0600 
    156 H156        4.0617  -16.5374  -44.9137 H         1 UNK         0.0600 
    157 H157        2.5499  -16.1211  -44.1033 H         1 UNK         0.0600 
    158 H158        2.6124  -16.2704  -45.8578 H         1 UNK         0.0600 
    159 H159        3.6664  -18.1791  -42.9889 H         1 UNK         0.3000 
    160 H160        3.8505  -21.6108  -42.0536 H         1 UNK         0.0600 
    161 H161        6.0710  -19.5657  -42.6000 H         1 UNK         0.0600 
    162 H162        5.9921  -21.1909  -43.2701 H         1 UNK         0.0600 
    163 H163        6.1899  -20.9698  -41.5390 H         1 UNK         0.0600 
    164 H164        4.5178  -19.1692  -40.7074 H         1 UNK         0.3000 
    165 H165        1.2875  -18.5271  -39.3409 H         1 UNK         0.0600 
    166 H166        3.8819  -19.5222  -38.0459 H         1 UNK         0.0600 
    167 H167        2.5708  -18.6677  -37.2319 H         1 UNK         0.0600 
    168 H168        2.3031  -20.2798  -37.8744 H         1 UNK         0.0600 
    169 H169        3.7164  -17.1746  -38.9142 H         1 UNK         0.3000 
    170 H170        3.8794  -15.0273  -39.6568 H         1 UNK         0.0600 
    171 H171        5.4870  -16.2545  -41.1305 H         1 UNK         0.0600 
    172 H172        4.6032  -15.7321  -42.5592 H         1 UNK         0.0600 
    173 H173        5.4315  -14.5500  -41.5494 H         1 UNK         0.0600 
    174 H174        2.9077  -14.0054  -42.2071 H         1 UNK         0.3000 
    175 H175        0.0301  -13.0632  -41.6387 H         1 UNK         0.0600 
    176 H176       -0.0334  -10.6222  -41.0842 H         1 UNK         0.0600 
    177 H177       -0.0146  -11.6249  -39.6440 H         1 UNK         0.0600 
    178 H178        1.4513  -10.7968  -40.1493 H         1 UNK         0.0600 
    179 H179        0.9575  -12.2941  -43.4553 H         1 UNK         0.3000 
    180 H180        3.5763  -10.1168  -44.2635 H         1 UNK         0.0600 
    181 H181        4.3086  -11.8334  -45.9063 H         1 UNK         0.0600 
    182 H182        4.8858  -12.2519  -44.3019 H         1 UNK         0.0600 
    183 H183        3.5039  -13.1022  -44.9820 H         1 UNK         0.0600 
    184 H184        1.7490  -11.6262  -45.8685 H         1 UNK         0.3000 
    185 H185       -1.1780   -9.8419  -45.3168 H         1 UNK         0.0600 
    186 H186       -1.1447   -9.1171  -47.6868 H         1 UNK         0.0600 
    187 H187       -0.0825   -8.0943  -46.7347 H         1 UNK         0.0600 
    188 H188        0.6032   -9.3464  -47.7631 H         1 UNK         0.0600 
    189 H189       -0.5773  -11.5217  -47.4752 H         1 UNK         0.3000 
    190 H190       -0.7032  -19.9053  -46.5072 H         1 UNK         0.3000 
    191 H191       -2.3560  -19.6221  -48.7455 H         1 UNK         0.0600 
    192 H192       -3.6188  -18.0025  -47.3715 H         1 UNK         0.0600 
    193 H193       -1.8994  -17.8104  -47.0826 H         1 UNK         0.0600 
    194 H194       -2.9013  -18.6308  -45.8961 H         1 UNK         0.0600 
    195 H195       -3.1062  -21.1355  -45.5674 H         1 UNK         0.3000 
    196 H196       -5.7574  -21.9291  -46.1495 H         1 UNK         0.0600 
    197 H197       -5.4467  -23.4429  -44.1830 H         1 UNK         0.0600 
    198 H198       -4.8171  -21.8348  -43.8555 H         1 UNK         0.0600 
    199 H199       -3.7106  -23.1558  -44.2243 H         1 UNK         0.0600 
    200 H200       -2.6668  -23.5448  -46.8462 H         1 UNK         0.3000 
    201 H201       -3.8578  -26.0220  -47.7507 H         1 UNK         0.0600 
    202 H202       -1.5901  -25.9796  -46.7998 H         1 UNK         0.0600 
    203 H203       -1.0298  -24.8899  -48.0639 H         1 UNK         0.0600 
    204 H204       -1.5192  -26.5315  -48.4665 H         1 UNK         0.0600 
    205 H205       -2.1943  -23.3121  -49.4966 H         1 UNK         0.3000 
    206 H206       -3.0090  -24.5795  -52.0581 H         1 UNK         0.0600 
    207 H207       -0.5848  -24.3609  -51.5316 H         1 UNK         0.0600 
    208 H208       -1.0439  -23.4533  -52.9613 H         1 UNK         0.0600 
    209 H209       -0.7578  -22.6092  -51.4410 H         1 UNK         0.0600 
    210 H210       -3.0215  -21.3247  -50.4566 H         1 UNK         0.3000 
    211 H211       -3.9611  -20.0215  -52.8612 H         1 UNK         0.0600 
    212 H212       -4.1232  -18.0201  -51.5417 H         1 UNK         0.0600 
    213 H213       -2.6595  -18.8462  -51.0362 H         1 UNK         0.0600 
    214 H214       -4.1149  -18.9005  -50.0290 H         1 UNK         0.0600 
    215 H215       -5.5221  -21.3114  -49.9578 H         1 UNK         0.3000 
    216 H216       -8.2256  -20.5791  -50.7232 H         1 UNK         0.0600 
    217 H217       -8.8011  -21.8038  -48.6424 H         1 UNK         0.0600 
    218 H218       -7.4496  -20.7211  -48.3497 H         1 UNK         0.0600 
    219 H219       -7.1673  -22.4492  -48.5419 H         1 UNK         0.0600 
    220 H220       -6.2962  -22.8215  -52.1689 H         1 UNK         0.3000 
    221 H221       -7.7670  -25.1911  -52.1701 H         1 UNK         0.0600 
    222 H222       -5.8831  -24.1386  -54.3167 H         1 UNK         0.0600 
    223 H223       -5.4300  -25.0711  -52.8887 H         1 UNK         0.0600 
    224 H224       -6.4136  -25.8020  -54.1445 H         1 UNK         0.0600 
    225 H225       -9.8240  -23.3070  -55.1698 H         1 UNK         0.3000 
    226 H226       -8.1066  -21.5420  -53.6600 H         1 UNK         0.0600 
    227 H227      -10.2991  -20.8413  -54.4930 H         1 UNK         0.0600 
    228 H228       -9.0161  -19.8933  -55.2255 H         1 UNK         0.0600 
    229 H229       -9.7992  -21.1665  -56.1534 H         1 UNK         0.0600 
    230 H230       -6.2978  -20.5761  -54.3229 H         1 UNK         0.3000 
    231 H231       -4.4139  -20.0384  -55.3411 H         1 UNK         0.0600 
    232 H232       -4.7634  -19.0745  -57.5902 H         1 UNK         0.0600 
    233 H233       -6.1631  -18.7645  -56.5798 H         1 UNK         0.0600 
    234 H234       -6.2266  -20.0289  -57.8066 H         1 UNK         0.0600 
    235 H235       -4.2552  -22.8008  -54.9789 H         1 UNK         0.3000 
    236 H236       -3.3083  -24.1343  -57.3778 H         1 UNK         0.0600 
    237 H237       -2.9448  -24.7964  -54.4114 H         1 UNK         0.0600 
    238 H238       -2.4773  -25.8456  -55.7411 H         1 UNK         0.0600 
    239 H239       -4.1690  -25.4565  -55.4982 H         1 UNK         0.0600 
    240 H240       -1.8894  -21.9740  -55.0287 H         1 UNK         0.3000 
    241 H241        0.8578  -22.3629  -55.9703 H         1 UNK         0.0600 
    242 H242       -0.7746  -19.6021  -58.3088 H         1 UNK         0.3800 
    243 H243       -1.7121  -20.8559  -57.5436 H         1 UNK         0.3800 
    244 H244        1.4449  -20.5879  -54.3454 H         1 UNK         0.0800 
    245 H245        0.6744  -21.9580  -53.6244 H         1 UNK         0.0800 
    246 H246       -0.5846  -17.6770  -53.3200 H         1 UNK         0.0800 
    247 H247        0.8375  -18.3307  -54.0829 H         1 UNK         0.0800 
@<TRIPOS>BOND
     1    1    2 1    
     2    1  127 1    
     3    1  128 1    
     4    1  129 1    
     5    2    3 2    
     6    2    4 am   BACKBONE|DICT|INTERRES
     7    4    5 1    
     8    4  130 1    
     9    5    6 1    
    10    5   65 1    
    11    5  131 1    
    12    6    7 1    
    13    6  132 1    
    14    6  133 1    
    15    7    8 1    
    16    8    9 1    
    17    8  134 1    
    18    8  135 1    
    19    9   10 ar   
    20    9   14 ar   
    21   10   11 ar   
    22   10  136 1    
    23   11   12 ar   
    24   11  126 1    
    25   12   13 ar   
    26   12  137 1    
    27   13   14 ar   
    28   13   15 1    
    29   14  138 1    
    30   15   16 1    
    31   15  139 1    
    32   15  140 1    
    33   16   17 1    
    34   17   18 1    
    35   17  141 1    
    36   17  142 1    
    37   18   19 1    
    38   18   67 1    
    39   18  143 1    
    40   19   20 am   BACKBONE|DICT|INTERRES
    41   19  144 1    
    42   20   21 2    
    43   20   22 1    
    44   22   23 1    
    45   22   24 1    
    46   22  145 1    
    47   23  146 1    
    48   23  147 1    
    49   23  148 1    
    50   24   25 am   BACKBONE|DICT|INTERRES
    51   24  149 1    
    52   25   26 2    
    53   25   27 1    
    54   27   28 1    
    55   27   29 1    
    56   27  150 1    
    57   28  151 1    
    58   28  152 1    
    59   28  153 1    
    60   29   30 am   BACKBONE|DICT|INTERRES
    61   29  154 1    
    62   30   31 2    
    63   30   32 1    
    64   32   33 1    
    65   32   34 1    
    66   32  155 1    
    67   33  156 1    
    68   33  157 1    
    69   33  158 1    
    70   34   35 am   BACKBONE|DICT|INTERRES
    71   34  159 1    
    72   35   36 2    
    73   35   37 1    
    74   37   38 1    
    75   37   39 1    
    76   37  160 1    
    77   38  161 1    
    78   38  162 1    
    79   38  163 1    
    80   39   40 am   BACKBONE|DICT|INTERRES
    81   39  164 1    
    82   40   41 2    
    83   40   42 1    
    84   42   43 1    
    85   42   44 1    
    86   42  165 1    
    87   43  166 1    
    88   43  167 1    
    89   43  168 1    
    90   44   45 am   BACKBONE|DICT|INTERRES
    91   44  169 1    
    92   45   46 2    
    93   45   47 1    
    94   47   48 1    
    95   47   49 1    
    96   47  170 1    
    97   48  171 1    
    98   48  172 1    
    99   48  173 1    
   100   49   50 am   BACKBONE|DICT|INTERRES
   101   49  174 1    
   102   50   51 2    
   103   50   52 1    
   104   52   53 1    
   105   52   54 1    
   106   52  175 1    
   107   53  176 1    
   108   53  177 1    
   109   53  178 1    
   110   54   55 am   BACKBONE|DICT|INTERRES
   111   54  179 1    
   112   55   56 2    
   113   55   57 1    
   114   57   58 1    
   115   57   59 1    
   116   57  180 1    
   117   58  181 1    
   118   58  182 1    
   119   58  183 1    
   120   59   60 am   BACKBONE|DICT|INTERRES
   121   59  184 1    
   122   60   61 2    
   123   60   62 1    
   124   62   63 1    
   125   62   64 1    
   126   62  185 1    
   127   63  186 1    
   128   63  187 1    
   129   63  188 1    
   130   64   65 am   BACKBONE|DICT|INTERRES
   131   64  189 1    
   132   65   66 2    
   133   67   68 2    
   134   67   69 am   BACKBONE|DICT|INTERRES
   135   69   70 1    
   136   69  190 1    
   137   70   71 1    
   138   70   72 1    
   139   70  191 1    
   140   71  192 1    
   141   71  193 1    
   142   71  194 1    
   143   72   73 2    
   144   72   74 am   BACKBONE|DICT|INTERRES
   145   74   75 1    
   146   74  195 1    
   147   75   76 1    
   148   75   77 1    
   149   75  196 1    
   150   76  197 1    
   151   76  198 1    
   152   76  199 1    
   153   77   78 2    
   154   77   79 am   BACKBONE|DICT|INTERRES
   155   79   80 1    
   156   79  200 1    
   157   80   81 1    
   158   80   82 1    
   159   80  201 1    
   160   81  202 1    
   161   81  203 1    
   162   81  204 1    
   163   82   83 2    
   164   82   84 am   BACKBONE|DICT|INTERRES
   165   84   85 1    
   166   84  205 1    
   167   85   86 1    
   168   85   87 1    
   169   85  206 1    
   170   86  207 1    
   171   86  208 1    
   172   86  209 1    
   173   87   88 2    
   174   87   89 am   BACKBONE|DICT|INTERRES
   175   89   90 1    
   176   89  210 1    
   177   90   91 1    
   178   90   92 1    
   179   90  211 1    
   180   91  212 1    
   181   91  213 1    
   182   91  214 1    
   183   92   93 2    
   184   92   94 am   BACKBONE|DICT|INTERRES
   185   94   95 1    
   186   94  215 1    
   187   95   96 1    
   188   95   97 1    
   189   95  216 1    
   190   96  217 1    
   191   96  218 1    
   192   96  219 1    
   193   97   98 2    
   194   97   99 am   BACKBONE|DICT|INTERRES
   195   99  100 1    
   196   99  220 1    
   197  100  101 1    
   198  100  102 1    
   199  100  221 1    
   200  101  222 1    
   201  101  223 1    
   202  101  224 1    
   203  102  103 2    
   204  102  104 am   BACKBONE|DICT|INTERRES
   205  104  105 1    
   206  104  225 1    
   207  105  106 1    
   208  105  107 1    
   209  105  226 1    
   210  106  227 1    
   211  106  228 1    
   212  106  229 1    
   213  107  108 2    
   214  107  109 am   BACKBONE|DICT|INTERRES
   215  109  110 1    
   216  109  230 1    
   217  110  111 1    
   218  110  112 1    
   219  110  231 1    
   220  111  232 1    
   221  111  233 1    
   222  111  234 1    
   223  112  113 2    
   224  112  114 am   BACKBONE|DICT|INTERRES
   225  114  115 1    
   226  114  235 1    
   227  115  116 1    
   228  115  117 1    
   229  115  236 1    
   230  116  237 1    
   231  116  238 1    
   232  116  239 1    
   233  117  118 2    
   234  117  119 am   BACKBONE|DICT|INTERRES
   235  119  120 1    
   236  119  240 1    
   237  120  121 1    
   238  120  124 1    
   239  120  241 1    
   240  121  122 am   BACKBONE|DICT|INTERRES
   241  121  123 2    
   242  122  242 1    
   243  122  243 1    
   244  124  125 1    
   245  124  244 1    
   246  124  245 1    
   247  125  126 1    
   248  126  246 1    
   249  126  247 1    
@<TRIPOS>SUBSTRUCTURE
     1 UNK         1 GROUP             0       ****    0 ROOT    
