@<TRIPOS>MOLECULE
3R540
247   249    1
SMALL
USER_CHARGES


@<TRIPOS>ATOM
      1 CA         -3.6209  -17.4923  -45.0629 C.3       0 UNK        -0.1800 
      2 C          -2.8604  -16.3536  -45.7247 C.2       0 UNK         0.5000 
      3 O          -1.8875  -15.8652  -45.1573 O.2       0 UNK        -0.5000 
      4 N          -3.3087  -15.9213  -46.9109 N.am      1 UNK        -0.5000 
      5 CA         -2.7459  -14.8566  -47.7588 C.3       1 UNK         0.1400 
      6 C6         -1.2708  -15.0824  -48.1856 C.3       23 UNK        -0.0398 
      7 S7         -1.0402  -16.6303  -49.1202 S.3       23 UNK        -0.2404 
      8 C8          0.6499  -16.3744  -49.7395 C.3       23 UNK        -0.0205 
      9 C9          1.1101  -17.5453  -50.5922 C.ar      23 UNK        -0.0193 
     10 C10         1.0685  -17.4700  -51.9870 C.ar      23 UNK        -0.1150 
     11 C11         1.5103  -18.5387  -52.7701 C.ar      23 UNK        -0.0193 
     12 C12         1.9935  -19.6915  -52.1418 C.ar      23 UNK        -0.1150 
     13 C13         2.0411  -19.7884  -50.7464 C.ar      23 UNK        -0.0193 
     14 C14         1.6016  -18.7003  -49.9802 C.ar      23 UNK        -0.1150 
     15 C15         2.6007  -21.0724  -50.1240 C.3       23 UNK        -0.0205 
     16 S16         2.3237  -21.2868  -48.3283 S.3       23 UNK        -0.2404 
     17 C17         0.5097  -21.4599  -48.2645 C.3       23 UNK        -0.0398 
     18 CA          0.0517  -22.7442  -47.5348 C.3       11 UNK         0.1400 
     19 N           0.5208  -22.8064  -46.1460 N.am      11 UNK        -0.5000 
     20 C           0.4220  -23.8786  -45.3475 C.2       10 UNK         0.5000 
     21 O          -0.0404  -24.9584  -45.7102 O.2       10 UNK        -0.5000 
     22 CA          0.8689  -23.7003  -43.8849 C.3       10 UNK         0.1400 
     23 CB          2.3866  -23.8928  -43.7547 C.3       10 UNK        -0.1800 
     24 N           0.4932  -22.3925  -43.3469 N.am      10 UNK        -0.5000 
     25 C          -0.7711  -22.0017  -43.1191 C.2       9 UNK         0.5000 
     26 O          -1.7472  -22.7358  -43.2679 O.2       9 UNK        -0.5000 
     27 CA         -0.9852  -20.5242  -42.7293 C.3       9 UNK         0.1400 
     28 CB         -0.9098  -20.3474  -41.2067 C.3       9 UNK        -0.1800 
     29 N          -0.0148  -19.6368  -43.3732 N.am      9 UNK        -0.5000 
     30 C           0.1004  -19.4913  -44.7014 C.2       8 UNK         0.5000 
     31 O          -0.7078  -19.9713  -45.4966 O.2       8 UNK        -0.5000 
     32 CA          1.3557  -18.7807  -45.2428 C.3       8 UNK         0.1400 
     33 CB          0.9970  -17.5585  -46.0947 C.3       8 UNK        -0.1800 
     34 N           2.3074  -18.3988  -44.1978 N.am      8 UNK        -0.5000 
     35 C           3.1716  -19.2429  -43.6152 C.2       7 UNK         0.5000 
     36 O           3.2250  -20.4432  -43.8839 O.2       7 UNK        -0.5000 
     37 CA          4.1127  -18.6673  -42.5377 C.3       7 UNK         0.1400 
     38 CB          5.4696  -18.2988  -43.1560 C.3       7 UNK        -0.1800 
     39 N           3.5670  -17.4933  -41.8539 N.am      7 UNK        -0.5000 
     40 C           2.5322  -17.5198  -41.0027 C.2       6 UNK         0.5000 
     41 O           1.9518  -18.5531  -40.6701 O.2       6 UNK        -0.5000 
     42 CA          2.0347  -16.1603  -40.4683 C.3       6 UNK         0.1400 
     43 CB          2.7480  -15.8025  -39.1561 C.3       6 UNK        -0.1800 
     44 N           2.1809  -15.0465  -41.4135 N.am      6 UNK        -0.5000 
     45 C           1.6508  -15.0032  -42.6432 C.2       5 UNK         0.5000 
     46 O           1.0239  -15.9385  -43.1372 O.2       5 UNK        -0.5000 
     47 CA          1.8680  -13.7044  -43.4405 C.3       5 UNK         0.1400 
     48 CB          1.3511  -13.7979  -44.8887 C.3       5 UNK        -0.1800 
     49 N           1.2215  -12.5750  -42.7742 N.am      5 UNK        -0.5000 
     50 C           1.7790  -11.8269  -41.8121 C.2       4 UNK         0.5000 
     51 O           2.8983  -12.0526  -41.3494 O.2       4 UNK        -0.5000 
     52 CA          0.9723  -10.6265  -41.2775 C.3       4 UNK         0.1400 
     53 CB          1.5116   -9.3169  -41.8738 C.3       4 UNK        -0.1800 
     54 N          -0.4585  -10.7179  -41.5698 N.am      4 UNK        -0.5000 
     55 C          -1.3387  -11.4309  -40.8546 C.2       3 UNK         0.5000 
     56 O          -1.0458  -12.0558  -39.8347 O.2       3 UNK        -0.5000 
     57 CA         -2.7892  -11.4650  -41.3800 C.3       3 UNK         0.1400 
     58 CB         -3.6237  -10.3525  -40.7271 C.3       3 UNK        -0.1800 
     59 N          -2.8966  -11.3531  -42.8405 N.am      3 UNK        -0.5000 
     60 C          -2.3979  -12.2464  -43.7045 C.2       2 UNK         0.5000 
     61 O          -1.7559  -13.2383  -43.3572 O.2       2 UNK        -0.5000 
     62 CA         -2.6019  -11.9580  -45.1971 C.3       2 UNK         0.1400 
     63 CB         -1.5445  -10.9586  -45.7029 C.3       2 UNK        -0.1800 
     64 N          -2.5018  -13.2126  -45.9360 N.am      2 UNK        -0.5000 
     65 C          -2.9463  -13.4395  -47.1756 C.2       1 UNK         0.5000 
     66 O          -3.5096  -12.5833  -47.8593 O.2       1 UNK        -0.5000 
     67 C          -1.4806  -22.8847  -47.6109 C.2       11 UNK         0.5000 
     68 O          -1.9836  -23.6168  -48.4628 O.2       11 UNK        -0.5000 
     69 N          -2.1935  -22.2123  -46.6964 N.am      12 UNK        -0.5000 
     70 CA         -3.6440  -22.3148  -46.5435 C.3       12 UNK         0.1400 
     71 CB         -4.1393  -21.2323  -45.5768 C.3       12 UNK        -0.1800 
     72 C          -4.0945  -23.7164  -46.0955 C.2       12 UNK         0.5000 
     73 O          -5.0465  -24.2495  -46.6647 O.2       12 UNK        -0.5000 
     74 N          -3.3783  -24.3107  -45.1295 N.am      13 UNK        -0.5000 
     75 CA         -3.6031  -25.6776  -44.6479 C.3       13 UNK         0.1400 
     76 CB         -2.7293  -25.9391  -43.4121 C.3       13 UNK        -0.1800 
     77 C          -3.3535  -26.7481  -45.7287 C.2       13 UNK         0.5000 
     78 O          -4.1007  -27.7241  -45.8028 O.2       13 UNK        -0.5000 
     79 N          -2.3344  -26.5262  -46.5697 N.am      14 UNK        -0.5000 
     80 CA         -2.0103  -27.3469  -47.7388 C.3       14 UNK         0.1400 
     81 CB         -0.5658  -27.0441  -48.1693 C.3       14 UNK        -0.1800 
     82 C          -2.9731  -27.1411  -48.9274 C.2       14 UNK         0.5000 
     83 O          -2.9195  -27.9238  -49.8768 O.2       14 UNK        -0.5000 
     84 N          -3.8143  -26.0972  -48.8634 N.am      15 UNK        -0.5000 
     85 CA         -4.7411  -25.6270  -49.8961 C.3       15 UNK         0.1400 
     86 CB         -5.8625  -26.6570  -50.1455 C.3       15 UNK        -0.1800 
     87 C          -4.0040  -25.1954  -51.1804 C.2       15 UNK         0.5000 
     88 O          -4.3898  -25.5862  -52.2831 O.2       15 UNK        -0.5000 
     89 N          -2.9412  -24.4035  -51.0017 N.am      16 UNK        -0.5000 
     90 CA         -2.0655  -23.9003  -52.0539 C.3       16 UNK         0.1400 
     91 CB         -0.9243  -24.9057  -52.2992 C.3       16 UNK        -0.1800 
     92 C          -1.5684  -22.4978  -51.6684 C.2       16 UNK         0.5000 
     93 O          -0.3613  -22.2689  -51.6142 O.2       16 UNK        -0.5000 
     94 N          -2.5141  -21.5982  -51.3712 N.am      17 UNK        -0.5000 
     95 CA         -2.2801  -20.1968  -51.0138 C.3       17 UNK         0.1400 
     96 CB         -3.1813  -19.8594  -49.8119 C.3       17 UNK        -0.1800 
     97 C          -2.5608  -19.2575  -52.2055 C.2       17 UNK         0.5000 
     98 O          -2.9338  -19.7210  -53.2864 O.2       17 UNK        -0.5000 
     99 N          -2.3936  -17.9458  -51.9720 N.am      18 UNK        -0.5000 
    100 CA        -2.5046  -16.8514  -52.9481 C.3       18 UNK         0.1400 
    101 CB        -2.2091  -15.5150  -52.2470 C.3       18 UNK        -0.1800 
    102 C         -3.8479  -16.7347  -53.6917 C.2       18 UNK         0.5000 
    103 O         -3.8895  -16.1110  -54.7539 O.2       18 UNK        -0.5000 
    104 N         -4.9204  -17.3179  -53.1409 N.am      19 UNK        -0.5000 
    105 CA        -6.2658  -17.3657  -53.7186 C.3       19 UNK         0.1400 
    106 CB        -7.2646  -17.7133  -52.6001 C.3       19 UNK        -0.1800 
    107 C         -6.3493  -18.3394  -54.9160 C.2       19 UNK         0.5000 
    108 O         -7.1040  -19.3117  -54.8741 O.2       19 UNK        -0.5000 
    109 N         -5.5231  -18.0847  -55.9400 N.am      20 UNK        -0.5000 
    110 CA        -5.3097  -18.8156  -57.1974 C.3       20 UNK         0.1400 
    111 CB        -6.6039  -18.8645  -58.0312 C.3       20 UNK        -0.1800 
    112 C         -4.6968  -20.2249  -57.0531 C.2       20 UNK         0.5000 
    113 O         -4.0570  -20.6969  -57.9941 O.2       20 UNK        -0.5000 
    114 N         -4.8920  -20.8711  -55.8984 N.am      21 UNK        -0.5000 
    115 CA        -4.5286  -22.2547  -55.5995 C.3       21 UNK         0.1400 
    116 CB        -5.0318  -22.6005  -54.1920 C.3       21 UNK        -0.1800 
    117 C         -3.0309  -22.5819  -55.7523 C.2       21 UNK         0.5000 
    118 O         -2.7057  -23.6997  -56.1544 O.2       21 UNK        -0.5000 
    119 N         -2.1499  -21.6152  -55.4613 N.am      22 UNK        -0.5000 
    120 CA        -0.7036  -21.7229  -55.7174 C.3       22 UNK         0.1400 
    121 C         -0.2780  -21.5918  -57.2122 C.2       22 UNK         0.5000 
    122 N         -1.1693  -21.2789  -58.1462 N.am      22 UNK        -0.7600 
    123 O          0.8885  -21.7985  -57.5361 O.2       22 UNK        -0.5000 
    124 C124        0.1334  -20.8182  -54.7789 C.3       23 UNK        -0.0398 
    125 S125       -0.0412  -19.0223  -55.0428 S.3       23 UNK        -0.2404 
    126 C126        1.5074  -18.4237  -54.2908 C.3       23 UNK        -0.0205 
    127 H127       -2.9418  -18.3184  -44.8525 H         1 UNK         0.0600 
    128 H128       -4.4289  -17.8620  -45.6943 H         1 UNK         0.0600 
    129 H129       -4.0505  -17.1568  -44.1191 H         1 UNK         0.0600 
    130 H130       -4.1329  -16.3609  -47.2945 H         1 UNK         0.3000 
    131 H131       -3.3432  -14.8857  -48.6718 H         1 UNK         0.0600 
    132 H132       -0.6058  -15.0926  -47.3210 H         1 UNK         0.0800 
    133 H133       -0.9357  -14.2579  -48.8177 H         1 UNK         0.0800 
    134 H134        1.3293  -16.2445  -48.8960 H         1 UNK         0.0800 
    135 H135        0.6948  -15.4478  -50.3135 H         1 UNK         0.0800 
    136 H136        0.7073  -16.5736  -52.4691 H         1 UNK         0.1150 
    137 H137        2.3437  -20.5187  -52.7426 H         1 UNK         0.1150 
    138 H138        1.6407  -18.7339  -48.9020 H         1 UNK         0.1150 
    139 H139        3.6759  -21.0959  -50.3048 H         1 UNK         0.0800 
    140 H140        2.1838  -21.9374  -50.6424 H         1 UNK         0.0800 
    141 H141        0.0983  -20.5655  -47.7984 H         1 UNK         0.0800 
    142 H142        0.1231  -21.4555  -49.2814 H         1 UNK         0.0800 
    143 H143        0.4788  -23.5992  -48.0635 H         1 UNK         0.0600 
    144 H144        0.9022  -21.9542  -45.7658 H         1 UNK         0.3000 
    145 H145        0.3757  -24.4687  -43.2863 H         1 UNK         0.0600 
    146 H146        2.6852  -24.8800  -44.1097 H         1 UNK         0.0600 
    147 H147        2.7078  -23.8096  -42.7164 H         1 UNK         0.0600 
    148 H148        2.9392  -23.1544  -44.3370 H         1 UNK         0.0600 
    149 H149        1.2412  -21.7240  -43.2200 H         1 UNK         0.3000 
    150 H150       -1.9827  -20.2299  -43.0614 H         1 UNK         0.0600 
    151 H151        0.0681  -20.6319  -40.8163 H         1 UNK         0.0600 
    152 H152       -1.6563  -20.9647  -40.7053 H         1 UNK         0.0600 
    153 H153       -1.0964  -19.3123  -40.9197 H         1 UNK         0.0600 
    154 H154        0.6746  -19.2010  -42.7762 H         1 UNK         0.3000 
    155 H155        1.8491  -19.4943  -45.9049 H         1 UNK         0.0600 
    156 H156        1.8825  -17.1232  -46.5570 H         1 UNK         0.0600 
    157 H157        0.5078  -16.7843  -45.5077 H         1 UNK         0.0600 
    158 H158        0.3137  -17.8393  -46.8949 H         1 UNK         0.0600 
    159 H159        2.2302  -17.4473  -43.8560 H         1 UNK         0.3000 
    160 H160        4.2779  -19.4497  -41.7938 H         1 UNK         0.0600 
    161 H161        6.1725  -17.9620  -42.3938 H         1 UNK         0.0600 
    162 H162        5.3718  -17.5057  -43.8984 H         1 UNK         0.0600 
    163 H163        5.9190  -19.1599  -43.6527 H         1 UNK         0.0600 
    164 H164        3.9842  -16.6009  -42.0739 H         1 UNK         0.3000 
    165 H165        0.9686  -16.2680  -40.2580 H         1 UNK         0.0600 
    166 H166        2.3323  -14.8959  -38.7157 H         1 UNK         0.0600 
    167 H167        2.6372  -16.6002  -38.4203 H         1 UNK         0.0600 
    168 H168        3.8159  -15.6425  -39.3097 H         1 UNK         0.0600 
    169 H169        2.6693  -14.2235  -41.0814 H         1 UNK         0.3000 
    170 H170        2.9447  -13.5292  -43.4915 H         1 UNK         0.0600 
    171 H171        1.5298  -12.8709  -45.4331 H         1 UNK         0.0600 
    172 H172        0.2821  -14.0085  -44.9260 H         1 UNK         0.0600 
    173 H173        1.8589  -14.5951  -45.4325 H         1 UNK         0.0600 
    174 H174        0.2524  -12.4165  -43.0181 H         1 UNK         0.3000 
    175 H175        1.1141  -10.5901  -40.1952 H         1 UNK         0.0600 
    176 H176        2.5726   -9.1936  -41.6522 H         1 UNK         0.0600 
    177 H177        1.3976   -9.2907  -42.9583 H         1 UNK         0.0600 
    178 H178        0.9926   -8.4520  -41.4600 H         1 UNK         0.0600 
    179 H179       -0.7892  -10.2273  -42.3874 H         1 UNK         0.3000 
    180 H180       -3.2170  -12.4267  -41.0887 H         1 UNK         0.0600 
    181 H181       -3.2621   -9.3618  -41.0053 H         1 UNK         0.0600 
    182 H182       -3.5851  -10.4224  -39.6391 H         1 UNK         0.0600 
    183 H183       -4.6720  -10.4224  -41.0181 H         1 UNK         0.0600 
    184 H184       -3.4008  -10.5526  -43.1946 H         1 UNK         0.3000 
    185 H185       -3.6016  -11.5414  -45.3360 H         1 UNK         0.0600 
    186 H186       -1.5938  -10.0194  -45.1507 H         1 UNK         0.0600 
    187 H187       -0.5341  -11.3534  -45.5908 H         1 UNK         0.0600 
    188 H188       -1.6935  -10.7191  -46.7557 H         1 UNK         0.0600 
    189 H189       -2.1046  -13.9912  -45.4089 H         1 UNK         0.3000 
    190 H190       -1.7068  -21.5811  -46.0670 H         1 UNK         0.3000 
    191 H191       -4.0965  -22.1241  -47.5188 H         1 UNK         0.0600 
    192 H192       -3.8971  -20.2413  -45.9570 H         1 UNK         0.0600 
    193 H193       -5.2222  -21.2798  -45.4560 H         1 UNK         0.0600 
    194 H194       -3.6919  -21.3334  -44.5882 H         1 UNK         0.0600 
    195 H195       -2.6436  -23.7825  -44.6679 H         1 UNK         0.3000 
    196 H196       -4.6492  -25.7534  -44.3443 H         1 UNK         0.0600 
    197 H197       -2.9040  -26.9396  -43.0149 H         1 UNK         0.0600 
    198 H198       -2.9509  -25.2294  -42.6149 H         1 UNK         0.0600 
    199 H199       -1.6677  -25.8595  -43.6458 H         1 UNK         0.0600 
    200 H200       -1.7155  -25.7416  -46.3874 H         1 UNK         0.3000 
    201 H201       -2.0674  -28.3982  -47.4498 H         1 UNK         0.0600 
    202 H202       -0.2691  -27.6635  -49.0165 H         1 UNK         0.0600 
    203 H203        0.1372  -27.2436  -47.3604 H         1 UNK         0.0600 
    204 H204       -0.4471  -26.0019  -48.4676 H         1 UNK         0.0600 
    205 H205       -3.7672  -25.5156  -48.0369 H         1 UNK         0.3000 
    206 H206       -5.2086  -24.7258  -49.4969 H         1 UNK         0.0600 
    207 H207       -6.3667  -26.9213  -49.2160 H         1 UNK         0.0600 
    208 H208       -6.6177  -26.2535  -50.8210 H         1 UNK         0.0600 
    209 H209       -5.4818  -27.5750  -50.5938 H         1 UNK         0.0600 
    210 H210       -2.6771  -24.1358  -50.0531 H         1 UNK         0.3000 
    211 H211       -2.6260  -23.7898  -52.9826 H         1 UNK         0.0600 
    212 H212       -0.3254  -25.0570  -51.4001 H         1 UNK         0.0600 
    213 H213       -0.2579  -24.5564  -53.0887 H         1 UNK         0.0600 
    214 H214       -1.3136  -25.8758  -52.6085 H         1 UNK         0.0600 
    215 H215       -3.4804  -21.8705  -51.4691 H         1 UNK         0.3000 
    216 H216       -1.2386  -20.0474  -50.7216 H         1 UNK         0.0600 
    217 H217       -3.0360  -18.8359  -49.4676 H         1 UNK         0.0600 
    218 H218       -2.9575  -20.5078  -48.9661 H         1 UNK         0.0600 
    219 H219       -4.2382  -19.9777  -50.0538 H         1 UNK         0.0600 
    220 H220       -2.0777  -17.6660  -51.0528 H         1 UNK         0.3000 
    221 H221       -1.7378  -17.0138  -53.7063 H         1 UNK         0.0600 
    222 H222       -1.1943  -15.4805  -51.8590 H         1 UNK         0.0600 
    223 H223       -2.3081  -14.6754  -52.9366 H         1 UNK         0.0600 
    224 H224       -2.8933  -15.3377  -51.4163 H         1 UNK         0.0600 
    225 H225       -4.7819  -17.8342  -52.2856 H         1 UNK         0.3000 
    226 H226       -6.5191  -16.3718  -54.0934 H         1 UNK         0.0600 
    227 H227       -7.2277  -16.9781  -51.7960 H         1 UNK         0.0600 
    228 H228       -7.0605  -18.6938  -52.1678 H         1 UNK         0.0600 
    229 H229       -8.2875  -17.7264  -52.9785 H         1 UNK         0.0600 
    230 H230       -4.9021  -17.2902  -55.8045 H         1 UNK         0.3000 
    231 H231       -4.5817  -18.2255  -57.7561 H         1 UNK         0.0600 
    232 H232       -7.3775  -19.4617  -57.5478 H         1 UNK         0.0600 
    233 H233       -6.4187  -19.3060  -59.0113 H         1 UNK         0.0600 
    234 H234       -7.0050  -17.8646  -58.1966 H         1 UNK         0.0600 
    235 H235       -5.4708  -20.4027  -55.2113 H         1 UNK         0.3000 
    236 H236       -5.0672  -22.8830  -56.3115 H         1 UNK         0.0600 
    237 H237       -4.5374  -21.9996  -53.4294 H         1 UNK         0.0600 
    238 H238       -6.1058  -22.4352  -54.1041 H         1 UNK         0.0600 
    239 H239       -4.8492  -23.6500  -53.9661 H         1 UNK         0.0600 
    240 H240       -2.4818  -20.7388  -55.0721 H         1 UNK         0.3000 
    241 H241       -0.4241  -22.7436  -55.4489 H         1 UNK         0.0600 
    242 H242       -2.1451  -21.1174  -57.9179 H         1 UNK         0.3800 
    243 H243       -0.8700  -21.2077  -59.1054 H         1 UNK         0.3800 
    244 H244        1.1872  -21.0879  -54.8618 H         1 UNK         0.0800 
    245 H245       -0.1392  -21.0141  -53.7461 H         1 UNK         0.0800 
    246 H246        2.3551  -18.9660  -54.7122 H         1 UNK         0.0800 
    247 H247        1.6496  -17.3810  -54.5784 H         1 UNK         0.0800 
@<TRIPOS>BOND
     1    1    2 1    
     2    1  127 1    
     3    1  128 1    
     4    1  129 1    
     5    2    3 2    
     6    2    4 am   BACKBONE|DICT|INTERRES
     7    4    5 1    
     8    4  130 1    
     9    5    6 1    
    10    5   65 1    
    11    5  131 1    
    12    6    7 1    
    13    6  132 1    
    14    6  133 1    
    15    7    8 1    
    16    8    9 1    
    17    8  134 1    
    18    8  135 1    
    19    9   10 ar   
    20    9   14 ar   
    21   10   11 ar   
    22   10  136 1    
    23   11   12 ar   
    24   11  126 1    
    25   12   13 ar   
    26   12  137 1    
    27   13   14 ar   
    28   13   15 1    
    29   14  138 1    
    30   15   16 1    
    31   15  139 1    
    32   15  140 1    
    33   16   17 1    
    34   17   18 1    
    35   17  141 1    
    36   17  142 1    
    37   18   19 1    
    38   18   67 1    
    39   18  143 1    
    40   19   20 am   BACKBONE|DICT|INTERRES
    41   19  144 1    
    42   20   21 2    
    43   20   22 1    
    44   22   23 1    
    45   22   24 1    
    46   22  145 1    
    47   23  146 1    
    48   23  147 1    
    49   23  148 1    
    50   24   25 am   BACKBONE|DICT|INTERRES
    51   24  149 1    
    52   25   26 2    
    53   25   27 1    
    54   27   28 1    
    55   27   29 1    
    56   27  150 1    
    57   28  151 1    
    58   28  152 1    
    59   28  153 1    
    60   29   30 am   BACKBONE|DICT|INTERRES
    61   29  154 1    
    62   30   31 2    
    63   30   32 1    
    64   32   33 1    
    65   32   34 1    
    66   32  155 1    
    67   33  156 1    
    68   33  157 1    
    69   33  158 1    
    70   34   35 am   BACKBONE|DICT|INTERRES
    71   34  159 1    
    72   35   36 2    
    73   35   37 1    
    74   37   38 1    
    75   37   39 1    
    76   37  160 1    
    77   38  161 1    
    78   38  162 1    
    79   38  163 1    
    80   39   40 am   BACKBONE|DICT|INTERRES
    81   39  164 1    
    82   40   41 2    
    83   40   42 1    
    84   42   43 1    
    85   42   44 1    
    86   42  165 1    
    87   43  166 1    
    88   43  167 1    
    89   43  168 1    
    90   44   45 am   BACKBONE|DICT|INTERRES
    91   44  169 1    
    92   45   46 2    
    93   45   47 1    
    94   47   48 1    
    95   47   49 1    
    96   47  170 1    
    97   48  171 1    
    98   48  172 1    
    99   48  173 1    
   100   49   50 am   BACKBONE|DICT|INTERRES
   101   49  174 1    
   102   50   51 2    
   103   50   52 1    
   104   52   53 1    
   105   52   54 1    
   106   52  175 1    
   107   53  176 1    
   108   53  177 1    
   109   53  178 1    
   110   54   55 am   BACKBONE|DICT|INTERRES
   111   54  179 1    
   112   55   56 2    
   113   55   57 1    
   114   57   58 1    
   115   57   59 1    
   116   57  180 1    
   117   58  181 1    
   118   58  182 1    
   119   58  183 1    
   120   59   60 am   BACKBONE|DICT|INTERRES
   121   59  184 1    
   122   60   61 2    
   123   60   62 1    
   124   62   63 1    
   125   62   64 1    
   126   62  185 1    
   127   63  186 1    
   128   63  187 1    
   129   63  188 1    
   130   64   65 am   BACKBONE|DICT|INTERRES
   131   64  189 1    
   132   65   66 2    
   133   67   68 2    
   134   67   69 am   BACKBONE|DICT|INTERRES
   135   69   70 1    
   136   69  190 1    
   137   70   71 1    
   138   70   72 1    
   139   70  191 1    
   140   71  192 1    
   141   71  193 1    
   142   71  194 1    
   143   72   73 2    
   144   72   74 am   BACKBONE|DICT|INTERRES
   145   74   75 1    
   146   74  195 1    
   147   75   76 1    
   148   75   77 1    
   149   75  196 1    
   150   76  197 1    
   151   76  198 1    
   152   76  199 1    
   153   77   78 2    
   154   77   79 am   BACKBONE|DICT|INTERRES
   155   79   80 1    
   156   79  200 1    
   157   80   81 1    
   158   80   82 1    
   159   80  201 1    
   160   81  202 1    
   161   81  203 1    
   162   81  204 1    
   163   82   83 2    
   164   82   84 am   BACKBONE|DICT|INTERRES
   165   84   85 1    
   166   84  205 1    
   167   85   86 1    
   168   85   87 1    
   169   85  206 1    
   170   86  207 1    
   171   86  208 1    
   172   86  209 1    
   173   87   88 2    
   174   87   89 am   BACKBONE|DICT|INTERRES
   175   89   90 1    
   176   89  210 1    
   177   90   91 1    
   178   90   92 1    
   179   90  211 1    
   180   91  212 1    
   181   91  213 1    
   182   91  214 1    
   183   92   93 2    
   184   92   94 am   BACKBONE|DICT|INTERRES
   185   94   95 1    
   186   94  215 1    
   187   95   96 1    
   188   95   97 1    
   189   95  216 1    
   190   96  217 1    
   191   96  218 1    
   192   96  219 1    
   193   97   98 2    
   194   97   99 am   BACKBONE|DICT|INTERRES
   195   99  100 1    
   196   99  220 1    
   197  100  101 1    
   198  100  102 1    
   199  100  221 1    
   200  101  222 1    
   201  101  223 1    
   202  101  224 1    
   203  102  103 2    
   204  102  104 am   BACKBONE|DICT|INTERRES
   205  104  105 1    
   206  104  225 1    
   207  105  106 1    
   208  105  107 1    
   209  105  226 1    
   210  106  227 1    
   211  106  228 1    
   212  106  229 1    
   213  107  108 2    
   214  107  109 am   BACKBONE|DICT|INTERRES
   215  109  110 1    
   216  109  230 1    
   217  110  111 1    
   218  110  112 1    
   219  110  231 1    
   220  111  232 1    
   221  111  233 1    
   222  111  234 1    
   223  112  113 2    
   224  112  114 am   BACKBONE|DICT|INTERRES
   225  114  115 1    
   226  114  235 1    
   227  115  116 1    
   228  115  117 1    
   229  115  236 1    
   230  116  237 1    
   231  116  238 1    
   232  116  239 1    
   233  117  118 2    
   234  117  119 am   BACKBONE|DICT|INTERRES
   235  119  120 1    
   236  119  240 1    
   237  120  121 1    
   238  120  124 1    
   239  120  241 1    
   240  121  122 am   BACKBONE|DICT|INTERRES
   241  121  123 2    
   242  122  242 1    
   243  122  243 1    
   244  124  125 1    
   245  124  244 1    
   246  124  245 1    
   247  125  126 1    
   248  126  246 1    
   249  126  247 1    
@<TRIPOS>SUBSTRUCTURE
     1 UNK         1 GROUP             0       ****    0 ROOT    
