@<TRIPOS>MOLECULE
3R540
247   249    1
SMALL
USER_CHARGES


@<TRIPOS>ATOM
      1 CA          9.4325  -12.9108  -47.9998 C.3       0 UNK        -0.1800 
      2 C           8.4767  -13.1198  -46.8338 C.2       0 UNK         0.5000 
      3 O           8.8815  -12.9928  -45.6784 O.2       0 UNK        -0.5000 
      4 N           7.2091  -13.4323  -47.1311 N.am      1 UNK        -0.5000 
      5 CA          6.1473  -13.6776  -46.1453 C.3       1 UNK         0.1400 
      6 C6          5.0663  -14.6317  -46.7148 C.3       23 UNK        -0.0398 
      7 S7          4.0700  -13.9215  -48.0787 S.3       23 UNK        -0.2404 
      8 C8          2.4823  -14.7894  -47.8637 C.3       23 UNK        -0.0205 
      9 C9          2.4204  -16.0700  -48.6841 C.ar      23 UNK        -0.0193 
     10 C10         1.5480  -16.1608  -49.7732 C.ar      23 UNK        -0.1150 
     11 C11         1.4608  -17.3393  -50.5195 C.ar      23 UNK        -0.0193 
     12 C12         2.2859  -18.4193  -50.1966 C.ar      23 UNK        -0.1150 
     13 C13         3.1621  -18.3434  -49.1097 C.ar      23 UNK        -0.0193 
     14 C14         3.2132  -17.1723  -48.3484 C.ar      23 UNK        -0.1150 
     15 C15         4.0576  -19.5241  -48.7615 C.3       23 UNK        -0.0205 
     16 S16         3.3382  -20.5756  -47.4614 S.3       23 UNK        -0.2404 
     17 C17         1.8441  -21.1876  -48.3056 C.3       23 UNK        -0.0398 
     18 CA          1.1615  -22.3513  -47.5526 C.3       11 UNK         0.1400 
     19 N           0.5834  -21.9363  -46.2705 N.am      11 UNK        -0.5000 
     20 C           0.0362  -22.7692  -45.3739 C.2       10 UNK         0.5000 
     21 O           0.0042  -23.9929  -45.5079 O.2       10 UNK        -0.5000 
     22 CA         -0.6375  -22.1285  -44.1467 C.3       10 UNK         0.1400 
     23 CB          0.4041  -21.7057  -43.1000 C.3       10 UNK        -0.1800 
     24 N          -1.4846  -20.9881  -44.5011 N.am      10 UNK        -0.5000 
     25 C          -2.5853  -21.0768  -45.2625 C.2       9 UNK         0.5000 
     26 O          -3.0224  -22.1358  -45.7090 O.2       9 UNK        -0.5000 
     27 CA         -3.2996  -19.7646  -45.6280 C.3       9 UNK         0.1400 
     28 CB         -4.2140  -19.3014  -44.4852 C.3       9 UNK        -0.1800 
     29 N          -2.3723  -18.6934  -45.9861 N.am      9 UNK        -0.5000 
     30 C          -1.5278  -18.7359  -47.0263 C.2       8 UNK         0.5000 
     31 O          -1.4659  -19.6761  -47.8167 O.2       8 UNK        -0.5000 
     32 CA         -0.5578  -17.5521  -47.1771 C.3       8 UNK         0.1400 
     33 CB         -1.2776  -16.3226  -47.7533 C.3       8 UNK        -0.1800 
     34 N           0.0934  -17.1952  -45.9160 N.am      8 UNK        -0.5000 
     35 C           0.8456  -18.0334  -45.1875 C.2       7 UNK         0.5000 
     36 O           1.0907  -19.1938  -45.5091 O.2       7 UNK        -0.5000 
     37 CA          1.3482  -17.5110  -43.8336 C.3       7 UNK         0.1400 
     38 CB          2.5631  -16.5880  -44.0093 C.3       7 UNK        -0.1800 
     39 N           0.2881  -16.8175  -43.1032 N.am      7 UNK        -0.5000 
     40 C          -0.7897  -17.4271  -42.5872 C.2       6 UNK         0.5000 
     41 O          -0.9747  -18.6436  -42.6264 O.2       6 UNK        -0.5000 
     42 CA         -1.8611  -16.5164  -41.9615 C.3       6 UNK         0.1400 
     43 CB         -1.4813  -16.1389  -40.5219 C.3       6 UNK        -0.1800 
     44 N          -2.0831  -15.2985  -42.7420 N.am      6 UNK        -0.5000 
     45 C          -2.6046  -15.2769  -43.9769 C.2       5 UNK         0.5000 
     46 O          -2.9894  -16.2806  -44.5738 O.2       5 UNK        -0.5000 
     47 CA         -2.6698  -13.9100  -44.6796 C.3       5 UNK         0.1400 
     48 CB         -3.9878  -13.1952  -44.3480 C.3       5 UNK        -0.1800 
     49 N          -1.5438  -13.0343  -44.3478 N.am      5 UNK        -0.5000 
     50 C          -0.2657  -13.2884  -44.6563 C.2       4 UNK         0.5000 
     51 O           0.1156  -14.3197  -45.2154 O.2       4 UNK        -0.5000 
     52 CA          0.7606  -12.2182  -44.2473 C.3       4 UNK         0.1400 
     53 CB          1.7090  -12.7546  -43.1650 C.3       4 UNK        -0.1800 
     54 N           1.5416  -11.7570  -45.3927 N.am      4 UNK        -0.5000 
     55 C           1.0425  -11.0508  -46.4190 C.2       3 UNK         0.5000 
     56 O          -0.1390  -10.7073  -46.4909 O.2       3 UNK        -0.5000 
     57 CA          2.0223  -10.6571  -47.5477 C.3       3 UNK         0.1400 
     58 CB          1.5810   -9.3913  -48.3120 C.3       3 UNK        -0.1800 
     59 N           3.4144  -10.5357  -47.1017 N.am      3 UNK        -0.5000 
     60 C           3.9138   -9.6963  -46.1798 C.2       2 UNK         0.5000 
     61 O           3.2497   -8.8301  -45.6084 O.2       2 UNK        -0.5000 
     62 CA          5.4117   -9.8693  -45.8388 C.3       2 UNK         0.1400 
     63 CB          5.7429   -9.4567  -44.3892 C.3       2 UNK        -0.1800 
     64 N           5.9236  -11.2170  -46.1276 N.am      2 UNK        -0.5000 
     65 C           5.5266  -12.3780  -45.5796 C.2       1 UNK         0.5000 
     66 O           4.6632  -12.4575  -44.7054 O.2       1 UNK        -0.5000 
     67 C           0.1110  -23.0201  -48.4593 C.2       11 UNK         0.5000 
     68 O           0.3784  -24.0904  -49.0046 O.2       11 UNK        -0.5000 
     69 N          -1.0702  -22.4002  -48.5824 N.am      12 UNK        -0.5000 
     70 CA         -2.1880  -22.9095  -49.3741 C.3       12 UNK         0.1400 
     71 CB         -3.2753  -21.8340  -49.4710 C.3       12 UNK        -0.1800 
     72 C          -2.7588  -24.2304  -48.8288 C.2       12 UNK         0.5000 
     73 O          -3.0998  -25.1078  -49.6191 O.2       12 UNK        -0.5000 
     74 N          -2.8210  -24.3737  -47.4980 N.am      13 UNK        -0.5000 
     75 CA         -3.2132  -25.6105  -46.8218 C.3       13 UNK         0.1400 
     76 CB         -3.4266  -25.3414  -45.3248 C.3       13 UNK        -0.1800 
     77 C          -2.1960  -26.7467  -47.0338 C.2       13 UNK         0.5000 
     78 O          -2.6050  -27.8841  -47.2674 O.2       13 UNK        -0.5000 
     79 N          -0.8972  -26.4179  -46.9747 N.am      14 UNK        -0.5000 
     80 CA          0.2063  -27.3485  -47.2194 C.3       14 UNK         0.1400 
     81 CB          1.5304  -26.7056  -46.7791 C.3       14 UNK        -0.1800 
     82 C           0.2812  -27.8113  -48.6865 C.2       14 UNK         0.5000 
     83 O           0.4886  -28.9990  -48.9384 O.2       14 UNK        -0.5000 
     84 N           0.0937  -26.8728  -49.6247 N.am      15 UNK        -0.5000 
     85 CA          0.0453  -27.1317  -51.0660 C.3       15 UNK         0.1400 
     86 CB          0.1834  -25.7983  -51.8167 C.3       15 UNK        -0.1800 
     87 C          -1.2368  -27.8638  -51.5111 C.2       15 UNK         0.5000 
     88 O          -1.2044  -28.5694  -52.5205 O.2       15 UNK        -0.5000 
     89 N          -2.3211  -27.6746  -50.7458 N.am      16 UNK        -0.5000 
     90 CA         -3.7025  -28.1072  -50.9684 C.3       16 UNK         0.1400 
     91 CB         -3.7977  -29.6288  -51.2071 C.3       16 UNK        -0.1800 
     92 C          -4.4092  -27.2952  -52.0735 C.2       16 UNK         0.5000 
     93 O          -3.7687  -26.5543  -52.8236 O.2       16 UNK        -0.5000 
     94 N          -5.7407  -27.4482  -52.1341 N.am      17 UNK        -0.5000 
     95 CA         -6.6667  -26.7649  -53.0468 C.3       17 UNK         0.1400 
     96 CB         -6.4208  -27.1942  -54.5093 C.3       17 UNK        -0.1800 
     97 C          -6.6808  -25.2323  -52.8521 C.2       17 UNK         0.5000 
     98 O          -6.6607  -24.4787  -53.8278 O.2       17 UNK        -0.5000 
     99 N          -6.7179  -24.8028  -51.5823 N.am      18 UNK        -0.5000 
    100 CA        -6.8550  -23.4039  -51.1714 C.3       18 UNK         0.1400 
    101 CB        -6.6735  -23.3153  -49.6471 C.3       18 UNK        -0.1800 
    102 C         -8.2220  -22.8206  -51.5815 C.2       18 UNK         0.5000 
    103 O         -9.2221  -23.5441  -51.5808 O.2       18 UNK        -0.5000 
    104 N         -8.2463  -21.5241  -51.8993 N.am      19 UNK        -0.5000 
    105 CA        -9.4320  -20.7989  -52.3461 C.3       19 UNK         0.1400 
    106 CB        -9.6745  -21.0529  -53.8471 C.3       19 UNK        -0.1800 
    107 C         -9.2124  -19.3179  -52.0246 C.2       19 UNK         0.5000 
    108 O         -8.6520  -18.5950  -52.8491 O.2       19 UNK        -0.5000 
    109 N         -9.5962  -18.9212  -50.8007 N.am      20 UNK        -0.5000 
    110 CA        -9.2780  -17.6403  -50.1538 C.3       20 UNK         0.1400 
    111 CB        -9.9302  -16.4517  -50.8919 C.3       20 UNK        -0.1800 
    112 C         -7.7518  -17.5031  -49.9912 C.2       20 UNK         0.5000 
    113 O         -7.1284  -16.6233  -50.5901 O.2       20 UNK        -0.5000 
    114 N         -7.1801  -18.4612  -49.2447 N.am      21 UNK        -0.5000 
    115 CA        -5.7497  -18.7594  -49.1518 C.3       21 UNK         0.1400 
    116 CB        -4.9844  -17.6226  -48.4358 C.3       21 UNK        -0.1800 
    117 C         -5.2025  -19.1364  -50.5441 C.2       21 UNK         0.5000 
    118 O         -5.7350  -20.0650  -51.1586 O.2       21 UNK        -0.5000 
    119 N         -4.1823  -18.4135  -51.0188 N.am      22 UNK        -0.5000 
    120 CA        -3.5730  -18.5791  -52.3483 C.3       22 UNK         0.1400 
    121 C         -4.4852  -18.1535  -53.5392 C.2       22 UNK         0.5000 
    122 N         -5.6114  -17.4854  -53.3186 N.am      22 UNK        -0.7600 
    123 O         -4.1628  -18.4394  -54.6891 O.2       22 UNK        -0.5000 
    124 C124       -2.1973  -17.8669  -52.4459 C.3       23 UNK        -0.0398 
    125 S125       -1.0324  -18.3445  -51.1260 S.3       23 UNK        -0.2404 
    126 C126        0.4610  -17.4513  -51.6592 C.3       23 UNK        -0.0205 
    127 H127        9.8433  -11.9015  -47.9726 H         1 UNK         0.0600 
    128 H128        8.9367  -13.0505  -48.9608 H         1 UNK         0.0600 
    129 H129       10.2594  -13.6183  -47.9382 H         1 UNK         0.0600 
    130 H130        6.9302  -13.5216  -48.0987 H         1 UNK         0.3000 
    131 H131        6.5977  -14.1886  -45.2915 H         1 UNK         0.0600 
    132 H132        5.5429  -15.5432  -47.0770 H         1 UNK         0.0800 
    133 H133        4.4037  -14.9475  -45.9080 H         1 UNK         0.0800 
    134 H134        2.2980  -15.0136  -46.8138 H         1 UNK         0.0800 
    135 H135        1.6809  -14.1122  -48.1620 H         1 UNK         0.0800 
    136 H136        0.9161  -15.3213  -50.0265 H         1 UNK         0.1150 
    137 H137        2.2273  -19.3276  -50.7796 H         1 UNK         0.1150 
    138 H138        3.8748  -17.1214  -47.4968 H         1 UNK         0.1150 
    139 H139        4.2568  -20.1269  -49.6489 H         1 UNK         0.0800 
    140 H140        5.0273  -19.1585  -48.4208 H         1 UNK         0.0800 
    141 H141        2.1383  -21.5019  -49.3090 H         1 UNK         0.0800 
    142 H142        1.1471  -20.3572  -48.4310 H         1 UNK         0.0800 
    143 H143        1.9205  -23.1061  -47.3362 H         1 UNK         0.0600 
    144 H144        0.6140  -20.9401  -46.0634 H         1 UNK         0.3000 
    145 H145       -1.2790  -22.8860  -43.6917 H         1 UNK         0.0600 
    146 H146       -0.0762  -21.3248  -42.1986 H         1 UNK         0.0600 
    147 H147        1.0256  -22.5520  -42.8052 H         1 UNK         0.0600 
    148 H148        1.0674  -20.9282  -43.4784 H         1 UNK         0.0600 
    149 H149       -1.1998  -20.0809  -44.1488 H         1 UNK         0.3000 
    150 H150       -3.9250  -19.9633  -46.5004 H         1 UNK         0.0600 
    151 H151       -4.9172  -20.0862  -44.2037 H         1 UNK         0.0600 
    152 H152       -4.7996  -18.4303  -44.7795 H         1 UNK         0.0600 
    153 H153       -3.6424  -19.0353  -43.5955 H         1 UNK         0.0600 
    154 H154       -2.3967  -17.8598  -45.4039 H         1 UNK         0.3000 
    155 H155        0.2237  -17.8572  -47.8741 H         1 UNK         0.0600 
    156 H156       -0.6035  -15.4705  -47.8374 H         1 UNK         0.0600 
    157 H157       -2.1207  -16.0192  -47.1339 H         1 UNK         0.0600 
    158 H158       -1.6644  -16.5319  -48.7507 H         1 UNK         0.0600 
    159 H159       -0.0366  -16.2432  -45.5869 H         1 UNK         0.3000 
    160 H160        1.6637  -18.3715  -43.2396 H         1 UNK         0.0600 
    161 H161        2.9593  -16.2685  -43.0455 H         1 UNK         0.0600 
    162 H162        2.3129  -15.6960  -44.5807 H         1 UNK         0.0600 
    163 H163        3.3668  -17.1009  -44.5392 H         1 UNK         0.0600 
    164 H164        0.3362  -15.8103  -43.0776 H         1 UNK         0.3000 
    165 H165       -2.7983  -17.0764  -41.9323 H         1 UNK         0.0600 
    166 H166       -2.2711  -15.5577  -40.0456 H         1 UNK         0.0600 
    167 H167       -1.3241  -17.0309  -39.9139 H         1 UNK         0.0600 
    168 H168       -0.5632  -15.5512  -40.4862 H         1 UNK         0.0600 
    169 H169       -1.7968  -14.4257  -42.3242 H         1 UNK         0.3000 
    170 H170       -2.6435  -14.0906  -45.7559 H         1 UNK         0.0600 
    171 H171       -4.8451  -13.8185  -44.6065 H         1 UNK         0.0600 
    172 H172       -4.0626  -12.9579  -43.2860 H         1 UNK         0.0600 
    173 H173       -4.0839  -12.2651  -44.9083 H         1 UNK         0.0600 
    174 H174       -1.7737  -12.1596  -43.8986 H         1 UNK         0.3000 
    175 H175        0.2313  -11.3574  -43.8333 H         1 UNK         0.0600 
    176 H176        2.3211  -13.5765  -43.5357 H         1 UNK         0.0600 
    177 H177        2.3843  -11.9738  -42.8142 H         1 UNK         0.0600 
    178 H178        1.1544  -13.1188  -42.2994 H         1 UNK         0.0600 
    179 H179        2.5242  -11.9992  -45.3933 H         1 UNK         0.3000 
    180 H180        2.0050  -11.4861  -48.2562 H         1 UNK         0.0600 
    181 H181        2.2857   -9.1443  -49.1059 H         1 UNK         0.0600 
    182 H182        1.5010   -8.5267  -47.6527 H         1 UNK         0.0600 
    183 H183        0.6065   -9.5357  -48.7800 H         1 UNK         0.0600 
    184 H184        4.0513  -11.2123  -47.4984 H         1 UNK         0.3000 
    185 H185        5.9495   -9.1920  -46.5035 H         1 UNK         0.0600 
    186 H186        6.8023   -9.5941  -44.1725 H         1 UNK         0.0600 
    187 H187        5.5126   -8.4044  -44.2191 H         1 UNK         0.0600 
    188 H188        5.1735  -10.0361  -43.6620 H         1 UNK         0.0600 
    189 H189        6.6291  -11.2698  -46.8487 H         1 UNK         0.3000 
    190 H190       -1.2063  -21.4952  -48.1360 H         1 UNK         0.3000 
    191 H191       -1.8162  -23.1020  -50.3826 H         1 UNK         0.0600 
    192 H192       -4.0730  -22.1492  -50.1428 H         1 UNK         0.0600 
    193 H193       -2.8676  -20.9051  -49.8698 H         1 UNK         0.0600 
    194 H194       -3.7193  -21.6172  -48.4990 H         1 UNK         0.0600 
    195 H195       -2.5944  -23.5812  -46.9033 H         1 UNK         0.3000 
    196 H196       -4.1664  -25.9356  -47.2443 H         1 UNK         0.0600 
    197 H197       -2.5199  -24.9666  -44.8492 H         1 UNK         0.0600 
    198 H198       -4.2155  -24.6060  -45.1663 H         1 UNK         0.0600 
    199 H199       -3.7211  -26.2518  -44.8014 H         1 UNK         0.0600 
    200 H200       -0.6431  -25.4666  -46.7264 H         1 UNK         0.3000 
    201 H201        0.0410  -28.2334  -46.6013 H         1 UNK         0.0600 
    202 H202        1.7416  -25.7924  -47.3360 H         1 UNK         0.0600 
    203 H203        2.3672  -27.3874  -46.9354 H         1 UNK         0.0600 
    204 H204        1.5109  -26.4519  -45.7190 H         1 UNK         0.0600 
    205 H205        0.0021  -25.9019  -49.3342 H         1 UNK         0.3000 
    206 H206        0.8970  -27.7621  -51.3297 H         1 UNK         0.0600 
    207 H207        1.1160  -25.2951  -51.5608 H         1 UNK         0.0600 
    208 H208        0.1819  -25.9546  -52.8961 H         1 UNK         0.0600 
    209 H209       -0.6388  -25.1209  -51.5816 H         1 UNK         0.0600 
    210 H210       -2.2286  -26.9917  -50.0035 H         1 UNK         0.3000 
    211 H211       -4.2209  -27.8839  -50.0346 H         1 UNK         0.0600 
    212 H212       -4.8317  -29.9702  -51.1534 H         1 UNK         0.0600 
    213 H213       -3.2367  -30.1820  -50.4536 H         1 UNK         0.0600 
    214 H214       -3.4166  -29.9136  -52.1880 H         1 UNK         0.0600 
    215 H215       -6.1764  -28.0762  -51.4731 H         1 UNK         0.3000 
    216 H216       -7.6667  -27.1072  -52.7762 H         1 UNK         0.0600 
    217 H217       -7.1927  -26.7941  -55.1677 H         1 UNK         0.0600 
    218 H218       -5.4596  -26.8399  -54.8825 H         1 UNK         0.0600 
    219 H219       -6.4403  -28.2793  -54.6102 H         1 UNK         0.0600 
    220 H220       -6.7419  -25.4905  -50.8449 H         1 UNK         0.3000 
    221 H221       -6.0624  -22.8303  -51.6567 H         1 UNK         0.0600 
    222 H222       -5.7309  -23.7614  -49.3315 H         1 UNK         0.0600 
    223 H223       -7.4770  -23.8270  -49.1158 H         1 UNK         0.0600 
    224 H224       -6.6695  -22.2760  -49.3159 H         1 UNK         0.0600 
    225 H225       -7.3934  -20.9735  -51.8213 H         1 UNK         0.3000 
    226 H226      -10.3080  -21.1418  -51.7912 H         1 UNK         0.0600 
    227 H227       -8.8034  -20.7871  -54.4473 H         1 UNK         0.0600 
    228 H228       -9.9027  -22.1014  -54.0390 H         1 UNK         0.0600 
    229 H229      -10.5182  -20.4651  -54.2105 H         1 UNK         0.0600 
    230 H230      -10.0430  -19.6041  -50.2046 H         1 UNK         0.3000 
    231 H231       -9.7037  -17.6755  -49.1498 H         1 UNK         0.0600 
    232 H232       -9.5246  -16.3133  -51.8943 H         1 UNK         0.0600 
    233 H233       -9.7652  -15.5222  -50.3460 H         1 UNK         0.0600 
    234 H234      -11.0076  -16.5888  -50.9829 H         1 UNK         0.0600 
    235 H235       -7.7876  -19.1539  -48.8316 H         1 UNK         0.3000 
    236 H236       -5.6549  -19.6566  -48.5383 H         1 UNK         0.0600 
    237 H237       -3.9298  -17.8705  -48.3294 H         1 UNK         0.0600 
    238 H238       -5.0469  -16.6737  -48.9685 H         1 UNK         0.0600 
    239 H239       -5.3758  -17.4627  -47.4310 H         1 UNK         0.0600 
    240 H240       -3.8101  -17.6656  -50.4539 H         1 UNK         0.3000 
    241 H241       -3.3942  -19.6480  -52.4801 H         1 UNK         0.0600 
    242 H242       -6.2046  -17.2452  -54.0964 H         1 UNK         0.3800 
    243 H243       -5.9200  -17.2724  -52.3792 H         1 UNK         0.3800 
    244 H244       -2.3300  -16.7842  -52.4083 H         1 UNK         0.0800 
    245 H245       -1.7254  -18.0864  -53.4055 H         1 UNK         0.0800 
    246 H246        0.9134  -17.9705  -52.5054 H         1 UNK         0.0800 
    247 H247        0.1870  -16.4569  -52.0152 H         1 UNK         0.0800 
@<TRIPOS>BOND
     1    1    2 1    
     2    1  127 1    
     3    1  128 1    
     4    1  129 1    
     5    2    3 2    
     6    2    4 am   BACKBONE|DICT|INTERRES
     7    4    5 1    
     8    4  130 1    
     9    5    6 1    
    10    5   65 1    
    11    5  131 1    
    12    6    7 1    
    13    6  132 1    
    14    6  133 1    
    15    7    8 1    
    16    8    9 1    
    17    8  134 1    
    18    8  135 1    
    19    9   10 ar   
    20    9   14 ar   
    21   10   11 ar   
    22   10  136 1    
    23   11   12 ar   
    24   11  126 1    
    25   12   13 ar   
    26   12  137 1    
    27   13   14 ar   
    28   13   15 1    
    29   14  138 1    
    30   15   16 1    
    31   15  139 1    
    32   15  140 1    
    33   16   17 1    
    34   17   18 1    
    35   17  141 1    
    36   17  142 1    
    37   18   19 1    
    38   18   67 1    
    39   18  143 1    
    40   19   20 am   BACKBONE|DICT|INTERRES
    41   19  144 1    
    42   20   21 2    
    43   20   22 1    
    44   22   23 1    
    45   22   24 1    
    46   22  145 1    
    47   23  146 1    
    48   23  147 1    
    49   23  148 1    
    50   24   25 am   BACKBONE|DICT|INTERRES
    51   24  149 1    
    52   25   26 2    
    53   25   27 1    
    54   27   28 1    
    55   27   29 1    
    56   27  150 1    
    57   28  151 1    
    58   28  152 1    
    59   28  153 1    
    60   29   30 am   BACKBONE|DICT|INTERRES
    61   29  154 1    
    62   30   31 2    
    63   30   32 1    
    64   32   33 1    
    65   32   34 1    
    66   32  155 1    
    67   33  156 1    
    68   33  157 1    
    69   33  158 1    
    70   34   35 am   BACKBONE|DICT|INTERRES
    71   34  159 1    
    72   35   36 2    
    73   35   37 1    
    74   37   38 1    
    75   37   39 1    
    76   37  160 1    
    77   38  161 1    
    78   38  162 1    
    79   38  163 1    
    80   39   40 am   BACKBONE|DICT|INTERRES
    81   39  164 1    
    82   40   41 2    
    83   40   42 1    
    84   42   43 1    
    85   42   44 1    
    86   42  165 1    
    87   43  166 1    
    88   43  167 1    
    89   43  168 1    
    90   44   45 am   BACKBONE|DICT|INTERRES
    91   44  169 1    
    92   45   46 2    
    93   45   47 1    
    94   47   48 1    
    95   47   49 1    
    96   47  170 1    
    97   48  171 1    
    98   48  172 1    
    99   48  173 1    
   100   49   50 am   BACKBONE|DICT|INTERRES
   101   49  174 1    
   102   50   51 2    
   103   50   52 1    
   104   52   53 1    
   105   52   54 1    
   106   52  175 1    
   107   53  176 1    
   108   53  177 1    
   109   53  178 1    
   110   54   55 am   BACKBONE|DICT|INTERRES
   111   54  179 1    
   112   55   56 2    
   113   55   57 1    
   114   57   58 1    
   115   57   59 1    
   116   57  180 1    
   117   58  181 1    
   118   58  182 1    
   119   58  183 1    
   120   59   60 am   BACKBONE|DICT|INTERRES
   121   59  184 1    
   122   60   61 2    
   123   60   62 1    
   124   62   63 1    
   125   62   64 1    
   126   62  185 1    
   127   63  186 1    
   128   63  187 1    
   129   63  188 1    
   130   64   65 am   BACKBONE|DICT|INTERRES
   131   64  189 1    
   132   65   66 2    
   133   67   68 2    
   134   67   69 am   BACKBONE|DICT|INTERRES
   135   69   70 1    
   136   69  190 1    
   137   70   71 1    
   138   70   72 1    
   139   70  191 1    
   140   71  192 1    
   141   71  193 1    
   142   71  194 1    
   143   72   73 2    
   144   72   74 am   BACKBONE|DICT|INTERRES
   145   74   75 1    
   146   74  195 1    
   147   75   76 1    
   148   75   77 1    
   149   75  196 1    
   150   76  197 1    
   151   76  198 1    
   152   76  199 1    
   153   77   78 2    
   154   77   79 am   BACKBONE|DICT|INTERRES
   155   79   80 1    
   156   79  200 1    
   157   80   81 1    
   158   80   82 1    
   159   80  201 1    
   160   81  202 1    
   161   81  203 1    
   162   81  204 1    
   163   82   83 2    
   164   82   84 am   BACKBONE|DICT|INTERRES
   165   84   85 1    
   166   84  205 1    
   167   85   86 1    
   168   85   87 1    
   169   85  206 1    
   170   86  207 1    
   171   86  208 1    
   172   86  209 1    
   173   87   88 2    
   174   87   89 am   BACKBONE|DICT|INTERRES
   175   89   90 1    
   176   89  210 1    
   177   90   91 1    
   178   90   92 1    
   179   90  211 1    
   180   91  212 1    
   181   91  213 1    
   182   91  214 1    
   183   92   93 2    
   184   92   94 am   BACKBONE|DICT|INTERRES
   185   94   95 1    
   186   94  215 1    
   187   95   96 1    
   188   95   97 1    
   189   95  216 1    
   190   96  217 1    
   191   96  218 1    
   192   96  219 1    
   193   97   98 2    
   194   97   99 am   BACKBONE|DICT|INTERRES
   195   99  100 1    
   196   99  220 1    
   197  100  101 1    
   198  100  102 1    
   199  100  221 1    
   200  101  222 1    
   201  101  223 1    
   202  101  224 1    
   203  102  103 2    
   204  102  104 am   BACKBONE|DICT|INTERRES
   205  104  105 1    
   206  104  225 1    
   207  105  106 1    
   208  105  107 1    
   209  105  226 1    
   210  106  227 1    
   211  106  228 1    
   212  106  229 1    
   213  107  108 2    
   214  107  109 am   BACKBONE|DICT|INTERRES
   215  109  110 1    
   216  109  230 1    
   217  110  111 1    
   218  110  112 1    
   219  110  231 1    
   220  111  232 1    
   221  111  233 1    
   222  111  234 1    
   223  112  113 2    
   224  112  114 am   BACKBONE|DICT|INTERRES
   225  114  115 1    
   226  114  235 1    
   227  115  116 1    
   228  115  117 1    
   229  115  236 1    
   230  116  237 1    
   231  116  238 1    
   232  116  239 1    
   233  117  118 2    
   234  117  119 am   BACKBONE|DICT|INTERRES
   235  119  120 1    
   236  119  240 1    
   237  120  121 1    
   238  120  124 1    
   239  120  241 1    
   240  121  122 am   BACKBONE|DICT|INTERRES
   241  121  123 2    
   242  122  242 1    
   243  122  243 1    
   244  124  125 1    
   245  124  244 1    
   246  124  245 1    
   247  125  126 1    
   248  126  246 1    
   249  126  247 1    
@<TRIPOS>SUBSTRUCTURE
     1 UNK         1 GROUP             0       ****    0 ROOT    
