@<TRIPOS>MOLECULE
3R540
247   249    1
SMALL
USER_CHARGES


@<TRIPOS>ATOM
      1 CA         -1.3289  -13.3262  -48.1035 C.3       0 UNK        -0.1800 
      2 C          -0.3983  -12.1234  -48.1357 C.2       0 UNK         0.5000 
      3 O          -0.8516  -10.9973  -47.9347 O.2       0 UNK        -0.5000 
      4 N           0.8982  -12.3559  -48.3865 N.am      1 UNK        -0.5000 
      5 CA          1.9363  -11.3183  -48.4708 C.3       1 UNK         0.1400 
      6 C6          3.2533  -11.8441  -49.0964 C.3       23 UNK        -0.0398 
      7 S7          3.9550  -13.3120  -48.2582 S.3       23 UNK        -0.2404 
      8 C8          4.4120  -14.3952  -49.6503 C.3       23 UNK        -0.0205 
      9 C9          3.3463  -15.4339  -49.9845 C.ar      23 UNK        -0.0193 
     10 C10         2.1099  -15.0426  -50.5082 C.ar      23 UNK        -0.1150 
     11 C11         1.1568  -15.9941  -50.8854 C.ar      23 UNK        -0.0193 
     12 C12         1.4731  -17.3505  -50.7671 C.ar      23 UNK        -0.1150 
     13 C13         2.6969  -17.7645  -50.2347 C.ar      23 UNK        -0.0193 
     14 C14         3.6232  -16.7978  -49.8302 C.ar      23 UNK        -0.1150 
     15 C15         3.0446  -19.2503  -50.1699 C.3       23 UNK        -0.0205 
     16 S16         2.3075  -20.1147  -48.7413 S.3       23 UNK        -0.2404 
     17 C17         0.5441  -20.1123  -49.1964 C.3       23 UNK        -0.0398 
     18 CA         -0.3209  -21.1789  -48.4812 C.3       11 UNK         0.1400 
     19 N          -0.2393  -21.1231  -47.0155 N.am      11 UNK        -0.5000 
     20 C          -0.8282  -22.0012  -46.1869 C.2       10 UNK         0.5000 
     21 O          -1.4207  -23.0089  -46.5684 O.2       10 UNK        -0.5000 
     22 CA         -0.8105  -21.6763  -44.6834 C.3       10 UNK         0.1400 
     23 CB          0.4465  -22.2412  -44.0042 C.3       10 UNK        -0.1800 
     24 N          -0.9186  -20.2380  -44.4375 N.am      10 UNK        -0.5000 
     25 C          -2.0518  -19.5355  -44.5933 C.2       9 UNK         0.5000 
     26 O          -3.1266  -20.0414  -44.9117 O.2       9 UNK        -0.5000 
     27 CA         -1.9600  -18.0071  -44.4154 C.3       9 UNK         0.1400 
     28 CB         -2.1134  -17.6190  -42.9373 C.3       9 UNK        -0.1800 
     29 N          -0.7057  -17.4616  -44.9326 N.am      9 UNK        -0.5000 
     30 C          -0.3383  -17.4981  -46.2211 C.2       8 UNK         0.5000 
     31 O          -1.0698  -17.8967  -47.1254 O.2       8 UNK        -0.5000 
     32 CA          1.1100  -17.0863  -46.5349 C.3       8 UNK         0.1400 
     33 CB          1.1814  -15.6221  -46.9736 C.3       8 UNK        -0.1800 
     34 N           2.0106  -17.2908  -45.4008 N.am      8 UNK        -0.5000 
     35 C           2.3727  -18.4843  -44.9120 C.2       7 UNK         0.5000 
     36 O           1.9336  -19.5447  -45.3551 O.2       7 UNK        -0.5000 
     37 CA          3.3181  -18.4967  -43.6903 C.3       7 UNK         0.1400 
     38 CB          4.3016  -19.6841  -43.7193 C.3       7 UNK        -0.1800 
     39 N           4.0185  -17.2252  -43.4704 N.am      7 UNK        -0.5000 
     40 C           4.9134  -16.6294  -44.2749 C.2       6 UNK         0.5000 
     41 O           5.3572  -17.1429  -45.3019 O.2       6 UNK        -0.5000 
     42 CA          5.3652  -15.2066  -43.8892 C.3       6 UNK         0.1400 
     43 CB          5.1643  -14.2324  -45.0599 C.3       6 UNK        -0.1800 
     44 N           4.6325  -14.6929  -42.7286 N.am      6 UNK        -0.5000 
     45 C           5.1506  -14.5218  -41.5054 C.2       5 UNK         0.5000 
     46 O           6.3351  -14.7127  -41.2280 O.2       5 UNK        -0.5000 
     47 CA          4.1761  -14.0892  -40.3912 C.3       5 UNK         0.1400 
     48 CB          4.2182  -12.5656  -40.2013 C.3       5 UNK        -0.1800 
     49 N           2.7920  -14.5170  -40.6242 N.am      5 UNK        -0.5000 
     50 C           2.3846  -15.7957  -40.6224 C.2       4 UNK         0.5000 
     51 O           3.1432  -16.7475  -40.4409 O.2       4 UNK        -0.5000 
     52 CA          0.8986  -16.0803  -40.9161 C.3       4 UNK         0.1400 
     53 CB          0.1254  -16.3181  -39.6110 C.3       4 UNK        -0.1800 
     54 N           0.2182  -15.0396  -41.6885 N.am      4 UNK        -0.5000 
     55 C           0.5355  -14.6652  -42.9335 C.2       3 UNK         0.5000 
     56 O           1.4818  -15.1459  -43.5624 O.2       3 UNK        -0.5000 
     57 CA         -0.3432  -13.5818  -43.5972 C.3       3 UNK         0.1400 
     58 CB         -1.3697  -12.9260  -42.6472 C.3       3 UNK        -0.1800 
     59 N           0.4656  -12.5552  -44.2593 N.am      3 UNK        -0.5000 
     60 C           1.4344  -11.8104  -43.7026 C.2       2 UNK         0.5000 
     61 O           1.7334  -11.8628  -42.5088 O.2       2 UNK        -0.5000 
     62 CA          2.2078  -10.8709  -44.6464 C.3       2 UNK         0.1400 
     63 CB          3.6710  -10.6697  -44.2094 C.3       2 UNK        -0.1800 
     64 N           2.1496  -11.3631  -46.0245 N.am      2 UNK        -0.5000 
     65 C           2.1777  -10.5995  -47.1234 C.2       1 UNK         0.5000 
     66 O           2.3433   -9.3787  -47.1057 O.2       1 UNK        -0.5000 
     67 C          -1.7806  -21.0427  -48.9622 C.2       11 UNK         0.5000 
     68 O          -2.2260  -21.8279  -49.7964 O.2       11 UNK        -0.5000 
     69 N          -2.5002  -20.0527  -48.4160 N.am      12 UNK        -0.5000 
     70 CA         -3.8998  -19.7709  -48.7316 C.3       12 UNK         0.1400 
     71 CB         -4.2898  -18.4178  -48.1186 C.3       12 UNK        -0.1800 
     72 C          -4.8679  -20.8772  -48.2730 C.2       12 UNK         0.5000 
     73 O          -5.8695  -21.1130  -48.9458 O.2       12 UNK        -0.5000 
     74 N          -4.5562  -21.5325  -47.1474 N.am      13 UNK        -0.5000 
     75 CA         -5.3526  -22.6126  -46.5630 C.3       13 UNK         0.1400 
     76 CB         -5.1131  -22.6337  -45.0454 C.3       13 UNK        -0.1800 
     77 C          -5.0608  -24.0019  -47.1634 C.2       13 UNK         0.5000 
     78 O          -5.8073  -24.9386  -46.8715 O.2       13 UNK        -0.5000 
     79 N          -3.9905  -24.1361  -47.9600 N.am      14 UNK        -0.5000 
     80 CA         -3.5066  -25.4031  -48.5140 C.3       14 UNK         0.1400 
     81 CB         -2.2190  -25.1598  -49.3143 C.3       14 UNK        -0.1800 
     82 C          -4.5571  -26.1418  -49.3662 C.2       14 UNK         0.5000 
     83 O          -5.2628  -25.5141  -50.1605 O.2       14 UNK        -0.5000 
     84 N          -4.6441  -27.4642  -49.1595 N.am      15 UNK        -0.5000 
     85 CA         -5.6031  -28.3947  -49.7691 C.3       15 UNK         0.1400 
     86 CB         -5.3203  -28.5532  -51.2783 C.3       15 UNK        -0.1800 
     87 C          -7.0718  -28.0206  -49.4714 C.2       15 UNK         0.5000 
     88 O          -7.9206  -28.1184  -50.3562 O.2       15 UNK        -0.5000 
     89 N          -7.3360  -27.5526  -48.2407 N.am      16 UNK        -0.5000 
     90 CA         -8.6116  -26.9881  -47.7744 C.3       16 UNK         0.1400 
     91 CB         -9.7124  -28.0683  -47.7180 C.3       16 UNK        -0.1800 
     92 C          -9.0210  -25.7388  -48.5863 C.2       16 UNK         0.5000 
     93 O         -10.1865  -25.5763  -48.9509 O.2       16 UNK        -0.5000 
     94 N          -8.0173  -24.8985  -48.8688 N.am      17 UNK        -0.5000 
     95 CA         -8.0411  -23.6720  -49.6683 C.3       17 UNK         0.1400 
     96 CB         -8.9669  -22.6146  -49.0324 C.3       17 UNK        -0.1800 
     97 C          -8.3171  -23.8866  -51.1720 C.2       17 UNK         0.5000 
     98 O          -8.6395  -22.9225  -51.8685 O.2       17 UNK        -0.5000 
     99 N          -8.1719  -25.1252  -51.6642 N.am      18 UNK        -0.5000 
    100 CA        -8.3325  -25.4666  -53.0790 C.3       18 UNK         0.1400 
    101 CB        -8.7996  -26.9247  -53.2024 C.3       18 UNK        -0.1800 
    102 C         -7.0459  -25.2506  -53.8981 C.2       18 UNK         0.5000 
    103 O         -7.1269  -25.2009  -55.1268 O.2       18 UNK        -0.5000 
    104 N         -5.8854  -25.1554  -53.2320 N.am      19 UNK        -0.5000 
    105 CA        -4.5843  -24.9748  -53.8759 C.3       19 UNK         0.1400 
    106 CB        -3.4723  -25.2270  -52.8490 C.3       19 UNK        -0.1800 
    107 C         -4.4160  -23.5734  -54.4905 C.2       19 UNK         0.5000 
    108 O         -4.9608  -22.5950  -53.9753 O.2       19 UNK        -0.5000 
    109 N         -3.6009  -23.5018  -55.5489 N.am      20 UNK        -0.5000 
    110 CA        -3.2219  -22.2663  -56.2407 C.3       20 UNK         0.1400 
    111 CB        -2.9779  -22.5948  -57.7232 C.3       20 UNK        -0.1800 
    112 C         -1.9851  -21.5820  -55.6183 C.2       20 UNK         0.5000 
    113 O         -1.5141  -20.5822  -56.1620 O.2       20 UNK        -0.5000 
    114 N         -1.4753  -22.1224  -54.5008 N.am      21 UNK        -0.5000 
    115 CA        -0.2371  -21.7314  -53.8164 C.3       21 UNK         0.1400 
    116 CB        -0.0232  -22.6662  -52.6150 C.3       21 UNK        -0.1800 
    117 C         -0.1489  -20.2567  -53.3723 C.2       21 UNK         0.5000 
    118 O          0.9620  -19.7560  -53.2017 O.2       21 UNK        -0.5000 
    119 N         -1.2985  -19.5922  -53.2064 N.am      22 UNK        -0.5000 
    120 CA        -1.4222  -18.1504  -52.9345 C.3       22 UNK         0.1400 
    121 C         -2.2210  -17.4024  -54.0455 C.2       22 UNK         0.5000 
    122 N         -2.4033  -17.9715  -55.2318 N.am      22 UNK        -0.7600 
    123 O         -2.6757  -16.2802  -53.8469 O.2       22 UNK        -0.5000 
    124 C124       -1.9791  -17.9102  -51.5015 C.3       23 UNK        -0.0398 
    125 S125       -1.6287  -16.3226  -50.6452 S.3       23 UNK        -0.2404 
    126 C126       -0.1861  -15.5384  -51.4536 C.3       23 UNK        -0.0205 
    127 H127       -2.3295  -13.0422  -48.4296 H         1 UNK         0.0600 
    128 H128       -1.4003  -13.7277  -47.0929 H         1 UNK         0.0600 
    129 H129       -0.9775  -14.1129  -48.7684 H         1 UNK         0.0600 
    130 H130        1.2197  -13.3014  -48.5345 H         1 UNK         0.3000 
    131 H131        1.5539  -10.5544  -49.1516 H         1 UNK         0.0600 
    132 H132        4.0120  -11.0595  -49.1052 H         1 UNK         0.0800 
    133 H133        3.0758  -12.0775  -50.1460 H         1 UNK         0.0800 
    134 H134        4.6344  -13.8004  -50.5371 H         1 UNK         0.0800 
    135 H135        5.3467  -14.8927  -49.3878 H         1 UNK         0.0800 
    136 H136        1.8945  -13.9931  -50.6407 H         1 UNK         0.1150 
    137 H137        0.7677  -18.0936  -51.0979 H         1 UNK         0.1150 
    138 H138        4.5793  -17.1100  -49.4341 H         1 UNK         0.1150 
    139 H139        2.7336  -19.7415  -51.0929 H         1 UNK         0.0800 
    140 H140        4.1274  -19.3732  -50.1206 H         1 UNK         0.0800 
    141 H141        0.1580  -19.1113  -49.0067 H         1 UNK         0.0800 
    142 H142        0.4794  -20.2660  -50.2749 H         1 UNK         0.0800 
    143 H143        0.0366  -22.1641  -48.7884 H         1 UNK         0.0600 
    144 H144        0.2913  -20.3586  -46.6165 H         1 UNK         0.3000 
    145 H145       -1.6760  -22.1631  -44.2288 H         1 UNK         0.0600 
    146 H146        0.4690  -21.9934  -42.9430 H         1 UNK         0.0600 
    147 H147        0.4699  -23.3286  -44.0843 H         1 UNK         0.0600 
    148 H148        1.3635  -21.8665  -44.4574 H         1 UNK         0.0600 
    149 H149       -0.0544  -19.7491  -44.2535 H         1 UNK         0.3000 
    150 H150       -2.7818  -17.5566  -44.9760 H         1 UNK         0.0600 
    151 H151       -3.0490  -18.0041  -42.5294 H         1 UNK         0.0600 
    152 H152       -2.1294  -16.5365  -42.8127 H         1 UNK         0.0600 
    153 H153       -1.3022  -18.0179  -42.3275 H         1 UNK         0.0600 
    154 H154       -0.0339  -17.1221  -44.2607 H         1 UNK         0.3000 
    155 H155        1.4644  -17.7016  -47.3620 H         1 UNK         0.0600 
    156 H156        0.6388  -15.4856  -47.9077 H         1 UNK         0.0600 
    157 H157        2.2132  -15.3242  -47.1505 H         1 UNK         0.0600 
    158 H158        0.7564  -14.9486  -46.2301 H         1 UNK         0.0600 
    159 H159        2.3206  -16.4573  -44.9156 H         1 UNK         0.3000 
    160 H160        2.6738  -18.6316  -42.8207 H         1 UNK         0.0600 
    161 H161        4.9571  -19.6750  -42.8485 H         1 UNK         0.0600 
    162 H162        4.9267  -19.6728  -44.6124 H         1 UNK         0.0600 
    163 H163        3.7665  -20.6344  -43.7113 H         1 UNK         0.0600 
    164 H164        3.7592  -16.7349  -42.6247 H         1 UNK         0.3000 
    165 H165        6.4348  -15.2654  -43.6791 H         1 UNK         0.0600 
    166 H166        4.1065  -14.0747  -45.2742 H         1 UNK         0.0600 
    167 H167        5.6170  -13.2657  -44.8440 H         1 UNK         0.0600 
    168 H168        5.6345  -14.6019  -45.9721 H         1 UNK         0.0600 
    169 H169        3.6438  -14.5196  -42.8627 H         1 UNK         0.3000 
    170 H170        4.5141  -14.5538  -39.4625 H         1 UNK         0.0600 
    171 H171        5.2205  -12.2369  -39.9239 H         1 UNK         0.0600 
    172 H172        3.9456  -12.0373  -41.1148 H         1 UNK         0.0600 
    173 H173        3.5405  -12.2444  -39.4102 H         1 UNK         0.0600 
    174 H174        2.1201  -13.7892  -40.8281 H         1 UNK         0.3000 
    175 H175        0.8620  -17.0003  -41.5029 H         1 UNK         0.0600 
    176 H176        0.0977  -15.4209  -38.9913 H         1 UNK         0.0600 
    177 H177       -0.9025  -16.6216  -39.8108 H         1 UNK         0.0600 
    178 H178        0.5871  -17.1110  -39.0208 H         1 UNK         0.0600 
    179 H179       -0.5550  -14.5777  -41.2319 H         1 UNK         0.3000 
    180 H180       -0.9007  -14.0915  -44.3842 H         1 UNK         0.0600 
    181 H181       -0.8892  -12.4297  -41.8031 H         1 UNK         0.0600 
    182 H182       -2.0730  -13.6599  -42.2516 H         1 UNK         0.0600 
    183 H183       -1.9606  -12.1765  -43.1739 H         1 UNK         0.0600 
    184 H184        0.2692  -12.4075  -45.2372 H         1 UNK         0.3000 
    185 H185        1.6985   -9.9064  -44.5954 H         1 UNK         0.0600 
    186 H186        3.7242  -10.1926  -43.2301 H         1 UNK         0.0600 
    187 H187        4.1981  -11.6192  -44.1368 H         1 UNK         0.0600 
    188 H188        4.2144  -10.0337  -44.9081 H         1 UNK         0.0600 
    189 H189        2.0639  -12.3630  -46.1374 H         1 UNK         0.3000 
    190 H190       -2.0420  -19.4052  -47.7794 H         1 UNK         0.3000 
    191 H191       -3.9881  -19.6906  -49.8167 H         1 UNK         0.0600 
    192 H192       -3.6552  -17.6161  -48.4974 H         1 UNK         0.0600 
    193 H193       -5.3211  -18.1600  -48.3623 H         1 UNK         0.0600 
    194 H194       -4.2002  -18.4292  -47.0319 H         1 UNK         0.0600 
    195 H195       -3.7488  -21.2281  -46.6164 H         1 UNK         0.3000 
    196 H196       -6.4111  -22.4050  -46.7325 H         1 UNK         0.0600 
    197 H197       -5.7136  -23.4049  -44.5614 H         1 UNK         0.0600 
    198 H198       -5.3843  -21.6808  -44.5906 H         1 UNK         0.0600 
    199 H199       -4.0674  -22.8331  -44.8083 H         1 UNK         0.0600 
    200 H200       -3.4292  -23.3181  -48.1541 H         1 UNK         0.3000 
    201 H201       -3.2523  -26.0381  -47.6630 H         1 UNK         0.0600 
    202 H202       -1.4238  -24.7783  -48.6740 H         1 UNK         0.0600 
    203 H203       -2.3726  -24.4369  -50.1131 H         1 UNK         0.0600 
    204 H204       -1.8554  -26.0819  -49.7694 H         1 UNK         0.0600 
    205 H205       -4.0188  -27.8802  -48.4833 H         1 UNK         0.3000 
    206 H206       -5.4356  -29.3646  -49.2987 H         1 UNK         0.0600 
    207 H207       -5.5460  -27.6418  -51.8312 H         1 UNK         0.0600 
    208 H208       -4.2761  -28.8063  -51.4608 H         1 UNK         0.0600 
    209 H209       -5.9270  -29.3513  -51.7075 H         1 UNK         0.0600 
    210 H210       -6.5648  -27.4718  -47.5920 H         1 UNK         0.3000 
    211 H211       -8.4383  -26.6423  -46.7542 H         1 UNK         0.0600 
    212 H212       -9.9911  -28.4199  -48.7117 H         1 UNK         0.0600 
    213 H213      -10.6152  -27.6787  -47.2463 H         1 UNK         0.0600 
    214 H214       -9.3888  -28.9306  -47.1352 H         1 UNK         0.0600 
    215 H215       -7.1021  -25.1468  -48.5093 H         1 UNK         0.3000 
    216 H216       -7.0224  -23.2895  -49.6229 H         1 UNK         0.0600 
    217 H217       -8.7343  -22.4708  -47.9773 H         1 UNK         0.0600 
    218 H218      -10.0177  -22.8934  -49.1126 H         1 UNK         0.0600 
    219 H219       -8.8468  -21.6470  -49.5210 H         1 UNK         0.0600 
    220 H220       -7.9105  -25.8762  -51.0383 H         1 UNK         0.3000 
    221 H221       -9.1102  -24.8342  -53.5126 H         1 UNK         0.0600 
    222 H222       -8.0153  -27.6246  -52.9135 H         1 UNK         0.0600 
    223 H223       -9.6724  -27.1182  -52.5784 H         1 UNK         0.0600 
    224 H224       -9.0764  -27.1572  -54.2314 H         1 UNK         0.0600 
    225 H225       -5.8913  -25.1782  -52.2186 H         1 UNK         0.3000 
    226 H226       -4.4957  -25.7197  -54.6697 H         1 UNK         0.0600 
    227 H227       -3.5613  -26.2147  -52.3973 H         1 UNK         0.0600 
    228 H228       -2.4852  -25.1703  -53.3091 H         1 UNK         0.0600 
    229 H229       -3.5072  -24.4846  -52.0522 H         1 UNK         0.0600 
    230 H230       -3.1813  -24.3509  -55.9013 H         1 UNK         0.3000 
    231 H231       -4.0463  -21.5523  -56.1854 H         1 UNK         0.0600 
    232 H232       -2.7524  -21.6936  -58.2949 H         1 UNK         0.0600 
    233 H233       -3.8592  -23.0495  -58.1761 H         1 UNK         0.0600 
    234 H234       -2.1414  -23.2827  -57.8512 H         1 UNK         0.0600 
    235 H235       -1.9500  -22.9278  -54.1236 H         1 UNK         0.3000 
    236 H236        0.5814  -21.8938  -54.5205 H         1 UNK         0.0600 
    237 H237        0.0808  -23.7031  -52.9351 H         1 UNK         0.0600 
    238 H238       -0.8571  -22.6155  -51.9153 H         1 UNK         0.0600 
    239 H239        0.8830  -22.4054  -52.0664 H         1 UNK         0.0600 
    240 H240       -2.1635  -20.0836  -53.3805 H         1 UNK         0.3000 
    241 H241       -0.4238  -17.7269  -52.9988 H         1 UNK         0.0600 
    242 H242       -2.9161  -17.4691  -55.9389 H         1 UNK         0.3800 
    243 H243       -1.9934  -18.8722  -55.4622 H         1 UNK         0.3800 
    244 H244       -1.5880  -18.6801  -50.8379 H         1 UNK         0.0800 
    245 H245       -3.0597  -18.0596  -51.4947 H         1 UNK         0.0800 
    246 H246       -0.2051  -15.6503  -52.5356 H         1 UNK         0.0800 
    247 H247       -0.2949  -14.4656  -51.2878 H         1 UNK         0.0800 
@<TRIPOS>BOND
     1    1    2 1    
     2    1  127 1    
     3    1  128 1    
     4    1  129 1    
     5    2    3 2    
     6    2    4 am   BACKBONE|DICT|INTERRES
     7    4    5 1    
     8    4  130 1    
     9    5    6 1    
    10    5   65 1    
    11    5  131 1    
    12    6    7 1    
    13    6  132 1    
    14    6  133 1    
    15    7    8 1    
    16    8    9 1    
    17    8  134 1    
    18    8  135 1    
    19    9   10 ar   
    20    9   14 ar   
    21   10   11 ar   
    22   10  136 1    
    23   11   12 ar   
    24   11  126 1    
    25   12   13 ar   
    26   12  137 1    
    27   13   14 ar   
    28   13   15 1    
    29   14  138 1    
    30   15   16 1    
    31   15  139 1    
    32   15  140 1    
    33   16   17 1    
    34   17   18 1    
    35   17  141 1    
    36   17  142 1    
    37   18   19 1    
    38   18   67 1    
    39   18  143 1    
    40   19   20 am   BACKBONE|DICT|INTERRES
    41   19  144 1    
    42   20   21 2    
    43   20   22 1    
    44   22   23 1    
    45   22   24 1    
    46   22  145 1    
    47   23  146 1    
    48   23  147 1    
    49   23  148 1    
    50   24   25 am   BACKBONE|DICT|INTERRES
    51   24  149 1    
    52   25   26 2    
    53   25   27 1    
    54   27   28 1    
    55   27   29 1    
    56   27  150 1    
    57   28  151 1    
    58   28  152 1    
    59   28  153 1    
    60   29   30 am   BACKBONE|DICT|INTERRES
    61   29  154 1    
    62   30   31 2    
    63   30   32 1    
    64   32   33 1    
    65   32   34 1    
    66   32  155 1    
    67   33  156 1    
    68   33  157 1    
    69   33  158 1    
    70   34   35 am   BACKBONE|DICT|INTERRES
    71   34  159 1    
    72   35   36 2    
    73   35   37 1    
    74   37   38 1    
    75   37   39 1    
    76   37  160 1    
    77   38  161 1    
    78   38  162 1    
    79   38  163 1    
    80   39   40 am   BACKBONE|DICT|INTERRES
    81   39  164 1    
    82   40   41 2    
    83   40   42 1    
    84   42   43 1    
    85   42   44 1    
    86   42  165 1    
    87   43  166 1    
    88   43  167 1    
    89   43  168 1    
    90   44   45 am   BACKBONE|DICT|INTERRES
    91   44  169 1    
    92   45   46 2    
    93   45   47 1    
    94   47   48 1    
    95   47   49 1    
    96   47  170 1    
    97   48  171 1    
    98   48  172 1    
    99   48  173 1    
   100   49   50 am   BACKBONE|DICT|INTERRES
   101   49  174 1    
   102   50   51 2    
   103   50   52 1    
   104   52   53 1    
   105   52   54 1    
   106   52  175 1    
   107   53  176 1    
   108   53  177 1    
   109   53  178 1    
   110   54   55 am   BACKBONE|DICT|INTERRES
   111   54  179 1    
   112   55   56 2    
   113   55   57 1    
   114   57   58 1    
   115   57   59 1    
   116   57  180 1    
   117   58  181 1    
   118   58  182 1    
   119   58  183 1    
   120   59   60 am   BACKBONE|DICT|INTERRES
   121   59  184 1    
   122   60   61 2    
   123   60   62 1    
   124   62   63 1    
   125   62   64 1    
   126   62  185 1    
   127   63  186 1    
   128   63  187 1    
   129   63  188 1    
   130   64   65 am   BACKBONE|DICT|INTERRES
   131   64  189 1    
   132   65   66 2    
   133   67   68 2    
   134   67   69 am   BACKBONE|DICT|INTERRES
   135   69   70 1    
   136   69  190 1    
   137   70   71 1    
   138   70   72 1    
   139   70  191 1    
   140   71  192 1    
   141   71  193 1    
   142   71  194 1    
   143   72   73 2    
   144   72   74 am   BACKBONE|DICT|INTERRES
   145   74   75 1    
   146   74  195 1    
   147   75   76 1    
   148   75   77 1    
   149   75  196 1    
   150   76  197 1    
   151   76  198 1    
   152   76  199 1    
   153   77   78 2    
   154   77   79 am   BACKBONE|DICT|INTERRES
   155   79   80 1    
   156   79  200 1    
   157   80   81 1    
   158   80   82 1    
   159   80  201 1    
   160   81  202 1    
   161   81  203 1    
   162   81  204 1    
   163   82   83 2    
   164   82   84 am   BACKBONE|DICT|INTERRES
   165   84   85 1    
   166   84  205 1    
   167   85   86 1    
   168   85   87 1    
   169   85  206 1    
   170   86  207 1    
   171   86  208 1    
   172   86  209 1    
   173   87   88 2    
   174   87   89 am   BACKBONE|DICT|INTERRES
   175   89   90 1    
   176   89  210 1    
   177   90   91 1    
   178   90   92 1    
   179   90  211 1    
   180   91  212 1    
   181   91  213 1    
   182   91  214 1    
   183   92   93 2    
   184   92   94 am   BACKBONE|DICT|INTERRES
   185   94   95 1    
   186   94  215 1    
   187   95   96 1    
   188   95   97 1    
   189   95  216 1    
   190   96  217 1    
   191   96  218 1    
   192   96  219 1    
   193   97   98 2    
   194   97   99 am   BACKBONE|DICT|INTERRES
   195   99  100 1    
   196   99  220 1    
   197  100  101 1    
   198  100  102 1    
   199  100  221 1    
   200  101  222 1    
   201  101  223 1    
   202  101  224 1    
   203  102  103 2    
   204  102  104 am   BACKBONE|DICT|INTERRES
   205  104  105 1    
   206  104  225 1    
   207  105  106 1    
   208  105  107 1    
   209  105  226 1    
   210  106  227 1    
   211  106  228 1    
   212  106  229 1    
   213  107  108 2    
   214  107  109 am   BACKBONE|DICT|INTERRES
   215  109  110 1    
   216  109  230 1    
   217  110  111 1    
   218  110  112 1    
   219  110  231 1    
   220  111  232 1    
   221  111  233 1    
   222  111  234 1    
   223  112  113 2    
   224  112  114 am   BACKBONE|DICT|INTERRES
   225  114  115 1    
   226  114  235 1    
   227  115  116 1    
   228  115  117 1    
   229  115  236 1    
   230  116  237 1    
   231  116  238 1    
   232  116  239 1    
   233  117  118 2    
   234  117  119 am   BACKBONE|DICT|INTERRES
   235  119  120 1    
   236  119  240 1    
   237  120  121 1    
   238  120  124 1    
   239  120  241 1    
   240  121  122 am   BACKBONE|DICT|INTERRES
   241  121  123 2    
   242  122  242 1    
   243  122  243 1    
   244  124  125 1    
   245  124  244 1    
   246  124  245 1    
   247  125  126 1    
   248  126  246 1    
   249  126  247 1    
@<TRIPOS>SUBSTRUCTURE
     1 UNK         1 GROUP             0       ****    0 ROOT    
