@<TRIPOS>MOLECULE
3R540
247   249    1
SMALL
USER_CHARGES


@<TRIPOS>ATOM
      1 CA         -2.9161  -15.6940  -47.2530 C.3       0 UNK        -0.1800 
      2 C          -2.5452  -14.3550  -47.8744 C.2       0 UNK         0.5000 
      3 O          -3.1024  -13.3269  -47.4905 O.2       0 UNK        -0.5000 
      4 N          -1.6049  -14.3610  -48.8286 N.am      1 UNK        -0.5000 
      5 CA         -1.1214  -13.1632  -49.5341 C.3       1 UNK         0.1400 
      6 C6         -0.5536  -13.5018  -50.9350 C.3       23 UNK        -0.0398 
      7 S7         -1.8595  -14.0937  -52.0637 S.3       23 UNK        -0.2404 
      8 C8         -0.9077  -15.1565  -53.2035 C.3       23 UNK        -0.0205 
      9 C9         -0.3775  -16.4556  -52.5976 C.ar      23 UNK        -0.0193 
     10 C10         0.7378  -17.0676  -53.1791 C.ar      23 UNK        -0.1150 
     11 C11         1.2315  -18.2798  -52.6859 C.ar      23 UNK        -0.0193 
     12 C12         0.6094  -18.8756  -51.5872 C.ar      23 UNK        -0.1150 
     13 C13        -0.5146  -18.2857  -51.0065 C.ar      23 UNK        -0.0193 
     14 C14        -1.0025  -17.0795  -51.5116 C.ar      23 UNK        -0.1150 
     15 C15        -1.2257  -18.9721  -49.8583 C.3       23 UNK        -0.0205 
     16 S16        -0.4740  -18.5536  -48.2590 S.3       23 UNK        -0.2404 
     17 C17        -1.5828  -19.5005  -47.1693 C.3       23 UNK        -0.0398 
     18 CA         -1.1436  -20.9794  -47.0740 C.3       11 UNK         0.1400 
     19 N           0.0305  -21.1719  -46.2232 N.am      11 UNK        -0.5000 
     20 C           0.7473  -22.3018  -46.1629 C.2       10 UNK         0.5000 
     21 O           0.5196  -23.2908  -46.8574 O.2       10 UNK        -0.5000 
     22 CA          1.8750  -22.3582  -45.1172 C.3       10 UNK         0.1400 
     23 CB          3.1443  -21.6688  -45.6388 C.3       10 UNK        -0.1800 
     24 N           1.4792  -21.7749  -43.8341 N.am      10 UNK        -0.5000 
     25 C           0.5005  -22.2604  -43.0560 C.2       9 UNK         0.5000 
     26 O          -0.1360  -23.2817  -43.3179 O.2       9 UNK        -0.5000 
     27 CA          0.1410  -21.4484  -41.7983 C.3       9 UNK         0.1400 
     28 CB          1.1397  -21.7270  -40.6654 C.3       9 UNK        -0.1800 
     29 N           0.0711  -20.0086  -42.0531 N.am      9 UNK        -0.5000 
     30 C          -0.8097  -19.4235  -42.8783 C.2       8 UNK         0.5000 
     31 O          -1.6901  -20.0342  -43.4832 O.2       8 UNK        -0.5000 
     32 CA         -0.6431  -17.9119  -43.1193 C.3       8 UNK         0.1400 
     33 CB         -1.2236  -17.0966  -41.9549 C.3       8 UNK        -0.1800 
     34 N           0.7511  -17.5315  -43.3409 N.am      8 UNK        -0.5000 
     35 C           1.5142  -17.9883  -44.3432 C.2       7 UNK         0.5000 
     36 O           1.1104  -18.7548  -45.2145 O.2       7 UNK        -0.5000 
     37 CA          2.9917  -17.5690  -44.3371 C.3       7 UNK         0.1400 
     38 CB          3.1645  -16.1542  -44.9063 C.3       7 UNK        -0.1800 
     39 N           3.5690  -17.6469  -42.9961 N.am      7 UNK        -0.5000 
     40 C           3.8024  -18.7954  -42.3447 C.2       6 UNK         0.5000 
     41 O           3.5896  -19.9096  -42.8225 O.2       6 UNK        -0.5000 
     42 CA          4.3236  -18.6756  -40.9015 C.3       6 UNK         0.1400 
     43 CB          5.8446  -18.4623  -40.8890 C.3       6 UNK        -0.1800 
     44 N           3.6743  -17.5932  -40.1610 N.am      6 UNK        -0.5000 
     45 C           2.3788  -17.5855  -39.8175 C.2       5 UNK         0.5000 
     46 O           1.6002  -18.5068  -40.0611 O.2       5 UNK        -0.5000 
     47 CA          1.8564  -16.3125  -39.1276 C.3       5 UNK         0.1400 
     48 CB          2.1127  -16.3737  -37.6144 C.3       5 UNK        -0.1800 
     49 N           2.4270  -15.0752  -39.6698 N.am      5 UNK        -0.5000 
     50 C           2.2838  -14.6643  -40.9366 C.2       4 UNK         0.5000 
     51 O           1.7215  -15.3258  -41.8109 O.2       4 UNK        -0.5000 
     52 CA          2.9057  -13.3036  -41.2984 C.3       4 UNK         0.1400 
     53 CB          4.2769  -13.5033  -41.9623 C.3       4 UNK        -0.1800 
     54 N           2.0480  -12.5306  -42.1981 N.am      4 UNK        -0.5000 
     55 C           0.8244  -12.0762  -41.8914 C.2       3 UNK         0.5000 
     56 O           0.3039  -12.2213  -40.7838 O.2       3 UNK        -0.5000 
     57 CA          0.0556  -11.3013  -42.9805 C.3       3 UNK         0.1400 
     58 CB         -0.0906   -9.8226  -42.5845 C.3       3 UNK        -0.1800 
     59 N           0.6723  -11.3651  -44.3087 N.am      3 UNK        -0.5000 
     60 C           0.5058  -12.3672  -45.1794 C.2       2 UNK         0.5000 
     61 O          -0.1192  -13.4015  -44.9327 O.2       2 UNK        -0.5000 
     62 CA          1.1462  -12.1731  -46.5610 C.3       2 UNK         0.1400 
     63 CB          2.5764  -12.7324  -46.5961 C.3       2 UNK        -0.1800 
     64 N           0.3272  -12.8643  -47.5512 N.am      2 UNK        -0.5000 
     65 C          -0.1081  -12.3405  -48.7034 C.2       1 UNK         0.5000 
     66 O           0.2471  -11.2360  -49.1185 O.2       1 UNK        -0.5000 
     67 C          -2.3196  -21.8804  -46.6597 C.2       11 UNK         0.5000 
     68 O          -2.9601  -22.4549  -47.5390 O.2       11 UNK        -0.5000 
     69 N          -2.5677  -22.0246  -45.3508 N.am      12 UNK        -0.5000 
     70 CA         -3.5967  -22.9102  -44.7980 C.3       12 UNK         0.1400 
     71 CB         -3.7270  -22.6679  -43.2870 C.3       12 UNK        -0.1800 
     72 C          -3.3358  -24.4005  -45.0926 C.2       12 UNK         0.5000 
     73 O          -4.2885  -25.1524  -45.2994 O.2       12 UNK        -0.5000 
     74 N          -2.0549  -24.7920  -45.1373 N.am      13 UNK        -0.5000 
     75 CA         -1.6051  -26.1183  -45.5645 C.3       13 UNK         0.1400 
     76 CB         -0.1701  -26.3432  -45.0629 C.3       13 UNK        -0.1800 
     77 C          -1.6891  -26.3243  -47.0929 C.2       13 UNK         0.5000 
     78 O          -1.7301  -27.4707  -47.5425 O.2       13 UNK        -0.5000 
     79 N          -1.7083  -25.2243  -47.8562 N.am      14 UNK        -0.5000 
     80 CA         -1.8689  -25.1821  -49.3065 C.3       14 UNK         0.1400 
     81 CB         -0.9342  -24.0985  -49.8802 C.3       14 UNK        -0.1800 
     82 C          -3.3563  -24.9790  -49.6677 C.2       14 UNK         0.5000 
     83 O          -4.2148  -25.6663  -49.1108 O.2       14 UNK        -0.5000 
     84 N          -3.6451  -24.0651  -50.6042 N.am      15 UNK        -0.5000 
     85 CA         -4.9839  -23.8109  -51.1410 C.3       15 UNK         0.1400 
     86 CB         -4.8888  -23.7133  -52.6715 C.3       15 UNK        -0.1800 
     87 C          -5.6541  -22.5618  -50.5348 C.2       15 UNK         0.5000 
     88 O          -6.6258  -22.0704  -51.1088 O.2       15 UNK        -0.5000 
     89 N          -5.1385  -22.0505  -49.4052 N.am      16 UNK        -0.5000 
     90 CA         -5.6955  -20.9487  -48.6046 C.3       16 UNK         0.1400 
     91 CB         -6.9899  -21.4060  -47.9016 C.3       16 UNK        -0.1800 
     92 C          -5.8713  -19.6250  -49.3815 C.2       16 UNK         0.5000 
     93 O          -6.7972  -18.8626  -49.1013 O.2       16 UNK        -0.5000 
     94 N          -4.9739  -19.3896  -50.3502 N.am      17 UNK        -0.5000 
     95 CA         -4.9384  -18.2461  -51.2704 C.3       17 UNK         0.1400 
     96 CB         -4.7611  -16.9147  -50.5079 C.3       17 UNK        -0.1800 
     97 C          -6.1105  -18.2036  -52.2781 C.2       17 UNK         0.5000 
     98 O          -6.3725  -17.1449  -52.8521 O.2       17 UNK        -0.5000 
     99 N          -6.7808  -19.3444  -52.5005 N.am      18 UNK        -0.5000 
    100 CA        -7.8069  -19.5242  -53.5297 C.3       18 UNK         0.1400 
    101 CB        -8.8245  -20.5739  -53.0412 C.3       18 UNK        -0.1800 
    102 C         -7.1639  -19.8873  -54.8881 C.2       18 UNK         0.5000 
    103 O         -6.0373  -19.4722  -55.1700 O.2       18 UNK        -0.5000 
    104 N         -7.8822  -20.6528  -55.7217 N.am      19 UNK        -0.5000 
    105 CA        -7.3801  -21.2020  -56.9831 C.3       19 UNK         0.1400 
    106 CB        -8.5301  -21.8968  -57.7280 C.3       19 UNK        -0.1800 
    107 C         -6.2161  -22.1801  -56.7330 C.2       19 UNK         0.5000 
    108 O         -6.3427  -23.0564  -55.8751 O.2       19 UNK        -0.5000 
    109 N         -5.1109  -21.9923  -57.4703 N.am      20 UNK        -0.5000 
    110 CA        -3.8188  -22.6722  -57.2992 C.3       20 UNK         0.1400 
    111 CB        -3.9280  -24.1721  -57.6474 C.3       20 UNK        -0.1800 
    112 C         -3.2105  -22.4112  -55.9027 C.2       20 UNK         0.5000 
    113 O         -2.7591  -23.3465  -55.2399 O.2       20 UNK        -0.5000 
    114 N         -3.2375  -21.1302  -55.4981 N.am      21 UNK        -0.5000 
    115 CA        -2.9163  -20.5612  -54.1822 C.3       21 UNK         0.1400 
    116 CB        -2.6533  -19.0557  -54.3538 C.3       21 UNK        -0.1800 
    117 C         -1.7444  -21.2084  -53.4231 C.2       21 UNK         0.5000 
    118 O         -1.8901  -21.5324  -52.2425 O.2       21 UNK        -0.5000 
    119 N         -0.6206  -21.3854  -54.1267 N.am      22 UNK        -0.5000 
    120 CA         0.6240  -21.9594  -53.5969 C.3       22 UNK         0.1400 
    121 C          0.6008  -23.5039  -53.3940 C.2       22 UNK         0.5000 
    122 N         -0.4294  -24.2268  -53.8173 N.am      22 UNK        -0.7600 
    123 O          1.5414  -24.0599  -52.8340 O.2       22 UNK        -0.5000 
    124 C124        1.8698  -21.5352  -54.4225 C.3       23 UNK        -0.0398 
    125 S125        1.9416  -19.7706  -54.9005 S.3       23 UNK        -0.2404 
    126 C126        2.4278  -18.9426  -53.3525 C.3       23 UNK        -0.0205 
    127 H127       -2.5211  -16.5272  -47.8313 H         1 UNK         0.0600 
    128 H128       -3.9998  -15.8020  -47.2074 H         1 UNK         0.0600 
    129 H129       -2.5203  -15.7610  -46.2395 H         1 UNK         0.0600 
    130 H130       -1.1760  -15.2336  -49.1019 H         1 UNK         0.3000 
    131 H131       -1.9744  -12.4982  -49.6873 H         1 UNK         0.0600 
    132 H132       -0.1039  -12.6229  -51.4005 H         1 UNK         0.0800 
    133 H133        0.2398  -14.2468  -50.8554 H         1 UNK         0.0800 
    134 H134       -1.5503  -15.4155  -54.0458 H         1 UNK         0.0800 
    135 H135       -0.0828  -14.5711  -53.6130 H         1 UNK         0.0800 
    136 H136        1.2162  -16.6093  -54.0335 H         1 UNK         0.1150 
    137 H137        0.9864  -19.8060  -51.1886 H         1 UNK         0.1150 
    138 H138       -1.8821  -16.6413  -51.0652 H         1 UNK         0.1150 
    139 H139       -2.2768  -18.6879  -49.8481 H         1 UNK         0.0800 
    140 H140       -1.2011  -20.0518  -50.0106 H         1 UNK         0.0800 
    141 H141       -2.6001  -19.4043  -47.5539 H         1 UNK         0.0800 
    142 H142       -1.5913  -19.0357  -46.1823 H         1 UNK         0.0800 
    143 H143       -0.8579  -21.3110  -48.0732 H         1 UNK         0.0600 
    144 H144        0.3321  -20.3674  -45.6772 H         1 UNK         0.3000 
    145 H145        2.1108  -23.4102  -44.9435 H         1 UNK         0.0600 
    146 H146        3.9674  -21.7718  -44.9317 H         1 UNK         0.0600 
    147 H147        3.4680  -22.1106  -46.5820 H         1 UNK         0.0600 
    148 H148        2.9844  -20.6050  -45.8132 H         1 UNK         0.0600 
    149 H149        1.9873  -20.9498  -43.5328 H         1 UNK         0.3000 
    150 H150       -0.8466  -21.7744  -41.4658 H         1 UNK         0.0600 
    151 H151        1.2026  -22.7950  -40.4530 H         1 UNK         0.0600 
    152 H152        0.8374  -21.2295  -39.7437 H         1 UNK         0.0600 
    153 H153        2.1426  -21.3814  -40.9177 H         1 UNK         0.0600 
    154 H154        0.7377  -19.4266  -41.5540 H         1 UNK         0.3000 
    155 H155       -1.2004  -17.6555  -44.0224 H         1 UNK         0.0600 
    156 H156       -1.1521  -16.0262  -42.1500 H         1 UNK         0.0600 
    157 H157       -0.7021  -17.3010  -41.0200 H         1 UNK         0.0600 
    158 H158       -2.2776  -17.3315  -41.8018 H         1 UNK         0.0600 
    159 H159        1.1505  -16.8565  -42.6925 H         1 UNK         0.3000 
    160 H160        3.5395  -18.2593  -44.9821 H         1 UNK         0.0600 
    161 H161        2.6038  -15.4125  -44.3368 H         1 UNK         0.0600 
    162 H162        2.8063  -16.1148  -45.9356 H         1 UNK         0.0600 
    163 H163        4.2123  -15.8540  -44.9146 H         1 UNK         0.0600 
    164 H164        3.7100  -16.7746  -42.5096 H         1 UNK         0.3000 
    165 H165        4.1062  -19.6158  -40.3900 H         1 UNK         0.0600 
    166 H166        6.1253  -17.5217  -41.3644 H         1 UNK         0.0600 
    167 H167        6.2328  -18.4530  -39.8703 H         1 UNK         0.0600 
    168 H168        6.3549  -19.2653  -41.4227 H         1 UNK         0.0600 
    169 H169        4.2419  -16.7936  -39.9222 H         1 UNK         0.3000 
    170 H170        0.7769  -16.2740  -39.2866 H         1 UNK         0.0600 
    171 H171        1.6817  -17.2778  -37.1819 H         1 UNK         0.0600 
    172 H172        3.1790  -16.3761  -37.3851 H         1 UNK         0.0600 
    173 H173        1.6605  -15.5238  -37.1030 H         1 UNK         0.0600 
    174 H174        2.9120  -14.4802  -39.0135 H         1 UNK         0.3000 
    175 H175        3.0421  -12.7233  -40.3835 H         1 UNK         0.0600 
    176 H176        4.7562  -12.5468  -42.1715 H         1 UNK         0.0600 
    177 H177        4.9489  -14.0663  -41.3134 H         1 UNK         0.0600 
    178 H178        4.1949  -14.0488  -42.9028 H         1 UNK         0.0600 
    179 H179        2.3854  -12.3870  -43.1371 H         1 UNK         0.3000 
    180 H180       -0.9453  -11.7351  -43.0361 H         1 UNK         0.0600 
    181 H181        0.8789   -9.3288  -42.5072 H         1 UNK         0.0600 
    182 H182       -0.5880   -9.7213  -41.6189 H         1 UNK         0.0600 
    183 H183       -0.6896   -9.2761  -43.3132 H         1 UNK         0.0600 
    184 H184        1.2113  -10.5573  -44.5870 H         1 UNK         0.3000 
    185 H185        1.1789  -11.1022  -46.7727 H         1 UNK         0.0600 
    186 H186        3.0435  -12.5513  -47.5642 H         1 UNK         0.0600 
    187 H187        3.2040  -12.2620  -45.8383 H         1 UNK         0.0600 
    188 H188        2.5894  -13.8062  -46.4170 H         1 UNK         0.0600 
    189 H189       -0.0703  -13.7394  -47.2362 H         1 UNK         0.3000 
    190 H190       -2.0392  -21.4700  -44.6819 H         1 UNK         0.3000 
    191 H191       -4.5470  -22.6455  -45.2667 H         1 UNK         0.0600 
    192 H192       -3.9931  -21.6321  -43.0754 H         1 UNK         0.0600 
    193 H193       -4.5054  -23.2983  -42.8556 H         1 UNK         0.0600 
    194 H194       -2.7972  -22.8884  -42.7625 H         1 UNK         0.0600 
    195 H195       -1.3342  -24.1257  -44.8826 H         1 UNK         0.3000 
    196 H196       -2.2472  -26.8674  -45.0967 H         1 UNK         0.0600 
    197 H197        0.1835  -27.3413  -45.3242 H         1 UNK         0.0600 
    198 H198       -0.1125  -26.2505  -43.9782 H         1 UNK         0.0600 
    199 H199        0.5256  -25.6246  -45.4965 H         1 UNK         0.0600 
    200 H200       -1.6977  -24.3257  -47.3929 H         1 UNK         0.3000 
    201 H201       -1.5660  -26.1388  -49.7360 H         1 UNK         0.0600 
    202 H202        0.0973  -24.2657  -49.5696 H         1 UNK         0.0600 
    203 H203       -1.2179  -23.0977  -49.5565 H         1 UNK         0.0600 
    204 H204       -0.9429  -24.1093  -50.9694 H         1 UNK         0.0600 
    205 H205       -2.8951  -23.5119  -50.9993 H         1 UNK         0.3000 
    206 H206       -5.6426  -24.6510  -50.9134 H         1 UNK         0.0600 
    207 H207       -4.4351  -24.6072  -53.0997 H         1 UNK         0.0600 
    208 H208       -5.8738  -23.6036  -53.1270 H         1 UNK         0.0600 
    209 H209       -4.2906  -22.8587  -52.9780 H         1 UNK         0.0600 
    210 H210       -4.3227  -22.4987  -48.9981 H         1 UNK         0.3000 
    211 H211       -4.9652  -20.7333  -47.8248 H         1 UNK         0.0600 
    212 H212       -7.7929  -21.5913  -48.6157 H         1 UNK         0.0600 
    213 H213       -7.3439  -20.6517  -47.1979 H         1 UNK         0.0600 
    214 H214       -6.8258  -22.3228  -47.3350 H         1 UNK         0.0600 
    215 H215       -4.2799  -20.1053  -50.5135 H         1 UNK         0.3000 
    216 H216       -4.0416  -18.3884  -51.8710 H         1 UNK         0.0600 
    217 H217       -3.9593  -16.9780  -49.7746 H         1 UNK         0.0600 
    218 H218       -5.6706  -16.6231  -49.9824 H         1 UNK         0.0600 
    219 H219       -4.5084  -16.1037  -51.1921 H         1 UNK         0.0600 
    220 H220       -6.5271  -20.1776  -51.9812 H         1 UNK         0.3000 
    221 H221       -8.3436  -18.5837  -53.6686 H         1 UNK         0.0600 
    222 H222       -8.3988  -21.5782  -53.0360 H         1 UNK         0.0600 
    223 H223       -9.1619  -20.3527  -52.0283 H         1 UNK         0.0600 
    224 H224       -9.7125  -20.5920  -53.6738 H         1 UNK         0.0600 
    225 H225       -8.7855  -20.9837  -55.4169 H         1 UNK         0.3000 
    226 H226       -7.0255  -20.3704  -57.5957 H         1 UNK         0.0600 
    227 H227       -9.3406  -21.1999  -57.9420 H         1 UNK         0.0600 
    228 H228       -8.1884  -22.3006  -58.6819 H         1 UNK         0.0600 
    229 H229       -8.9422  -22.7251  -57.1500 H         1 UNK         0.0600 
    230 H230       -5.1186  -21.2493  -58.1554 H         1 UNK         0.3000 
    231 H231       -3.1339  -22.2206  -58.0183 H         1 UNK         0.0600 
    232 H232       -2.9447  -24.6437  -57.6447 H         1 UNK         0.0600 
    233 H233       -4.3543  -24.3166  -58.6400 H         1 UNK         0.0600 
    234 H234       -4.5489  -24.7134  -56.9332 H         1 UNK         0.0600 
    235 H235       -3.6677  -20.4735  -56.1332 H         1 UNK         0.3000 
    236 H236       -3.8072  -20.6728  -53.5626 H         1 UNK         0.0600 
    237 H237       -2.3472  -18.5996  -53.4141 H         1 UNK         0.0600 
    238 H238       -1.8574  -18.8652  -55.0747 H         1 UNK         0.0600 
    239 H239       -3.5456  -18.5298  -54.6926 H         1 UNK         0.0600 
    240 H240       -0.6017  -21.0965  -55.0929 H         1 UNK         0.3000 
    241 H241        0.7552  -21.5522  -52.5951 H         1 UNK         0.0600 
    242 H242       -0.4194  -25.2242  -53.6817 H         1 UNK         0.3800 
    243 H243       -1.2235  -23.7954  -54.2862 H         1 UNK         0.3800 
    244 H244        2.7849  -21.7854  -53.8831 H         1 UNK         0.0800 
    245 H245        1.9078  -22.1097  -55.3497 H         1 UNK         0.0800 
    246 H246        3.1767  -18.1830  -53.5811 H         1 UNK         0.0800 
    247 H247        2.9097  -19.6496  -52.6757 H         1 UNK         0.0800 
@<TRIPOS>BOND
     1    1    2 1    
     2    1  127 1    
     3    1  128 1    
     4    1  129 1    
     5    2    3 2    
     6    2    4 am   BACKBONE|DICT|INTERRES
     7    4    5 1    
     8    4  130 1    
     9    5    6 1    
    10    5   65 1    
    11    5  131 1    
    12    6    7 1    
    13    6  132 1    
    14    6  133 1    
    15    7    8 1    
    16    8    9 1    
    17    8  134 1    
    18    8  135 1    
    19    9   10 ar   
    20    9   14 ar   
    21   10   11 ar   
    22   10  136 1    
    23   11   12 ar   
    24   11  126 1    
    25   12   13 ar   
    26   12  137 1    
    27   13   14 ar   
    28   13   15 1    
    29   14  138 1    
    30   15   16 1    
    31   15  139 1    
    32   15  140 1    
    33   16   17 1    
    34   17   18 1    
    35   17  141 1    
    36   17  142 1    
    37   18   19 1    
    38   18   67 1    
    39   18  143 1    
    40   19   20 am   BACKBONE|DICT|INTERRES
    41   19  144 1    
    42   20   21 2    
    43   20   22 1    
    44   22   23 1    
    45   22   24 1    
    46   22  145 1    
    47   23  146 1    
    48   23  147 1    
    49   23  148 1    
    50   24   25 am   BACKBONE|DICT|INTERRES
    51   24  149 1    
    52   25   26 2    
    53   25   27 1    
    54   27   28 1    
    55   27   29 1    
    56   27  150 1    
    57   28  151 1    
    58   28  152 1    
    59   28  153 1    
    60   29   30 am   BACKBONE|DICT|INTERRES
    61   29  154 1    
    62   30   31 2    
    63   30   32 1    
    64   32   33 1    
    65   32   34 1    
    66   32  155 1    
    67   33  156 1    
    68   33  157 1    
    69   33  158 1    
    70   34   35 am   BACKBONE|DICT|INTERRES
    71   34  159 1    
    72   35   36 2    
    73   35   37 1    
    74   37   38 1    
    75   37   39 1    
    76   37  160 1    
    77   38  161 1    
    78   38  162 1    
    79   38  163 1    
    80   39   40 am   BACKBONE|DICT|INTERRES
    81   39  164 1    
    82   40   41 2    
    83   40   42 1    
    84   42   43 1    
    85   42   44 1    
    86   42  165 1    
    87   43  166 1    
    88   43  167 1    
    89   43  168 1    
    90   44   45 am   BACKBONE|DICT|INTERRES
    91   44  169 1    
    92   45   46 2    
    93   45   47 1    
    94   47   48 1    
    95   47   49 1    
    96   47  170 1    
    97   48  171 1    
    98   48  172 1    
    99   48  173 1    
   100   49   50 am   BACKBONE|DICT|INTERRES
   101   49  174 1    
   102   50   51 2    
   103   50   52 1    
   104   52   53 1    
   105   52   54 1    
   106   52  175 1    
   107   53  176 1    
   108   53  177 1    
   109   53  178 1    
   110   54   55 am   BACKBONE|DICT|INTERRES
   111   54  179 1    
   112   55   56 2    
   113   55   57 1    
   114   57   58 1    
   115   57   59 1    
   116   57  180 1    
   117   58  181 1    
   118   58  182 1    
   119   58  183 1    
   120   59   60 am   BACKBONE|DICT|INTERRES
   121   59  184 1    
   122   60   61 2    
   123   60   62 1    
   124   62   63 1    
   125   62   64 1    
   126   62  185 1    
   127   63  186 1    
   128   63  187 1    
   129   63  188 1    
   130   64   65 am   BACKBONE|DICT|INTERRES
   131   64  189 1    
   132   65   66 2    
   133   67   68 2    
   134   67   69 am   BACKBONE|DICT|INTERRES
   135   69   70 1    
   136   69  190 1    
   137   70   71 1    
   138   70   72 1    
   139   70  191 1    
   140   71  192 1    
   141   71  193 1    
   142   71  194 1    
   143   72   73 2    
   144   72   74 am   BACKBONE|DICT|INTERRES
   145   74   75 1    
   146   74  195 1    
   147   75   76 1    
   148   75   77 1    
   149   75  196 1    
   150   76  197 1    
   151   76  198 1    
   152   76  199 1    
   153   77   78 2    
   154   77   79 am   BACKBONE|DICT|INTERRES
   155   79   80 1    
   156   79  200 1    
   157   80   81 1    
   158   80   82 1    
   159   80  201 1    
   160   81  202 1    
   161   81  203 1    
   162   81  204 1    
   163   82   83 2    
   164   82   84 am   BACKBONE|DICT|INTERRES
   165   84   85 1    
   166   84  205 1    
   167   85   86 1    
   168   85   87 1    
   169   85  206 1    
   170   86  207 1    
   171   86  208 1    
   172   86  209 1    
   173   87   88 2    
   174   87   89 am   BACKBONE|DICT|INTERRES
   175   89   90 1    
   176   89  210 1    
   177   90   91 1    
   178   90   92 1    
   179   90  211 1    
   180   91  212 1    
   181   91  213 1    
   182   91  214 1    
   183   92   93 2    
   184   92   94 am   BACKBONE|DICT|INTERRES
   185   94   95 1    
   186   94  215 1    
   187   95   96 1    
   188   95   97 1    
   189   95  216 1    
   190   96  217 1    
   191   96  218 1    
   192   96  219 1    
   193   97   98 2    
   194   97   99 am   BACKBONE|DICT|INTERRES
   195   99  100 1    
   196   99  220 1    
   197  100  101 1    
   198  100  102 1    
   199  100  221 1    
   200  101  222 1    
   201  101  223 1    
   202  101  224 1    
   203  102  103 2    
   204  102  104 am   BACKBONE|DICT|INTERRES
   205  104  105 1    
   206  104  225 1    
   207  105  106 1    
   208  105  107 1    
   209  105  226 1    
   210  106  227 1    
   211  106  228 1    
   212  106  229 1    
   213  107  108 2    
   214  107  109 am   BACKBONE|DICT|INTERRES
   215  109  110 1    
   216  109  230 1    
   217  110  111 1    
   218  110  112 1    
   219  110  231 1    
   220  111  232 1    
   221  111  233 1    
   222  111  234 1    
   223  112  113 2    
   224  112  114 am   BACKBONE|DICT|INTERRES
   225  114  115 1    
   226  114  235 1    
   227  115  116 1    
   228  115  117 1    
   229  115  236 1    
   230  116  237 1    
   231  116  238 1    
   232  116  239 1    
   233  117  118 2    
   234  117  119 am   BACKBONE|DICT|INTERRES
   235  119  120 1    
   236  119  240 1    
   237  120  121 1    
   238  120  124 1    
   239  120  241 1    
   240  121  122 am   BACKBONE|DICT|INTERRES
   241  121  123 2    
   242  122  242 1    
   243  122  243 1    
   244  124  125 1    
   245  124  244 1    
   246  124  245 1    
   247  125  126 1    
   248  126  246 1    
   249  126  247 1    
@<TRIPOS>SUBSTRUCTURE
     1 UNK         1 GROUP             0       ****    0 ROOT    
