@<TRIPOS>MOLECULE
3R540
247   249    1
SMALL
USER_CHARGES


@<TRIPOS>ATOM
      1 CA          4.9424   -9.6718  -51.2983 C.3       0 UNK        -0.1800 
      2 C           5.0990  -10.2240  -49.8885 C.2       0 UNK         0.5000 
      3 O           6.1110   -9.9631  -49.2379 O.2       0 UNK        -0.5000 
      4 N           4.1033  -10.9864  -49.4180 N.am      1 UNK        -0.5000 
      5 CA          4.0710  -11.6073  -48.0858 C.3       1 UNK         0.1400 
      6 C6          2.9594  -12.6786  -47.9730 C.3       23 UNK        -0.0398 
      7 S7          3.1492  -14.0086  -49.2064 S.3       23 UNK        -0.2404 
      8 C8          2.7447  -15.4765  -48.2092 C.3       23 UNK        -0.0205 
      9 C9          2.4516  -16.6890  -49.0828 C.ar      23 UNK        -0.0193 
     10 C10         1.4307  -16.6385  -50.0398 C.ar      23 UNK        -0.1150 
     11 C11         1.1546  -17.7468  -50.8454 C.ar      23 UNK        -0.0193 
     12 C12         1.9046  -18.9124  -50.6862 C.ar      23 UNK        -0.1150 
     13 C13         2.9050  -18.9883  -49.7148 C.ar      23 UNK        -0.0193 
     14 C14         3.1812  -17.8713  -48.9205 C.ar      23 UNK        -0.1150 
     15 C15         3.6683  -20.2891  -49.5191 C.3       23 UNK        -0.0205 
     16 S16         2.9683  -21.2934  -48.1704 S.3       23 UNK        -0.2404 
     17 C17         1.2307  -21.4817  -48.7042 C.3       23 UNK        -0.0398 
     18 CA          0.4711  -22.5261  -47.8590 C.3       11 UNK         0.1400 
     19 N           0.3208  -22.1188  -46.4598 N.am      11 UNK        -0.5000 
     20 C          -0.0720  -22.9394  -45.4773 C.2       10 UNK         0.5000 
     21 O          -0.3340  -24.1293  -45.6492 O.2       10 UNK        -0.5000 
     22 CA         -0.2414  -22.3264  -44.0770 C.3       10 UNK         0.1400 
     23 CB          1.1206  -22.1534  -43.3889 C.3       10 UNK        -0.1800 
     24 N          -0.9585  -21.0507  -44.0971 N.am      10 UNK        -0.5000 
     25 C          -2.2287  -20.9021  -44.5004 C.2       9 UNK         0.5000 
     26 O          -2.9363  -21.8331  -44.8842 O.2       9 UNK        -0.5000 
     27 CA         -2.7975  -19.4714  -44.5147 C.3       9 UNK         0.1400 
     28 CB         -3.1901  -19.0229  -43.0992 C.3       9 UNK        -0.1800 
     29 N          -1.8781  -18.4972  -45.1011 N.am      9 UNK        -0.5000 
     30 C          -1.4313  -18.5363  -46.3643 C.2       8 UNK         0.5000 
     31 O          -1.7677  -19.3870  -47.1877 O.2       8 UNK        -0.5000 
     32 CA         -0.3843  -17.4778  -46.7541 C.3       8 UNK         0.1400 
     33 CB         -1.0451  -16.1052  -46.9670 C.3       8 UNK        -0.1800 
     34 N           0.6967  -17.3699  -45.7705 N.am      8 UNK        -0.5000 
     35 C           1.4863  -18.3914  -45.4031 C.2       7 UNK         0.5000 
     36 O           1.4217  -19.5185  -45.8883 O.2       7 UNK        -0.5000 
     37 CA          2.4588  -18.1336  -44.2428 C.3       7 UNK         0.1400 
     38 CB          3.7117  -17.3874  -44.7247 C.3       7 UNK        -0.1800 
     39 N           1.8111  -17.3986  -43.1557 N.am      7 UNK        -0.5000 
     40 C           0.8560  -17.9174  -42.3677 C.2       6 UNK         0.5000 
     41 O           0.4630  -19.0803  -42.4469 O.2       6 UNK        -0.5000 
     42 CA          0.1968  -16.9698  -41.3489 C.3       6 UNK         0.1400 
     43 CB          1.0141  -16.9184  -40.0497 C.3       6 UNK        -0.1800 
     44 N           0.0289  -15.6138  -41.8698 N.am      6 UNK        -0.5000 
     45 C          -0.7629  -15.2848  -42.9008 C.2       5 UNK         0.5000 
     46 O          -1.4971  -16.0862  -43.4778 O.2       5 UNK        -0.5000 
     47 CA         -0.6777  -13.8291  -43.3998 C.3       5 UNK         0.1400 
     48 CB         -1.7427  -12.9589  -42.7177 C.3       5 UNK        -0.1800 
     49 N           0.6430  -13.2366  -43.1777 N.am      5 UNK        -0.5000 
     50 C           1.7760  -13.6325  -43.7701 C.2       4 UNK         0.5000 
     51 O           1.8093  -14.5069  -44.6387 O.2       4 UNK        -0.5000 
     52 CA          3.0776  -12.9677  -43.2690 C.3       4 UNK         0.1400 
     53 CB          4.3305  -13.4781  -44.0022 C.3       4 UNK        -0.1800 
     54 N           3.0357  -11.5022  -43.3262 N.am      4 UNK        -0.5000 
     55 C           2.3912  -10.7140  -42.4508 C.2       3 UNK         0.5000 
     56 O           1.7182  -11.1590  -41.5191 O.2       3 UNK        -0.5000 
     57 CA          2.5026   -9.1851  -42.6181 C.3       3 UNK         0.1400 
     58 CB          3.4461   -8.5993  -41.5560 C.3       3 UNK        -0.1800 
     59 N           2.9655   -8.7609  -43.9383 N.am      3 UNK        -0.5000 
     60 C           2.2348   -8.7920  -45.0595 C.2       2 UNK         0.5000 
     61 O           1.0673   -9.1823  -45.1044 O.2       2 UNK        -0.5000 
     62 CA          2.9264   -8.3309  -46.3601 C.3       2 UNK         0.1400 
     63 CB          4.2055   -7.4937  -46.1325 C.3       2 UNK        -0.1800 
     64 N           3.2127   -9.4587  -47.2507 N.am      2 UNK        -0.5000 
     65 C           3.9165  -10.5645  -46.9588 C.2       1 UNK         0.5000 
     66 O           4.4343  -10.7796  -45.8621 O.2       1 UNK        -0.5000 
     67 C          -0.8843  -22.8851  -48.5016 C.2       11 UNK         0.5000 
     68 O          -0.9546  -23.8727  -49.2325 O.2       11 UNK        -0.5000 
     69 N          -1.9454  -22.1250  -48.1909 N.am      12 UNK        -0.5000 
     70 CA         -3.3131  -22.4156  -48.6270 C.3       12 UNK         0.1400 
     71 CB         -4.2305  -21.2293  -48.2965 C.3       12 UNK        -0.1800 
     72 C          -3.8652  -23.7255  -48.0327 C.2       12 UNK         0.5000 
     73 O          -4.5234  -24.4836  -48.7477 O.2       12 UNK        -0.5000 
     74 N          -3.5563  -23.9856  -46.7542 N.am      13 UNK        -0.5000 
     75 CA         -3.8811  -25.2296  -46.0568 C.3       13 UNK         0.1400 
     76 CB         -3.6338  -25.0649  -44.5501 C.3       13 UNK        -0.1800 
     77 C          -3.1050  -26.4359  -46.6145 C.2       13 UNK         0.5000 
     78 O          -3.7010  -27.4948  -46.8087 O.2       13 UNK        -0.5000 
     79 N          -1.8102  -26.2512  -46.9124 N.am      14 UNK        -0.5000 
     80 CA         -0.9511  -27.2506  -47.5576 C.3       14 UNK         0.1400 
     81 CB          0.5037  -26.7587  -47.5592 C.3       14 UNK        -0.1800 
     82 C          -1.4109  -27.6011  -48.9866 C.2       14 UNK         0.5000 
     83 O          -1.3269  -28.7619  -49.3879 O.2       14 UNK        -0.5000 
     84 N          -1.9404  -26.6015  -49.7041 N.am      15 UNK        -0.5000 
     85 CA         -2.6008  -26.7401  -51.0033 C.3       15 UNK         0.1400 
     86 CB         -2.5945  -25.3715  -51.7055 C.3       15 UNK        -0.1800 
     87 C          -4.0363  -27.3044  -50.9111 C.2       15 UNK         0.5000 
     88 O          -4.6848  -27.4508  -51.9470 O.2       15 UNK        -0.5000 
     89 N          -4.5261  -27.5869  -49.6928 N.am      16 UNK        -0.5000 
     90 CA         -5.8458  -28.1385  -49.3618 C.3       16 UNK         0.1400 
     91 CB         -5.9495  -29.6012  -49.8413 C.3       16 UNK        -0.1800 
     92 C          -7.0166  -27.2629  -49.8552 C.2       16 UNK         0.5000 
     93 O          -8.0723  -27.7894  -50.2106 O.2       16 UNK        -0.5000 
     94 N          -6.7890  -25.9409  -49.8980 N.am      17 UNK        -0.5000 
     95 CA         -7.6675  -24.8952  -50.4319 C.3       17 UNK         0.1400 
     96 CB         -8.9825  -24.8104  -49.6306 C.3       17 UNK        -0.1800 
     97 C          -7.9172  -24.9791  -51.9568 C.2       17 UNK         0.5000 
     98 O          -8.7283  -24.2095  -52.4738 O.2       17 UNK        -0.5000 
     99 N          -7.2000  -25.8559  -52.6743 N.am      18 UNK        -0.5000 
    100 CA        -7.3344  -26.0798  -54.1147 C.3       18 UNK         0.1400 
    101 CB        -7.0642  -27.5655  -54.4152 C.3       18 UNK        -0.1800 
    102 C         -6.4242  -25.1274  -54.9164 C.2       18 UNK         0.5000 
    103 O         -5.6054  -25.5841  -55.7151 O.2       18 UNK        -0.5000 
    104 N         -6.5994  -23.8199  -54.6747 N.am      19 UNK        -0.5000 
    105 CA        -5.8810  -22.6761  -55.2503 C.3       19 UNK         0.1400 
    106 CB        -6.2565  -22.5137  -56.7379 C.3       19 UNK        -0.1800 
    107 C         -4.3460  -22.7567  -55.0403 C.2       19 UNK         0.5000 
    108 O         -3.6425  -23.1957  -55.9502 O.2       19 UNK        -0.5000 
    109 N         -3.7808  -22.3775  -53.8815 N.am      20 UNK        -0.5000 
    110 CA        -4.3347  -21.6751  -52.7166 C.3       20 UNK         0.1400 
    111 CB        -5.3673  -22.5380  -51.9629 C.3       20 UNK        -0.1800 
    112 C         -4.8288  -20.2508  -53.0524 C.2       20 UNK         0.5000 
    113 O         -4.3174  -19.6395  -53.9918 O.2       20 UNK        -0.5000 
    114 N         -5.8058  -19.7531  -52.2774 N.am      21 UNK        -0.5000 
    115 CA        -6.4229  -18.4203  -52.3709 C.3       21 UNK         0.1400 
    116 CB        -7.1741  -18.2500  -53.7088 C.3       21 UNK        -0.1800 
    117 C         -5.4359  -17.2672  -52.0794 C.2       21 UNK         0.5000 
    118 O         -5.6064  -16.1568  -52.5860 O.2       21 UNK        -0.5000 
    119 N         -4.4165  -17.5641  -51.2664 N.am      22 UNK        -0.5000 
    120 CA        -3.3605  -16.6417  -50.8357 C.3       22 UNK         0.1400 
    121 C         -3.8804  -15.5481  -49.8624 C.2       22 UNK         0.5000 
    122 N         -3.3189  -14.3479  -49.9138 N.am      22 UNK        -0.7600 
    123 O         -4.7534  -15.7891  -49.0317 O.2       22 UNK        -0.5000 
    124 C124       -2.1807  -17.4162  -50.1999 C.3       23 UNK        -0.0398 
    125 S125       -1.4265  -18.6140  -51.3510 S.3       23 UNK        -0.2404 
    126 C126        0.0524  -17.6999  -51.8922 C.3       23 UNK        -0.0205 
    127 H127        4.0046   -9.9877  -51.7560 H         1 UNK         0.0600 
    128 H128        5.7615  -10.0167  -51.9294 H         1 UNK         0.0600 
    129 H129        4.9611   -8.5822  -51.2785 H         1 UNK         0.0600 
    130 H130        3.3139  -11.1917  -50.0140 H         1 UNK         0.3000 
    131 H131        5.0314  -12.1035  -47.9287 H         1 UNK         0.0600 
    132 H132        2.9572  -13.1208  -46.9757 H         1 UNK         0.0800 
    133 H133        1.9733  -12.2300  -48.1058 H         1 UNK         0.0800 
    134 H134        1.8775  -15.2696  -47.5837 H         1 UNK         0.0800 
    135 H135        3.5736  -15.6768  -47.5291 H         1 UNK         0.0800 
    136 H136        0.8572  -15.7303  -50.1595 H         1 UNK         0.1150 
    137 H137        1.6879  -19.7722  -51.3045 H         1 UNK         0.1150 
    138 H138        3.9550  -17.9307  -48.1682 H         1 UNK         0.1150 
    139 H139        3.6696  -20.8738  -50.4403 H         1 UNK         0.0800 
    140 H140        4.7135  -20.0723  -49.2942 H         1 UNK         0.0800 
    141 H141        1.2323  -21.7687  -49.7574 H         1 UNK         0.0800 
    142 H142        0.7306  -20.5132  -48.6410 H         1 UNK         0.0800 
    143 H143        1.0663  -23.4417  -47.8638 H         1 UNK         0.0600 
    144 H144        0.5680  -21.1562  -46.2383 H         1 UNK         0.3000 
    145 H145       -0.8316  -23.0259  -43.4816 H         1 UNK         0.0600 
    146 H146        1.0016  -21.8136  -42.3601 H         1 UNK         0.0600 
    147 H147        1.6656  -23.0976  -43.3582 H         1 UNK         0.0600 
    148 H148        1.7468  -21.4293  -43.9104 H         1 UNK         0.0600 
    149 H149       -0.4487  -20.2398  -43.7599 H         1 UNK         0.3000 
    150 H150       -3.7001  -19.4815  -45.1289 H         1 UNK         0.0600 
    151 H151       -3.8981  -19.7208  -42.6507 H         1 UNK         0.0600 
    152 H152       -3.6648  -18.0416  -43.1146 H         1 UNK         0.0600 
    153 H153       -2.3238  -18.9638  -42.4400 H         1 UNK         0.0600 
    154 H154       -1.5768  -17.7357  -44.4995 H         1 UNK         0.3000 
    155 H155        0.0567  -17.7968  -47.7005 H         1 UNK         0.0600 
    156 H156       -1.3428  -15.6470  -46.0263 H         1 UNK         0.0600 
    157 H157       -0.3790  -15.4128  -47.4785 H         1 UNK         0.0600 
    158 H158       -1.9466  -16.1897  -47.5727 H         1 UNK         0.0600 
    159 H159        0.8215  -16.4744  -45.3160 H         1 UNK         0.3000 
    160 H160        2.7783  -19.1022  -43.8521 H         1 UNK         0.0600 
    161 H161        3.4678  -16.4222  -45.1660 H         1 UNK         0.0600 
    162 H162        4.2364  -17.9671  -45.4852 H         1 UNK         0.0600 
    163 H163        4.4106  -17.2174  -43.9058 H         1 UNK         0.0600 
    164 H164        2.0430  -16.4209  -43.0663 H         1 UNK         0.3000 
    165 H165       -0.7932  -17.3674  -41.1156 H         1 UNK         0.0600 
    166 H166        0.5171  -16.3085  -39.2951 H         1 UNK         0.0600 
    167 H167        1.1388  -17.9168  -39.6283 H         1 UNK         0.0600 
    168 H168        2.0098  -16.5047  -40.2144 H         1 UNK         0.0600 
    169 H169        0.5870  -14.8887  -41.4443 H         1 UNK         0.3000 
    170 H170       -0.8714  -13.8315  -44.4740 H         1 UNK         0.0600 
    171 H171       -2.7422  -13.3632  -42.8838 H         1 UNK         0.0600 
    172 H172       -1.5857  -12.9005  -41.6399 H         1 UNK         0.0600 
    173 H173       -1.7334  -11.9431  -43.1135 H         1 UNK         0.0600 
    174 H174        0.7133  -12.5045  -42.4767 H         1 UNK         0.3000 
    175 H175        3.1883  -13.2591  -42.2224 H         1 UNK         0.0600 
    176 H176        4.2752  -13.3063  -45.0758 H         1 UNK         0.0600 
    177 H177        5.2317  -12.9893  -43.6319 H         1 UNK         0.0600 
    178 H178        4.4605  -14.5497  -43.8502 H         1 UNK         0.0600 
    179 H179        3.5401  -11.0717  -44.0955 H         1 UNK         0.3000 
    180 H180        1.5066   -8.7683  -42.4540 H         1 UNK         0.0600 
    181 H181        3.1155   -8.8620  -40.5502 H         1 UNK         0.0600 
    182 H182        3.4764   -7.5110  -41.6116 H         1 UNK         0.0600 
    183 H183        4.4648   -8.9711  -41.6742 H         1 UNK         0.0600 
    184 H184        3.9273   -8.4604  -44.0040 H         1 UNK         0.3000 
    185 H185        2.2070   -7.6961  -46.8794 H         1 UNK         0.0600 
    186 H186        5.0067   -8.0732  -45.6726 H         1 UNK         0.0600 
    187 H187        4.5863   -7.1069  -47.0779 H         1 UNK         0.0600 
    188 H188        4.0047   -6.6331  -45.4930 H         1 UNK         0.0600 
    189 H189        2.8181   -9.3903  -48.1779 H         1 UNK         0.3000 
    190 H190       -1.8155  -21.2943  -47.6195 H         1 UNK         0.3000 
    191 H191       -3.2933  -22.5341  -49.7114 H         1 UNK         0.0600 
    192 H192       -4.2363  -21.0126  -47.2280 H         1 UNK         0.0600 
    193 H193       -5.2599  -21.4306  -48.5948 H         1 UNK         0.0600 
    194 H194       -3.9088  -20.3274  -48.8175 H         1 UNK         0.0600 
    195 H195       -3.0678  -23.2771  -46.2143 H         1 UNK         0.3000 
    196 H196       -4.9454  -25.4255  -46.2030 H         1 UNK         0.0600 
    197 H197       -3.8885  -25.9777  -44.0103 H         1 UNK         0.0600 
    198 H198       -4.2445  -24.2617  -44.1373 H         1 UNK         0.0600 
    199 H199       -2.5906  -24.8350  -44.3334 H         1 UNK         0.0600 
    200 H200       -1.3711  -25.3700  -46.6579 H         1 UNK         0.3000 
    201 H201       -0.9997  -28.1639  -46.9612 H         1 UNK         0.0600 
    202 H202        0.8548  -26.5608  -46.5463 H         1 UNK         0.0600 
    203 H203        0.6181  -25.8428  -48.1386 H         1 UNK         0.0600 
    204 H204        1.1679  -27.5066  -47.9938 H         1 UNK         0.0600 
    205 H205       -1.8948  -25.6614  -49.3242 H         1 UNK         0.3000 
    206 H206       -2.0238  -27.4363  -51.6148 H         1 UNK         0.0600 
    207 H207       -1.5762  -25.0147  -51.8604 H         1 UNK         0.0600 
    208 H208       -3.0726  -25.4213  -52.6849 H         1 UNK         0.0600 
    209 H209       -3.1221  -24.6207  -51.1187 H         1 UNK         0.0600 
    210 H210       -3.9333  -27.4079  -48.8913 H         1 UNK         0.3000 
    211 H211       -5.9130  -28.1427  -48.2735 H         1 UNK         0.0600 
    212 H212       -5.9532  -29.6707  -50.9295 H         1 UNK         0.0600 
    213 H213       -6.8661  -30.0689  -49.4800 H         1 UNK         0.0600 
    214 H214       -5.1155  -30.1966  -49.4697 H         1 UNK         0.0600 
    215 H215       -5.8881  -25.6067  -49.5626 H         1 UNK         0.3000 
    216 H216       -7.1347  -23.9593  -50.2660 H         1 UNK         0.0600 
    217 H217       -9.5556  -23.9265  -49.9128 H         1 UNK         0.0600 
    218 H218       -8.7882  -24.7403  -48.5604 H         1 UNK         0.0600 
    219 H219       -9.6208  -25.6775  -49.8010 H         1 UNK         0.0600 
    220 H220       -6.4952  -26.4160  -52.2069 H         1 UNK         0.3000 
    221 H221       -8.3626  -25.8724  -54.4187 H         1 UNK         0.0600 
    222 H222       -6.0344  -27.8440  -54.1907 H         1 UNK         0.0600 
    223 H223       -7.7199  -28.2114  -53.8310 H         1 UNK         0.0600 
    224 H224       -7.2417  -27.7890  -55.4678 H         1 UNK         0.0600 
    225 H225       -7.3126  -23.5878  -53.9937 H         1 UNK         0.3000 
    226 H226       -6.2591  -21.7889  -54.7478 H         1 UNK         0.0600 
    227 H227       -7.3314  -22.3796  -56.8595 H         1 UNK         0.0600 
    228 H228       -5.7695  -21.6373  -57.1671 H         1 UNK         0.0600 
    229 H229       -5.9594  -23.3773  -57.3337 H         1 UNK         0.0600 
    230 H230       -2.7769  -22.4712  -53.8408 H         1 UNK         0.3000 
    231 H231       -3.4844  -21.5371  -52.0470 H         1 UNK         0.0600 
    232 H232       -5.4463  -22.2276  -50.9218 H         1 UNK         0.0600 
    233 H233       -5.0848  -23.5903  -51.9605 H         1 UNK         0.0600 
    234 H234       -6.3642  -22.4583  -52.3929 H         1 UNK         0.0600 
    235 H235       -6.1642  -20.3361  -51.5344 H         1 UNK         0.3000 
    236 H236       -7.1679  -18.3777  -51.5751 H         1 UNK         0.0600 
    237 H237       -7.7661  -17.3341  -53.7103 H         1 UNK         0.0600 
    238 H238       -6.4901  -18.1955  -54.5559 H         1 UNK         0.0600 
    239 H239       -7.8606  -19.0782  -53.8840 H         1 UNK         0.0600 
    240 H240       -4.3612  -18.4989  -50.8947 H         1 UNK         0.3000 
    241 H241       -2.9892  -16.1375  -51.7304 H         1 UNK         0.0600 
    242 H242       -3.6389  -13.6336  -49.2786 H         1 UNK         0.3800 
    243 H243       -2.6040  -14.1222  -50.5877 H         1 UNK         0.3800 
    244 H244       -1.4124  -16.7259  -49.8524 H         1 UNK         0.0800 
    245 H245       -2.5193  -17.9634  -49.3194 H         1 UNK         0.0800 
    246 H246       -0.2150  -16.6703  -52.1346 H         1 UNK         0.0800 
    247 H247        0.4192  -18.1442  -52.8186 H         1 UNK         0.0800 
@<TRIPOS>BOND
     1    1    2 1    
     2    1  127 1    
     3    1  128 1    
     4    1  129 1    
     5    2    3 2    
     6    2    4 am   BACKBONE|DICT|INTERRES
     7    4    5 1    
     8    4  130 1    
     9    5    6 1    
    10    5   65 1    
    11    5  131 1    
    12    6    7 1    
    13    6  132 1    
    14    6  133 1    
    15    7    8 1    
    16    8    9 1    
    17    8  134 1    
    18    8  135 1    
    19    9   10 ar   
    20    9   14 ar   
    21   10   11 ar   
    22   10  136 1    
    23   11   12 ar   
    24   11  126 1    
    25   12   13 ar   
    26   12  137 1    
    27   13   14 ar   
    28   13   15 1    
    29   14  138 1    
    30   15   16 1    
    31   15  139 1    
    32   15  140 1    
    33   16   17 1    
    34   17   18 1    
    35   17  141 1    
    36   17  142 1    
    37   18   19 1    
    38   18   67 1    
    39   18  143 1    
    40   19   20 am   BACKBONE|DICT|INTERRES
    41   19  144 1    
    42   20   21 2    
    43   20   22 1    
    44   22   23 1    
    45   22   24 1    
    46   22  145 1    
    47   23  146 1    
    48   23  147 1    
    49   23  148 1    
    50   24   25 am   BACKBONE|DICT|INTERRES
    51   24  149 1    
    52   25   26 2    
    53   25   27 1    
    54   27   28 1    
    55   27   29 1    
    56   27  150 1    
    57   28  151 1    
    58   28  152 1    
    59   28  153 1    
    60   29   30 am   BACKBONE|DICT|INTERRES
    61   29  154 1    
    62   30   31 2    
    63   30   32 1    
    64   32   33 1    
    65   32   34 1    
    66   32  155 1    
    67   33  156 1    
    68   33  157 1    
    69   33  158 1    
    70   34   35 am   BACKBONE|DICT|INTERRES
    71   34  159 1    
    72   35   36 2    
    73   35   37 1    
    74   37   38 1    
    75   37   39 1    
    76   37  160 1    
    77   38  161 1    
    78   38  162 1    
    79   38  163 1    
    80   39   40 am   BACKBONE|DICT|INTERRES
    81   39  164 1    
    82   40   41 2    
    83   40   42 1    
    84   42   43 1    
    85   42   44 1    
    86   42  165 1    
    87   43  166 1    
    88   43  167 1    
    89   43  168 1    
    90   44   45 am   BACKBONE|DICT|INTERRES
    91   44  169 1    
    92   45   46 2    
    93   45   47 1    
    94   47   48 1    
    95   47   49 1    
    96   47  170 1    
    97   48  171 1    
    98   48  172 1    
    99   48  173 1    
   100   49   50 am   BACKBONE|DICT|INTERRES
   101   49  174 1    
   102   50   51 2    
   103   50   52 1    
   104   52   53 1    
   105   52   54 1    
   106   52  175 1    
   107   53  176 1    
   108   53  177 1    
   109   53  178 1    
   110   54   55 am   BACKBONE|DICT|INTERRES
   111   54  179 1    
   112   55   56 2    
   113   55   57 1    
   114   57   58 1    
   115   57   59 1    
   116   57  180 1    
   117   58  181 1    
   118   58  182 1    
   119   58  183 1    
   120   59   60 am   BACKBONE|DICT|INTERRES
   121   59  184 1    
   122   60   61 2    
   123   60   62 1    
   124   62   63 1    
   125   62   64 1    
   126   62  185 1    
   127   63  186 1    
   128   63  187 1    
   129   63  188 1    
   130   64   65 am   BACKBONE|DICT|INTERRES
   131   64  189 1    
   132   65   66 2    
   133   67   68 2    
   134   67   69 am   BACKBONE|DICT|INTERRES
   135   69   70 1    
   136   69  190 1    
   137   70   71 1    
   138   70   72 1    
   139   70  191 1    
   140   71  192 1    
   141   71  193 1    
   142   71  194 1    
   143   72   73 2    
   144   72   74 am   BACKBONE|DICT|INTERRES
   145   74   75 1    
   146   74  195 1    
   147   75   76 1    
   148   75   77 1    
   149   75  196 1    
   150   76  197 1    
   151   76  198 1    
   152   76  199 1    
   153   77   78 2    
   154   77   79 am   BACKBONE|DICT|INTERRES
   155   79   80 1    
   156   79  200 1    
   157   80   81 1    
   158   80   82 1    
   159   80  201 1    
   160   81  202 1    
   161   81  203 1    
   162   81  204 1    
   163   82   83 2    
   164   82   84 am   BACKBONE|DICT|INTERRES
   165   84   85 1    
   166   84  205 1    
   167   85   86 1    
   168   85   87 1    
   169   85  206 1    
   170   86  207 1    
   171   86  208 1    
   172   86  209 1    
   173   87   88 2    
   174   87   89 am   BACKBONE|DICT|INTERRES
   175   89   90 1    
   176   89  210 1    
   177   90   91 1    
   178   90   92 1    
   179   90  211 1    
   180   91  212 1    
   181   91  213 1    
   182   91  214 1    
   183   92   93 2    
   184   92   94 am   BACKBONE|DICT|INTERRES
   185   94   95 1    
   186   94  215 1    
   187   95   96 1    
   188   95   97 1    
   189   95  216 1    
   190   96  217 1    
   191   96  218 1    
   192   96  219 1    
   193   97   98 2    
   194   97   99 am   BACKBONE|DICT|INTERRES
   195   99  100 1    
   196   99  220 1    
   197  100  101 1    
   198  100  102 1    
   199  100  221 1    
   200  101  222 1    
   201  101  223 1    
   202  101  224 1    
   203  102  103 2    
   204  102  104 am   BACKBONE|DICT|INTERRES
   205  104  105 1    
   206  104  225 1    
   207  105  106 1    
   208  105  107 1    
   209  105  226 1    
   210  106  227 1    
   211  106  228 1    
   212  106  229 1    
   213  107  108 2    
   214  107  109 am   BACKBONE|DICT|INTERRES
   215  109  110 1    
   216  109  230 1    
   217  110  111 1    
   218  110  112 1    
   219  110  231 1    
   220  111  232 1    
   221  111  233 1    
   222  111  234 1    
   223  112  113 2    
   224  112  114 am   BACKBONE|DICT|INTERRES
   225  114  115 1    
   226  114  235 1    
   227  115  116 1    
   228  115  117 1    
   229  115  236 1    
   230  116  237 1    
   231  116  238 1    
   232  116  239 1    
   233  117  118 2    
   234  117  119 am   BACKBONE|DICT|INTERRES
   235  119  120 1    
   236  119  240 1    
   237  120  121 1    
   238  120  124 1    
   239  120  241 1    
   240  121  122 am   BACKBONE|DICT|INTERRES
   241  121  123 2    
   242  122  242 1    
   243  122  243 1    
   244  124  125 1    
   245  124  244 1    
   246  124  245 1    
   247  125  126 1    
   248  126  246 1    
   249  126  247 1    
@<TRIPOS>SUBSTRUCTURE
     1 UNK         1 GROUP             0       ****    0 ROOT    
