@<TRIPOS>MOLECULE
3R540
247   249    1
SMALL
USER_CHARGES


@<TRIPOS>ATOM
      1 CA         -4.9316  -20.6194  -44.7629 C.3       0 UNK        -0.1800 
      2 C          -4.1490  -19.4085  -45.2469 C.2       0 UNK         0.5000 
      3 O          -4.3673  -18.3077  -44.7411 O.2       0 UNK        -0.5000 
      4 N          -3.2194  -19.5970  -46.1936 N.am      1 UNK        -0.5000 
      5 CA         -2.3121  -18.5453  -46.6784 C.3       1 UNK         0.1400 
      6 C6         -1.4616  -18.9959  -47.8885 C.3       23 UNK        -0.0398 
      7 S7         -2.3803  -18.8901  -49.4575 S.3       23 UNK        -0.2404 
      8 C8         -1.7904  -20.3604  -50.3511 C.3       23 UNK        -0.0205 
      9 C9         -0.2769  -20.3712  -50.5173 C.ar      23 UNK        -0.0193 
     10 C10         0.3524  -19.4750  -51.3834 C.ar      23 UNK        -0.1150 
     11 C11         1.7403  -19.4970  -51.5527 C.ar      23 UNK        -0.0193 
     12 C12         2.5068  -20.3851  -50.7895 C.ar      23 UNK        -0.1150 
     13 C13         1.8924  -21.2672  -49.8956 C.ar      23 UNK        -0.0193 
     14 C14         0.4992  -21.2787  -49.7969 C.ar      23 UNK        -0.1150 
     15 C15         2.7262  -22.2062  -49.0333 C.3       23 UNK        -0.0205 
     16 S16         3.2799  -21.4191  -47.4807 S.3       23 UNK        -0.2404 
     17 C17         1.7131  -21.2311  -46.5587 C.3       23 UNK        -0.0398 
     18 CA          1.4897  -22.3425  -45.5066 C.3       11 UNK         0.1400 
     19 N           2.5074  -22.2876  -44.4509 N.am      11 UNK        -0.5000 
     20 C           2.9361  -23.3213  -43.7146 C.2       10 UNK         0.5000 
     21 O           2.4290  -24.4421  -43.7750 O.2       10 UNK        -0.5000 
     22 CA          4.1130  -23.0765  -42.7475 C.3       10 UNK         0.1400 
     23 CB          5.4224  -23.5880  -43.3672 C.3       10 UNK        -0.1800 
     24 N           4.2860  -21.6702  -42.3825 N.am      10 UNK        -0.5000 
     25 C           3.4879  -20.9929  -41.5467 C.2       9 UNK         0.5000 
     26 O           2.5561  -21.5088  -40.9295 O.2       9 UNK        -0.5000 
     27 CA          3.7628  -19.4821  -41.3803 C.3       9 UNK         0.1400 
     28 CB          4.5459  -19.2232  -40.0841 C.3       9 UNK        -0.1800 
     29 N           4.4733  -18.8458  -42.4978 N.am      9 UNK        -0.5000 
     30 C           4.0556  -18.8132  -43.7706 C.2       8 UNK         0.5000 
     31 O           3.0551  -19.4075  -44.1705 O.2       8 UNK        -0.5000 
     32 CA          4.9454  -18.0388  -44.7622 C.3       8 UNK         0.1400 
     33 CB          6.1783  -18.8807  -45.1295 C.3       8 UNK        -0.1800 
     34 N           4.2565  -17.6711  -46.0016 N.am      8 UNK        -0.5000 
     35 C           3.1920  -16.8647  -46.1012 C.2       7 UNK         0.5000 
     36 O           2.6607  -16.3003  -45.1398 O.2       7 UNK        -0.5000 
     37 CA          2.6551  -16.6270  -47.5238 C.3       7 UNK         0.1400 
     38 CB          2.3947  -17.9342  -48.2920 C.3       7 UNK        -0.1800 
     39 N           1.4234  -15.8539  -47.4470 N.am      7 UNK        -0.5000 
     40 C           0.9471  -15.0338  -48.3903 C.2       6 UNK         0.5000 
     41 O           1.4884  -14.8579  -49.4823 O.2       6 UNK        -0.5000 
     42 CA         -0.3510  -14.2750  -48.0584 C.3       6 UNK         0.1400 
     43 CB         -1.5550  -14.9462  -48.7382 C.3       6 UNK        -0.1800 
     44 N          -0.5973  -14.2231  -46.6193 N.am      6 UNK        -0.5000 
     45 C          -0.0678  -13.3356  -45.7685 C.2       5 UNK         0.5000 
     46 O           0.6487  -12.3965  -46.1196 O.2       5 UNK        -0.5000 
     47 CA         -0.3975  -13.5567  -44.2758 C.3       5 UNK         0.1400 
     48 CB         -0.2156  -12.2892  -43.4154 C.3       5 UNK        -0.1800 
     49 N          -1.7247  -14.1502  -44.0769 N.am      5 UNK        -0.5000 
     50 C          -2.9159  -13.6217  -44.3990 C.2       4 UNK         0.5000 
     51 O          -3.0677  -12.4794  -44.8334 O.2       4 UNK        -0.5000 
     52 CA         -4.1518  -14.5312  -44.2421 C.3       4 UNK         0.1400 
     53 CB         -4.6682  -14.9701  -45.6206 C.3       4 UNK        -0.1800 
     54 N          -3.9004  -15.7281  -43.4379 N.am      4 UNK        -0.5000 
     55 C          -3.7537  -15.7394  -42.1068 C.2       3 UNK         0.5000 
     56 O          -3.8789  -14.7436  -41.3934 O.2       3 UNK        -0.5000 
     57 CA         -3.3636  -17.0862  -41.4747 C.3       3 UNK         0.1400 
     58 CB         -4.6071  -17.9482  -41.2075 C.3       3 UNK        -0.1800 
     59 N          -2.4194  -17.8378  -42.3040 N.am      3 UNK        -0.5000 
     60 C          -1.1309  -17.5121  -42.4806 C.2       2 UNK         0.5000 
     61 O          -0.5977  -16.5237  -41.9777 O.2       2 UNK        -0.5000 
     62 CA         -0.3052  -18.4511  -43.3788 C.3       2 UNK         0.1400 
     63 CB          0.0750  -19.7087  -42.5839 C.3       2 UNK        -0.1800 
     64 N          -1.0130  -18.8387  -44.6016 N.am      2 UNK        -0.5000 
     65 C          -1.4093  -17.9858  -45.5570 C.2       1 UNK         0.5000 
     66 O          -1.1320  -16.7865  -45.5567 O.2       1 UNK        -0.5000 
     67 C           0.0468  -22.3294  -44.9452 C.2       11 UNK         0.5000 
     68 O          -0.8226  -21.6388  -45.4790 O.2       11 UNK        -0.5000 
     69 N          -0.1940  -23.0801  -43.8654 N.am      12 UNK        -0.5000 
     70 CA         -1.5123  -23.2501  -43.2521 C.3       12 UNK         0.1400 
     71 CB         -1.3236  -23.5504  -41.7577 C.3       12 UNK        -0.1800 
     72 C          -2.3301  -24.3656  -43.9312 C.2       12 UNK         0.5000 
     73 O          -3.5544  -24.3820  -43.8052 O.2       12 UNK        -0.5000 
     74 N          -1.6415  -25.2835  -44.6256 N.am      13 UNK        -0.5000 
     75 CA         -2.2241  -26.4532  -45.2858 C.3       13 UNK         0.1400 
     76 CB         -1.1012  -27.4598  -45.5820 C.3       13 UNK        -0.1800 
     77 C          -3.0007  -26.1234  -46.5753 C.2       13 UNK         0.5000 
     78 O          -3.8543  -26.9156  -46.9770 O.2       13 UNK        -0.5000 
     79 N          -2.6935  -24.9808  -47.2007 N.am      14 UNK        -0.5000 
     80 CA         -3.3596  -24.4753  -48.3967 C.3       14 UNK         0.1400 
     81 CB         -2.3110  -24.1985  -49.4829 C.3       14 UNK        -0.1800 
     82 C          -4.1206  -23.1980  -48.0235 C.2       14 UNK         0.5000 
     83 O          -3.5397  -22.3020  -47.4057 O.2       14 UNK        -0.5000 
     84 N          -5.4063  -23.1562  -48.3917 N.am      15 UNK        -0.5000 
     85 CA         -6.3362  -22.0664  -48.1036 C.3       15 UNK         0.1400 
     86 CB         -7.7480  -22.5020  -48.5271 C.3       15 UNK        -0.1800 
     87 C          -5.9591  -20.7516  -48.8063 C.2       15 UNK         0.5000 
     88 O          -5.3558  -20.7761  -49.8801 O.2       15 UNK        -0.5000 
     89 N          -6.3988  -19.6293  -48.2211 N.am      16 UNK        -0.5000 
     90 CA         -6.1585  -18.2648  -48.7045 C.3       16 UNK         0.1400 
     91 CB         -6.7451  -17.2732  -47.6912 C.3       16 UNK        -0.1800 
     92 C          -6.7049  -17.9809  -50.1190 C.2       16 UNK         0.5000 
     93 O          -6.2003  -17.0880  -50.7972 O.2       16 UNK        -0.5000 
     94 N          -7.6968  -18.7666  -50.5605 N.am      17 UNK        -0.5000 
     95 CA         -8.2377  -18.7522  -51.9206 C.3       17 UNK         0.1400 
     96 CB         -9.4872  -19.6449  -51.9650 C.3       17 UNK        -0.1800 
     97 C          -7.2218  -19.1949  -52.9957 C.2       17 UNK         0.5000 
     98 O          -7.3688  -18.8078  -54.1553 O.2       17 UNK        -0.5000 
     99 N          -6.2065  -19.9785  -52.6023 N.am      18 UNK        -0.5000 
    100 CA        -5.1409  -20.4646  -53.4791 C.3       18 UNK         0.1400 
    101 CB        -4.6596  -21.8346  -52.9717 C.3       18 UNK        -0.1800 
    102 C         -3.9613  -19.4803  -53.6012 C.2       18 UNK         0.5000 
    103 O         -2.9953  -19.8022  -54.2956 O.2       18 UNK        -0.5000 
    104 N         -4.0321  -18.3140  -52.9382 N.am      19 UNK        -0.5000 
    105 CA        -2.9738  -17.2988  -52.8997 C.3       19 UNK         0.1400 
    106 CB        -3.3900  -16.1435  -51.9784 C.3       19 UNK        -0.1800 
    107 C         -2.5658  -16.7548  -54.2803 C.2       19 UNK         0.5000 
    108 O         -1.3841  -16.4898  -54.4995 O.2       19 UNK        -0.5000 
    109 N         -3.5408  -16.6309  -55.1916 N.am      20 UNK        -0.5000 
    110 CA        -3.3425  -16.1623  -56.5655 C.3       20 UNK         0.1400 
    111 CB        -4.7128  -15.8777  -57.1988 C.3       20 UNK        -0.1800 
    112 C         -2.5391  -17.1470  -57.4380 C.2       20 UNK         0.5000 
    113 O         -1.8212  -16.7118  -58.3390 O.2       20 UNK        -0.5000 
    114 N         -2.6689  -18.4486  -57.1510 N.am      21 UNK        -0.5000 
    115 CA        -1.9451  -19.5291  -57.8238 C.3       21 UNK         0.1400 
    116 CB        -2.8680  -20.7568  -57.8914 C.3       21 UNK        -0.1800 
    117 C         -0.6321  -19.8947  -57.1043 C.2       21 UNK         0.5000 
    118 O          0.1966  -20.5987  -57.6823 O.2       21 UNK        -0.5000 
    119 N         -0.4834  -19.4383  -55.8545 N.am      22 UNK        -0.5000 
    120 CA         0.5247  -19.8735  -54.8800 C.3       22 UNK         0.1400 
    121 C          0.3431  -21.3672  -54.4694 C.2       22 UNK         0.5000 
    122 N         -0.8883  -21.7958  -54.2150 N.am      22 UNK        -0.7600 
    123 O          1.2912  -22.1445  -54.4014 O.2       22 UNK        -0.5000 
    124 C124        1.9703  -19.4574  -55.2693 C.3       23 UNK        -0.0398 
    125 S125        3.2140  -19.4199  -53.9207 S.3       23 UNK        -0.2404 
    126 C126        2.4175  -18.5420  -52.5295 C.3       23 UNK        -0.0205 
    127 H127       -5.9739  -20.5391  -45.0682 H         1 UNK         0.0600 
    128 H128       -4.9010  -20.6697  -43.6746 H         1 UNK         0.0600 
    129 H129       -4.5233  -21.5524  -45.1485 H         1 UNK         0.0600 
    130 H130       -3.0899  -20.5256  -46.5888 H         1 UNK         0.3000 
    131 H131       -2.9392  -17.7100  -46.9970 H         1 UNK         0.0600 
    132 H132       -1.0957  -20.0107  -47.7334 H         1 UNK         0.0800 
    133 H133       -0.5811  -18.3646  -48.0162 H         1 UNK         0.0800 
    134 H134       -2.1369  -21.2498  -49.8244 H         1 UNK         0.0800 
    135 H135       -2.2567  -20.3871  -51.3353 H         1 UNK         0.0800 
    136 H136       -0.2433  -18.7609  -51.9272 H         1 UNK         0.1150 
    137 H137        3.5833  -20.3837  -50.8874 H         1 UNK         0.1150 
    138 H138        0.0185  -21.9740  -49.1271 H         1 UNK         0.1150 
    139 H139        2.1640  -23.1120  -48.8013 H         1 UNK         0.0800 
    140 H140        3.6042  -22.5304  -49.5938 H         1 UNK         0.0800 
    141 H141        0.8913  -21.2043  -47.2638 H         1 UNK         0.0800 
    142 H142        1.7012  -20.2515  -46.0831 H         1 UNK         0.0800 
    143 H143        1.5909  -23.2984  -46.0248 H         1 UNK         0.0600 
    144 H144        2.9195  -21.3716  -44.3005 H         1 UNK         0.3000 
    145 H145        3.9174  -23.6498  -41.8388 H         1 UNK         0.0600 
    146 H146        5.3458  -24.6449  -43.6264 H         1 UNK         0.0600 
    147 H147        5.6753  -23.0441  -44.2784 H         1 UNK         0.0600 
    148 H148        6.2553  -23.4853  -42.6714 H         1 UNK         0.0600 
    149 H149        5.0289  -21.1679  -42.8450 H         1 UNK         0.3000 
    150 H150        2.7945  -18.9871  -41.2931 H         1 UNK         0.0600 
    151 H151        5.5439  -19.6616  -40.1236 H         1 UNK         0.0600 
    152 H152        4.0322  -19.6535  -39.2232 H         1 UNK         0.0600 
    153 H153        4.6540  -18.1553  -39.8936 H         1 UNK         0.0600 
    154 H154        5.3227  -18.3557  -42.2564 H         1 UNK         0.3000 
    155 H155        5.2748  -17.1178  -44.2773 H         1 UNK         0.0600 
    156 H156        5.8948  -19.8101  -45.6261 H         1 UNK         0.0600 
    157 H157        6.7573  -19.1452  -44.2439 H         1 UNK         0.0600 
    158 H158        6.8452  -18.3342  -45.7967 H         1 UNK         0.0600 
    159 H159        4.6002  -18.1146  -46.8401 H         1 UNK         0.3000 
    160 H160        3.4074  -16.0428  -48.0576 H         1 UNK         0.0600 
    161 H161        1.7217  -18.5918  -47.7452 H         1 UNK         0.0600 
    162 H162        3.3186  -18.4827  -48.4748 H         1 UNK         0.0600 
    163 H163        1.9455  -17.7377  -49.2651 H         1 UNK         0.0600 
    164 H164        0.9526  -15.9003  -46.5513 H         1 UNK         0.3000 
    165 H165       -0.2567  -13.2587  -48.4463 H         1 UNK         0.0600 
    166 H166       -1.4166  -14.9903  -49.8188 H         1 UNK         0.0600 
    167 H167       -1.6990  -15.9673  -48.3855 H         1 UNK         0.0600 
    168 H168       -2.4754  -14.3936  -48.5490 H         1 UNK         0.0600 
    169 H169       -1.0994  -15.0122  -46.2216 H         1 UNK         0.3000 
    170 H170        0.3173  -14.3002  -43.9194 H         1 UNK         0.0600 
    171 H171        0.8184  -11.9440  -43.4445 H         1 UNK         0.0600 
    172 H172       -0.8427  -11.4677  -43.7622 H         1 UNK         0.0600 
    173 H173       -0.4625  -12.4838  -42.3717 H         1 UNK         0.0600 
    174 H174       -1.7194  -15.1065  -43.7483 H         1 UNK         0.3000 
    175 H175       -4.9319  -13.9424  -43.7553 H         1 UNK         0.0600 
    176 H176       -5.5968  -15.5311  -45.5230 H         1 UNK         0.0600 
    177 H177       -4.8751  -14.1100  -46.2586 H         1 UNK         0.0600 
    178 H178       -3.9452  -15.5998  -46.1403 H         1 UNK         0.0600 
    179 H179       -3.8533  -16.6124  -43.9374 H         1 UNK         0.3000 
    180 H180       -2.8837  -16.8776  -40.5161 H         1 UNK         0.0600 
    181 H181       -5.1331  -18.1986  -42.1293 H         1 UNK         0.0600 
    182 H182       -5.3120  -17.4238  -40.5611 H         1 UNK         0.0600 
    183 H183       -4.3413  -18.8804  -40.7090 H         1 UNK         0.0600 
    184 H184       -2.7909  -18.6324  -42.8030 H         1 UNK         0.3000 
    185 H185        0.6106  -17.9282  -43.6638 H         1 UNK         0.0600 
    186 H186        0.8236  -20.2961  -43.1103 H         1 UNK         0.0600 
    187 H187        0.4981  -19.4499  -41.6132 H         1 UNK         0.0600 
    188 H188       -0.7880  -20.3483  -42.3991 H         1 UNK         0.0600 
    189 H189       -1.2273  -19.8231  -44.7244 H         1 UNK         0.3000 
    190 H190        0.5732  -23.6210  -43.4820 H         1 UNK         0.3000 
    191 H191       -2.0811  -22.3221  -43.3428 H         1 UNK         0.0600 
    192 H192       -0.7697  -24.4767  -41.5998 H         1 UNK         0.0600 
    193 H193       -2.2860  -23.6519  -41.2544 H         1 UNK         0.0600 
    194 H194       -0.7798  -22.7467  -41.2604 H         1 UNK         0.0600 
    195 H195       -0.6371  -25.1954  -44.6684 H         1 UNK         0.3000 
    196 H196       -2.9264  -26.9218  -44.5930 H         1 UNK         0.0600 
    197 H197       -1.4981  -28.3635  -46.0466 H         1 UNK         0.0600 
    198 H198       -0.5919  -27.7640  -44.6673 H         1 UNK         0.0600 
    199 H199       -0.3553  -27.0428  -46.2600 H         1 UNK         0.0600 
    200 H200       -2.0472  -24.3440  -46.7571 H         1 UNK         0.3000 
    201 H201       -4.0670  -25.2081  -48.7905 H         1 UNK         0.0600 
    202 H202       -2.7650  -23.7400  -50.3626 H         1 UNK         0.0600 
    203 H203       -1.5346  -23.5282  -49.1207 H         1 UNK         0.0600 
    204 H204       -1.8287  -25.1210  -49.8062 H         1 UNK         0.0600 
    205 H205       -5.7830  -23.9268  -48.9232 H         1 UNK         0.3000 
    206 H206       -6.3303  -21.9012  -47.0256 H         1 UNK         0.0600 
    207 H207       -8.0523  -23.4124  -48.0102 H         1 UNK         0.0600 
    208 H208       -8.4864  -21.7355  -48.2884 H         1 UNK         0.0600 
    209 H209       -7.8058  -22.6898  -49.6003 H         1 UNK         0.0600 
    210 H210       -6.9269  -19.7031  -47.3642 H         1 UNK         0.3000 
    211 H211       -5.0791  -18.1137  -48.7377 H         1 UNK         0.0600 
    212 H212       -7.8297  -17.3632  -47.6205 H         1 UNK         0.0600 
    213 H213       -6.5166  -16.2446  -47.9737 H         1 UNK         0.0600 
    214 H214       -6.3292  -17.4383  -46.6975 H         1 UNK         0.0600 
    215 H215       -8.0557  -19.4741  -49.9376 H         1 UNK         0.3000 
    216 H216       -8.5373  -17.7283  -52.1538 H         1 UNK         0.0600 
    217 H217       -9.9369  -19.6392  -52.9588 H         1 UNK         0.0600 
    218 H218      -10.2467  -19.2967  -51.2647 H         1 UNK         0.0600 
    219 H219       -9.2503  -20.6806  -51.7176 H         1 UNK         0.0600 
    220 H220       -6.1152  -20.2259  -51.6207 H         1 UNK         0.3000 
    221 H221       -5.5413  -20.6079  -54.4847 H         1 UNK         0.0600 
    222 H222       -4.1697  -21.7597  -52.0011 H         1 UNK         0.0600 
    223 H223       -5.4905  -22.5332  -52.8730 H         1 UNK         0.0600 
    224 H224       -3.9444  -22.2802  -53.6640 H         1 UNK         0.0600 
    225 H225       -4.8519  -18.1263  -52.3759 H         1 UNK         0.3000 
    226 H226       -2.0941  -17.7694  -52.4649 H         1 UNK         0.0600 
    227 H227       -2.6220  -15.3698  -51.9484 H         1 UNK         0.0600 
    228 H228       -4.3153  -15.6743  -52.3146 H         1 UNK         0.0600 
    229 H229       -3.5400  -16.4876  -50.9553 H         1 UNK         0.0600 
    230 H230       -4.4828  -16.8770  -54.9235 H         1 UNK         0.3000 
    231 H231       -2.7832  -15.2252  -56.5262 H         1 UNK         0.0600 
    232 H232       -5.3309  -16.7754  -57.2425 H         1 UNK         0.0600 
    233 H233       -4.6024  -15.5050  -58.2181 H         1 UNK         0.0600 
    234 H234       -5.2586  -15.1208  -56.6352 H         1 UNK         0.0600 
    235 H235       -3.2562  -18.7183  -56.3739 H         1 UNK         0.3000 
    236 H236       -1.6949  -19.2328  -58.8446 H         1 UNK         0.0600 
    237 H237       -2.3830  -21.5834  -58.4123 H         1 UNK         0.0600 
    238 H238       -3.1399  -21.1110  -56.8959 H         1 UNK         0.0600 
    239 H239       -3.7881  -20.5296  -58.4301 H         1 UNK         0.0600 
    240 H240       -1.2427  -18.8942  -55.4697 H         1 UNK         0.3000 
    241 H241        0.2572  -19.2996  -54.0019 H         1 UNK         0.0600 
    242 H242       -1.0351  -22.7577  -53.9573 H         1 UNK         0.3800 
    243 H243       -1.6750  -21.1559  -54.2773 H         1 UNK         0.3800 
    244 H244        1.9506  -18.4559  -55.7009 H         1 UNK         0.0800 
    245 H245        2.3472  -20.1089  -56.0589 H         1 UNK         0.0800 
    246 H246        3.1851  -17.9876  -51.9878 H         1 UNK         0.0800 
    247 H247        1.7203  -17.7931  -52.9085 H         1 UNK         0.0800 
@<TRIPOS>BOND
     1    1    2 1    
     2    1  127 1    
     3    1  128 1    
     4    1  129 1    
     5    2    3 2    
     6    2    4 am   BACKBONE|DICT|INTERRES
     7    4    5 1    
     8    4  130 1    
     9    5    6 1    
    10    5   65 1    
    11    5  131 1    
    12    6    7 1    
    13    6  132 1    
    14    6  133 1    
    15    7    8 1    
    16    8    9 1    
    17    8  134 1    
    18    8  135 1    
    19    9   10 ar   
    20    9   14 ar   
    21   10   11 ar   
    22   10  136 1    
    23   11   12 ar   
    24   11  126 1    
    25   12   13 ar   
    26   12  137 1    
    27   13   14 ar   
    28   13   15 1    
    29   14  138 1    
    30   15   16 1    
    31   15  139 1    
    32   15  140 1    
    33   16   17 1    
    34   17   18 1    
    35   17  141 1    
    36   17  142 1    
    37   18   19 1    
    38   18   67 1    
    39   18  143 1    
    40   19   20 am   BACKBONE|DICT|INTERRES
    41   19  144 1    
    42   20   21 2    
    43   20   22 1    
    44   22   23 1    
    45   22   24 1    
    46   22  145 1    
    47   23  146 1    
    48   23  147 1    
    49   23  148 1    
    50   24   25 am   BACKBONE|DICT|INTERRES
    51   24  149 1    
    52   25   26 2    
    53   25   27 1    
    54   27   28 1    
    55   27   29 1    
    56   27  150 1    
    57   28  151 1    
    58   28  152 1    
    59   28  153 1    
    60   29   30 am   BACKBONE|DICT|INTERRES
    61   29  154 1    
    62   30   31 2    
    63   30   32 1    
    64   32   33 1    
    65   32   34 1    
    66   32  155 1    
    67   33  156 1    
    68   33  157 1    
    69   33  158 1    
    70   34   35 am   BACKBONE|DICT|INTERRES
    71   34  159 1    
    72   35   36 2    
    73   35   37 1    
    74   37   38 1    
    75   37   39 1    
    76   37  160 1    
    77   38  161 1    
    78   38  162 1    
    79   38  163 1    
    80   39   40 am   BACKBONE|DICT|INTERRES
    81   39  164 1    
    82   40   41 2    
    83   40   42 1    
    84   42   43 1    
    85   42   44 1    
    86   42  165 1    
    87   43  166 1    
    88   43  167 1    
    89   43  168 1    
    90   44   45 am   BACKBONE|DICT|INTERRES
    91   44  169 1    
    92   45   46 2    
    93   45   47 1    
    94   47   48 1    
    95   47   49 1    
    96   47  170 1    
    97   48  171 1    
    98   48  172 1    
    99   48  173 1    
   100   49   50 am   BACKBONE|DICT|INTERRES
   101   49  174 1    
   102   50   51 2    
   103   50   52 1    
   104   52   53 1    
   105   52   54 1    
   106   52  175 1    
   107   53  176 1    
   108   53  177 1    
   109   53  178 1    
   110   54   55 am   BACKBONE|DICT|INTERRES
   111   54  179 1    
   112   55   56 2    
   113   55   57 1    
   114   57   58 1    
   115   57   59 1    
   116   57  180 1    
   117   58  181 1    
   118   58  182 1    
   119   58  183 1    
   120   59   60 am   BACKBONE|DICT|INTERRES
   121   59  184 1    
   122   60   61 2    
   123   60   62 1    
   124   62   63 1    
   125   62   64 1    
   126   62  185 1    
   127   63  186 1    
   128   63  187 1    
   129   63  188 1    
   130   64   65 am   BACKBONE|DICT|INTERRES
   131   64  189 1    
   132   65   66 2    
   133   67   68 2    
   134   67   69 am   BACKBONE|DICT|INTERRES
   135   69   70 1    
   136   69  190 1    
   137   70   71 1    
   138   70   72 1    
   139   70  191 1    
   140   71  192 1    
   141   71  193 1    
   142   71  194 1    
   143   72   73 2    
   144   72   74 am   BACKBONE|DICT|INTERRES
   145   74   75 1    
   146   74  195 1    
   147   75   76 1    
   148   75   77 1    
   149   75  196 1    
   150   76  197 1    
   151   76  198 1    
   152   76  199 1    
   153   77   78 2    
   154   77   79 am   BACKBONE|DICT|INTERRES
   155   79   80 1    
   156   79  200 1    
   157   80   81 1    
   158   80   82 1    
   159   80  201 1    
   160   81  202 1    
   161   81  203 1    
   162   81  204 1    
   163   82   83 2    
   164   82   84 am   BACKBONE|DICT|INTERRES
   165   84   85 1    
   166   84  205 1    
   167   85   86 1    
   168   85   87 1    
   169   85  206 1    
   170   86  207 1    
   171   86  208 1    
   172   86  209 1    
   173   87   88 2    
   174   87   89 am   BACKBONE|DICT|INTERRES
   175   89   90 1    
   176   89  210 1    
   177   90   91 1    
   178   90   92 1    
   179   90  211 1    
   180   91  212 1    
   181   91  213 1    
   182   91  214 1    
   183   92   93 2    
   184   92   94 am   BACKBONE|DICT|INTERRES
   185   94   95 1    
   186   94  215 1    
   187   95   96 1    
   188   95   97 1    
   189   95  216 1    
   190   96  217 1    
   191   96  218 1    
   192   96  219 1    
   193   97   98 2    
   194   97   99 am   BACKBONE|DICT|INTERRES
   195   99  100 1    
   196   99  220 1    
   197  100  101 1    
   198  100  102 1    
   199  100  221 1    
   200  101  222 1    
   201  101  223 1    
   202  101  224 1    
   203  102  103 2    
   204  102  104 am   BACKBONE|DICT|INTERRES
   205  104  105 1    
   206  104  225 1    
   207  105  106 1    
   208  105  107 1    
   209  105  226 1    
   210  106  227 1    
   211  106  228 1    
   212  106  229 1    
   213  107  108 2    
   214  107  109 am   BACKBONE|DICT|INTERRES
   215  109  110 1    
   216  109  230 1    
   217  110  111 1    
   218  110  112 1    
   219  110  231 1    
   220  111  232 1    
   221  111  233 1    
   222  111  234 1    
   223  112  113 2    
   224  112  114 am   BACKBONE|DICT|INTERRES
   225  114  115 1    
   226  114  235 1    
   227  115  116 1    
   228  115  117 1    
   229  115  236 1    
   230  116  237 1    
   231  116  238 1    
   232  116  239 1    
   233  117  118 2    
   234  117  119 am   BACKBONE|DICT|INTERRES
   235  119  120 1    
   236  119  240 1    
   237  120  121 1    
   238  120  124 1    
   239  120  241 1    
   240  121  122 am   BACKBONE|DICT|INTERRES
   241  121  123 2    
   242  122  242 1    
   243  122  243 1    
   244  124  125 1    
   245  124  244 1    
   246  124  245 1    
   247  125  126 1    
   248  126  246 1    
   249  126  247 1    
@<TRIPOS>SUBSTRUCTURE
     1 UNK         1 GROUP             0       ****    0 ROOT    
