@<TRIPOS>MOLECULE
3R540
247   249    1
SMALL
USER_CHARGES


@<TRIPOS>ATOM
      1 CA          3.9436  -15.7440  -45.3484 C.3       0 UNK        -0.1800 
      2 C           3.1847  -15.2457  -46.5682 C.2       0 UNK         0.5000 
      3 O           3.6530  -14.3343  -47.2483 O.2       0 UNK        -0.5000 
      4 N           1.9991  -15.8160  -46.8236 N.am      1 UNK        -0.5000 
      5 CA          1.0926  -15.5592  -47.9607 C.3       1 UNK         0.1400 
      6 C6          1.7420  -15.7607  -49.3582 C.3       23 UNK        -0.0398 
      7 S7          2.5702  -17.3756  -49.5758 S.3       23 UNK        -0.2404 
      8 C8          1.3472  -18.3105  -50.5617 C.3       23 UNK        -0.0205 
      9 C9          1.9027  -19.5544  -51.2620 C.ar      23 UNK        -0.0193 
     10 C10         1.2763  -19.9910  -52.4337 C.ar      23 UNK        -0.1150 
     11 C11         1.7710  -21.0802  -53.1568 C.ar      23 UNK        -0.0193 
     12 C12         2.9078  -21.7469  -52.6903 C.ar      23 UNK        -0.1150 
     13 C13         3.5400  -21.3398  -51.5107 C.ar      23 UNK        -0.0193 
     14 C14         3.0233  -20.2556  -50.7927 C.ar      23 UNK        -0.1150 
     15 C15         4.8286  -22.0211  -51.0660 C.3       23 UNK        -0.0205 
     16 S16         4.5438  -23.5792  -50.1664 S.3       23 UNK        -0.2404 
     17 C17         4.3714  -23.0128  -48.4382 C.3       23 UNK        -0.0398 
     18 CA          3.1195  -23.6028  -47.7449 C.3       11 UNK         0.1400 
     19 N           3.2330  -23.5854  -46.2826 N.am      11 UNK        -0.5000 
     20 C           2.3864  -24.2155  -45.4539 C.2       10 UNK         0.5000 
     21 O           1.4478  -24.9150  -45.8354 O.2       10 UNK        -0.5000 
     22 CA          2.5969  -23.9890  -43.9462 C.3       10 UNK         0.1400 
     23 CB          3.6393  -24.9716  -43.3923 C.3       10 UNK        -0.1800 
     24 N           2.9935  -22.6177  -43.6126 N.am      10 UNK        -0.5000 
     25 C           2.2271  -21.5361  -43.8062 C.2       9 UNK         0.5000 
     26 O           1.1238  -21.5681  -44.3526 O.2       9 UNK        -0.5000 
     27 CA          2.8067  -20.1887  -43.3454 C.3       9 UNK         0.1400 
     28 CB          3.2439  -19.3361  -44.5455 C.3       9 UNK        -0.1800 
     29 N           1.8460  -19.4391  -42.5368 N.am      9 UNK        -0.5000 
     30 C           1.5247  -19.7573  -41.2750 C.2       8 UNK         0.5000 
     31 O           2.0177  -20.7052  -40.6617 O.2       8 UNK        -0.5000 
     32 CA          0.4959  -18.8584  -40.5707 C.3       8 UNK         0.1400 
     33 CB          1.1327  -17.5208  -40.1605 C.3       8 UNK        -0.1800 
     34 N          -0.6796  -18.6035  -41.4001 N.am      8 UNK        -0.5000 
     35 C          -1.7084  -19.4512  -41.5455 C.2       7 UNK         0.5000 
     36 O          -1.7589  -20.5608  -41.0143 O.2       7 UNK        -0.5000 
     37 CA         -2.8952  -18.9727  -42.4046 C.3       7 UNK         0.1400 
     38 CB         -4.0037  -18.3914  -41.5135 C.3       7 UNK        -0.1800 
     39 N          -2.4871  -17.9587  -43.3761 N.am      7 UNK        -0.5000 
     40 C          -2.0198  -18.2467  -44.5984 C.2       6 UNK         0.5000 
     41 O          -2.0295  -19.3774  -45.0798 O.2       6 UNK        -0.5000 
     42 CA         -1.4326  -17.0876  -45.4266 C.3       6 UNK         0.1400 
     43 CB         -2.4101  -16.6620  -46.5310 C.3       6 UNK        -0.1800 
     44 N          -1.0522  -15.9302  -44.6178 N.am      6 UNK        -0.5000 
     45 C           0.0029  -15.9124  -43.7873 C.2       5 UNK         0.5000 
     46 O           0.7893  -16.8549  -43.6835 O.2       5 UNK        -0.5000 
     47 CA          0.2010  -14.6697  -42.8962 C.3       5 UNK         0.1400 
     48 CB          1.3918  -13.8338  -43.3837 C.3       5 UNK        -0.1800 
     49 N          -0.9914  -13.8253  -42.8073 N.am      5 UNK        -0.5000 
     50 C          -2.1226  -14.1859  -42.1817 C.2       4 UNK         0.5000 
     51 O          -2.2547  -15.2600  -41.5932 O.2       4 UNK        -0.5000 
     52 CA         -3.3243  -13.2250  -42.2849 C.3       4 UNK         0.1400 
     53 CB         -3.3631  -12.2821  -41.0735 C.3       4 UNK        -0.1800 
     54 N          -3.3394  -12.4278  -43.5150 N.am      4 UNK        -0.5000 
     55 C          -3.3834  -12.9268  -44.7585 C.2       3 UNK         0.5000 
     56 O          -3.4395  -14.1314  -45.0010 O.2       3 UNK        -0.5000 
     57 CA         -3.3001  -11.9319  -45.9330 C.3       3 UNK         0.1400 
     58 CB         -3.6295  -10.4736  -45.5424 C.3       3 UNK        -0.1800 
     59 N          -1.9996  -11.9961  -46.6097 N.am      3 UNK        -0.5000 
     60 C          -0.7904  -11.8192  -46.0591 C.2       2 UNK         0.5000 
     61 O          -0.6019  -11.6409  -44.8533 O.2       2 UNK        -0.5000 
     62 CA          0.4099  -11.8561  -47.0240 C.3       2 UNK         0.1400 
     63 CB          1.5569  -10.9492  -46.5453 C.3       2 UNK        -0.1800 
     64 N           0.9301  -13.2101  -47.1895 N.am      2 UNK        -0.5000 
     65 C           0.3667  -14.1919  -47.9019 C.2       1 UNK         0.5000 
     66 O          -0.6934  -14.0515  -48.5112 O.2       1 UNK        -0.5000 
     67 C           1.8332  -22.8975  -48.2112 C.2       11 UNK         0.5000 
     68 O           1.1267  -23.4249  -49.0662 O.2       11 UNK        -0.5000 
     69 N           1.5267  -21.7474  -47.5965 N.am      12 UNK        -0.5000 
     70 CA          0.3230  -20.9725  -47.8768 C.3       12 UNK         0.1400 
     71 CB          0.4516  -19.5883  -47.2412 C.3       12 UNK        -0.1800 
     72 C          -0.9580  -21.6840  -47.4078 C.2       12 UNK         0.5000 
     73 O          -1.9619  -21.6458  -48.1166 O.2       12 UNK        -0.5000 
     74 N          -0.8936  -22.3668  -46.2570 N.am      13 UNK        -0.5000 
     75 CA         -1.9722  -23.2097  -45.7432 C.3       13 UNK         0.1400 
     76 CB         -1.6279  -23.6883  -44.3252 C.3       13 UNK        -0.1800 
     77 C          -2.2734  -24.3945  -46.6813 C.2       13 UNK         0.5000 
     78 O          -3.4386  -24.6331  -47.0016 O.2       13 UNK        -0.5000 
     79 N          -1.2170  -25.0695  -47.1604 N.am      14 UNK        -0.5000 
     80 CA         -1.2920  -26.1355  -48.1644 C.3       14 UNK         0.1400 
     81 CB          0.0824  -26.8084  -48.2973 C.3       14 UNK        -0.1800 
     82 C          -1.7955  -25.6437  -49.5374 C.2       14 UNK         0.5000 
     83 O          -2.4935  -26.3845  -50.2300 O.2       14 UNK        -0.5000 
     84 N          -1.4676  -24.3928  -49.8860 N.am      15 UNK        -0.5000 
     85 CA         -1.9172  -23.6880  -51.0873 C.3       15 UNK         0.1400 
     86 CB         -1.0207  -22.4599  -51.3106 C.3       15 UNK        -0.1800 
     87 C          -3.3957  -23.2523  -51.0512 C.2       15 UNK         0.5000 
     88 O          -3.8717  -22.7452  -52.0651 O.2       15 UNK        -0.5000 
     89 N          -4.0811  -23.4423  -49.9130 N.am      16 UNK        -0.5000 
     90 CA         -5.4589  -23.0323  -49.6208 C.3       16 UNK         0.1400 
     91 CB         -6.4688  -23.6431  -50.6169 C.3       16 UNK        -0.1800 
     92 C          -5.5993  -21.5051  -49.4537 C.2       16 UNK         0.5000 
     93 O          -6.5890  -20.9172  -49.8959 O.2       16 UNK        -0.5000 
     94 N          -4.6077  -20.9050  -48.7794 N.am      17 UNK        -0.5000 
     95 CA         -4.4711  -19.4882  -48.4384 C.3       17 UNK         0.1400 
     96 CB         -5.6226  -19.0287  -47.5171 C.3       17 UNK        -0.1800 
     97 C          -4.2889  -18.5870  -49.6765 C.2       17 UNK         0.5000 
     98 O          -4.0550  -19.0784  -50.7804 O.2       17 UNK        -0.5000 
     99 N          -4.3728  -17.2662  -49.4723 N.am      18 UNK        -0.5000 
    100 CA        -4.2172  -16.2579  -50.5237 C.3       18 UNK         0.1400 
    101 CB        -4.0548  -14.8795  -49.8647 C.3       18 UNK        -0.1800 
    102 C         -5.3866  -16.2396  -51.5289 C.2       18 UNK         0.5000 
    103 O         -5.1988  -15.8232  -52.6719 O.2       18 UNK        -0.5000 
    104 N         -6.5697  -16.6841  -51.0830 N.am      19 UNK        -0.5000 
    105 CA        -7.8190  -16.6681  -51.8441 C.3       19 UNK         0.1400 
    106 CB        -8.9864  -16.9226  -50.8777 C.3       19 UNK        -0.1800 
    107 C         -7.8651  -17.6734  -53.0105 C.2       19 UNK         0.5000 
    108 O         -8.5877  -17.4294  -53.9779 O.2       19 UNK        -0.5000 
    109 N         -7.1200  -18.7804  -52.9010 N.am      20 UNK        -0.5000 
    110 CA        -7.1258  -19.8817  -53.8677 C.3       20 UNK         0.1400 
    111 CB        -8.1194  -20.9604  -53.3955 C.3       20 UNK        -0.1800 
    112 C         -5.7125  -20.4419  -54.1111 C.2       20 UNK         0.5000 
    113 O         -5.5909  -21.6002  -54.5108 O.2       20 UNK        -0.5000 
    114 N         -4.6929  -19.6027  -53.8704 N.am      21 UNK        -0.5000 
    115 CA        -3.2499  -19.8709  -53.8483 C.3       21 UNK         0.1400 
    116 CB        -2.5113  -18.5210  -53.8882 C.3       21 UNK        -0.1800 
    117 C         -2.7284  -20.8249  -54.9427 C.2       21 UNK         0.5000 
    118 O         -2.4004  -20.3803  -56.0448 O.2       21 UNK        -0.5000 
    119 N         -2.6653  -22.1168  -54.5999 N.am      22 UNK        -0.5000 
    120 CA        -2.2230  -23.2367  -55.4487 C.3       22 UNK         0.1400 
    121 C         -3.1584  -23.5297  -56.6632 C.2       22 UNK         0.5000 
    122 N         -4.4154  -23.1029  -56.6455 N.am      22 UNK        -0.7600 
    123 O         -2.7565  -24.1804  -57.6245 O.2       22 UNK        -0.5000 
    124 C124       -0.7178  -23.1583  -55.8427 C.3       23 UNK        -0.0398 
    125 S125        0.3925  -23.1657  -54.3912 S.3       23 UNK        -0.2404 
    126 C126        1.1068  -21.4924  -54.4664 C.3       23 UNK        -0.0205 
    127 H127        4.4060  -14.9087  -44.8225 H         1 UNK         0.0600 
    128 H128        4.7295  -16.4354  -45.6522 H         1 UNK         0.0600 
    129 H129        3.2831  -16.2552  -44.6492 H         1 UNK         0.0600 
    130 H130        1.6810  -16.5329  -46.1872 H         1 UNK         0.3000 
    131 H131        0.3063  -16.3091  -47.8717 H         1 UNK         0.0600 
    132 H132        0.9935  -15.6388  -50.1428 H         1 UNK         0.0800 
    133 H133        2.4865  -14.9854  -49.5452 H         1 UNK         0.0800 
    134 H134        0.9410  -17.6398  -51.3203 H         1 UNK         0.0800 
    135 H135        0.5096  -18.5971  -49.9271 H         1 UNK         0.0800 
    136 H136        0.4093  -19.4612  -52.7986 H         1 UNK         0.1150 
    137 H137        3.3090  -22.5765  -53.2555 H         1 UNK         0.1150 
    138 H138        3.5211  -19.9405  -49.8876 H         1 UNK         0.1150 
    139 H139        5.4308  -22.2436  -51.9481 H         1 UNK         0.0800 
    140 H140        5.4350  -21.3451  -50.4612 H         1 UNK         0.0800 
    141 H141        4.3773  -21.9227  -48.3858 H         1 UNK         0.0800 
    142 H142        5.2710  -23.3398  -47.9149 H         1 UNK         0.0800 
    143 H143        3.0369  -24.6530  -48.0350 H         1 UNK         0.0600 
    144 H144        3.9782  -23.0340  -45.8836 H         1 UNK         0.3000 
    145 H145        1.6455  -24.1889  -43.4488 H         1 UNK         0.0600 
    146 H146        3.7279  -24.8834  -42.3093 H         1 UNK         0.0600 
    147 H147        3.3580  -26.0028  -43.6106 H         1 UNK         0.0600 
    148 H148        4.6257  -24.8016  -43.8256 H         1 UNK         0.0600 
    149 H149        3.8884  -22.5086  -43.1575 H         1 UNK         0.3000 
    150 H150        3.6923  -20.3818  -42.7360 H         1 UNK         0.0600 
    151 H151        3.8580  -19.9101  -45.2406 H         1 UNK         0.0600 
    152 H152        3.8432  -18.4901  -44.2122 H         1 UNK         0.0600 
    153 H153        2.3914  -18.9444  -45.0989 H         1 UNK         0.0600 
    154 H154        1.3948  -18.6446  -42.9783 H         1 UNK         0.3000 
    155 H155        0.1740  -19.3658  -39.6585 H         1 UNK         0.0600 
    156 H156        1.5353  -16.9819  -41.0181 H         1 UNK         0.0600 
    157 H157        1.9562  -17.6825  -39.4639 H         1 UNK         0.0600 
    158 H158        0.4096  -16.8730  -39.6643 H         1 UNK         0.0600 
    159 H159       -0.7049  -17.7248  -41.8939 H         1 UNK         0.3000 
    160 H160       -3.3033  -19.8422  -42.9246 H         1 UNK         0.0600 
    161 H161       -3.6533  -17.5317  -40.9412 H         1 UNK         0.0600 
    162 H162       -4.3610  -19.1356  -40.8007 H         1 UNK         0.0600 
    163 H163       -4.8604  -18.0726  -42.1075 H         1 UNK         0.0600 
    164 H164       -2.4752  -16.9994  -43.0537 H         1 UNK         0.3000 
    165 H165       -0.5214  -17.4466  -45.8997 H         1 UNK         0.0600 
    166 H166       -2.1041  -15.7317  -47.0061 H         1 UNK         0.0600 
    167 H167       -2.4572  -17.4218  -47.3090 H         1 UNK         0.0600 
    168 H168       -3.4198  -16.5196  -46.1445 H         1 UNK         0.0600 
    169 H169       -1.6897  -15.1409  -44.6388 H         1 UNK         0.3000 
    170 H170        0.4308  -15.0220  -41.8893 H         1 UNK         0.0600 
    171 H171        2.3213  -14.3956  -43.2923 H         1 UNK         0.0600 
    172 H172        1.2827  -13.5463  -44.4281 H         1 UNK         0.0600 
    173 H173        1.5063  -12.9235  -42.7951 H         1 UNK         0.0600 
    174 H174       -0.9653  -12.9469  -43.3167 H         1 UNK         0.3000 
    175 H175       -4.2301  -13.8347  -42.2747 H         1 UNK         0.0600 
    176 H176       -2.4929  -11.6250  -41.0477 H         1 UNK         0.0600 
    177 H177       -4.2565  -11.6575  -41.0875 H         1 UNK         0.0600 
    178 H178       -3.3770  -12.8460  -40.1397 H         1 UNK         0.0600 
    179 H179       -3.2524  -11.4279  -43.4058 H         1 UNK         0.3000 
    180 H180       -4.0467  -12.2561  -46.6596 H         1 UNK         0.0600 
    181 H181       -2.8910  -10.0475  -44.8624 H         1 UNK         0.0600 
    182 H182       -4.6059  -10.4060  -45.0607 H         1 UNK         0.0600 
    183 H183       -3.6651   -9.8360  -46.4258 H         1 UNK         0.0600 
    184 H184       -2.0322  -12.2425  -47.5904 H         1 UNK         0.3000 
    185 H185        0.0788  -11.4859  -47.9967 H         1 UNK         0.0600 
    186 H186        1.9783  -11.2922  -45.5994 H         1 UNK         0.0600 
    187 H187        2.3642  -10.9168  -47.2772 H         1 UNK         0.0600 
    188 H188        1.2099   -9.9256  -46.3985 H         1 UNK         0.0600 
    189 H189        1.8359  -13.3997  -46.7799 H         1 UNK         0.3000 
    190 H190        2.1188  -21.4142  -46.8519 H         1 UNK         0.3000 
    191 H191        0.2619  -20.8399  -48.9576 H         1 UNK         0.0600 
    192 H192       -0.3654  -18.9501  -47.5764 H         1 UNK         0.0600 
    193 H193        1.3866  -19.1040  -47.5186 H         1 UNK         0.0600 
    194 H194        0.4135  -19.6457  -46.1538 H         1 UNK         0.0600 
    195 H195       -0.0642  -22.2727  -45.6777 H         1 UNK         0.3000 
    196 H196       -2.8716  -22.5932  -45.6821 H         1 UNK         0.0600 
    197 H197       -2.4415  -24.2813  -43.9061 H         1 UNK         0.0600 
    198 H198       -1.4608  -22.8436  -43.6557 H         1 UNK         0.0600 
    199 H199       -0.7306  -24.3065  -44.3131 H         1 UNK         0.0600 
    200 H200       -0.2893  -24.8289  -46.8239 H         1 UNK         0.3000 
    201 H201       -2.0015  -26.8824  -47.8028 H         1 UNK         0.0600 
    202 H202        0.4117  -27.2236  -47.3446 H         1 UNK         0.0600 
    203 H203        0.8440  -26.1055  -48.6357 H         1 UNK         0.0600 
    204 H204        0.0488  -27.6279  -49.0161 H         1 UNK         0.0600 
    205 H205       -0.8096  -23.8902  -49.2992 H         1 UNK         0.3000 
    206 H206       -1.7935  -24.3585  -51.9400 H         1 UNK         0.0600 
    207 H207        0.0330  -22.7348  -51.3466 H         1 UNK         0.0600 
    208 H208       -1.2523  -21.9667  -52.2525 H         1 UNK         0.0600 
    209 H209       -1.1512  -21.7131  -50.5318 H         1 UNK         0.0600 
    210 H210       -3.5828  -23.8546  -49.1341 H         1 UNK         0.3000 
    211 H211       -5.6851  -23.4556  -48.6411 H         1 UNK         0.0600 
    212 H212       -6.3716  -23.2140  -51.6142 H         1 UNK         0.0600 
    213 H213       -7.4933  -23.4653  -50.2885 H         1 UNK         0.0600 
    214 H214       -6.3372  -24.7218  -50.7006 H         1 UNK         0.0600 
    215 H215       -3.7874  -21.4584  -48.5441 H         1 UNK         0.3000 
    216 H216       -3.5443  -19.4190  -47.8687 H         1 UNK         0.0600 
    217 H217       -5.4163  -18.0545  -47.0734 H         1 UNK         0.0600 
    218 H218       -5.7637  -19.7261  -46.6912 H         1 UNK         0.0600 
    219 H219       -6.5686  -18.9529  -48.0543 H         1 UNK         0.0600 
    220 H220       -4.5649  -16.9210  -48.5438 H         1 UNK         0.3000 
    221 H221       -3.3037  -16.4792  -51.0793 H         1 UNK         0.0600 
    222 H222       -4.9378  -14.6002  -49.2886 H         1 UNK         0.0600 
    223 H223       -3.1973  -14.8624  -49.1926 H         1 UNK         0.0600 
    224 H224       -3.8925  -14.1043  -50.6148 H         1 UNK         0.0600 
    225 H225       -6.6246  -17.0193  -50.1330 H         1 UNK         0.3000 
    226 H226       -7.9412  -15.6696  -52.2693 H         1 UNK         0.0600 
    227 H227       -8.9063  -17.9000  -50.3997 H         1 UNK         0.0600 
    228 H228       -9.0229  -16.1660  -50.0937 H         1 UNK         0.0600 
    229 H229       -9.9425  -16.8911  -51.4019 H         1 UNK         0.0600 
    230 H230       -6.5571  -18.9178  -52.0708 H         1 UNK         0.3000 
    231 H231       -7.4610  -19.5185  -54.8412 H         1 UNK         0.0600 
    232 H232       -8.1845  -21.7825  -54.1091 H         1 UNK         0.0600 
    233 H233       -9.1234  -20.5504  -53.2855 H         1 UNK         0.0600 
    234 H234       -7.8226  -21.3794  -52.4336 H         1 UNK         0.0600 
    235 H235       -4.9475  -18.6727  -53.5729 H         1 UNK         0.3000 
    236 H236       -3.0283  -20.3298  -52.8840 H         1 UNK         0.0600 
    237 H237       -2.7300  -17.9257  -53.0022 H         1 UNK         0.0600 
    238 H238       -1.4314  -18.6618  -53.9252 H         1 UNK         0.0600 
    239 H239       -2.7936  -17.9351  -54.7636 H         1 UNK         0.0600 
    240 H240       -3.0660  -22.3802  -53.7016 H         1 UNK         0.3000 
    241 H241       -2.3342  -24.1202  -54.8194 H         1 UNK         0.0600 
    242 H242       -5.0210  -23.3032  -57.4248 H         1 UNK         0.3800 
    243 H243       -4.7740  -22.5797  -55.8477 H         1 UNK         0.3800 
    244 H244       -0.4388  -24.0212  -56.4491 H         1 UNK         0.0800 
    245 H245       -0.5250  -22.2839  -56.4653 H         1 UNK         0.0800 
    246 H246        0.3227  -20.7812  -54.7300 H         1 UNK         0.0800 
    247 H247        1.8414  -21.4527  -55.2717 H         1 UNK         0.0800 
@<TRIPOS>BOND
     1    1    2 1    
     2    1  127 1    
     3    1  128 1    
     4    1  129 1    
     5    2    3 2    
     6    2    4 am   BACKBONE|DICT|INTERRES
     7    4    5 1    
     8    4  130 1    
     9    5    6 1    
    10    5   65 1    
    11    5  131 1    
    12    6    7 1    
    13    6  132 1    
    14    6  133 1    
    15    7    8 1    
    16    8    9 1    
    17    8  134 1    
    18    8  135 1    
    19    9   10 ar   
    20    9   14 ar   
    21   10   11 ar   
    22   10  136 1    
    23   11   12 ar   
    24   11  126 1    
    25   12   13 ar   
    26   12  137 1    
    27   13   14 ar   
    28   13   15 1    
    29   14  138 1    
    30   15   16 1    
    31   15  139 1    
    32   15  140 1    
    33   16   17 1    
    34   17   18 1    
    35   17  141 1    
    36   17  142 1    
    37   18   19 1    
    38   18   67 1    
    39   18  143 1    
    40   19   20 am   BACKBONE|DICT|INTERRES
    41   19  144 1    
    42   20   21 2    
    43   20   22 1    
    44   22   23 1    
    45   22   24 1    
    46   22  145 1    
    47   23  146 1    
    48   23  147 1    
    49   23  148 1    
    50   24   25 am   BACKBONE|DICT|INTERRES
    51   24  149 1    
    52   25   26 2    
    53   25   27 1    
    54   27   28 1    
    55   27   29 1    
    56   27  150 1    
    57   28  151 1    
    58   28  152 1    
    59   28  153 1    
    60   29   30 am   BACKBONE|DICT|INTERRES
    61   29  154 1    
    62   30   31 2    
    63   30   32 1    
    64   32   33 1    
    65   32   34 1    
    66   32  155 1    
    67   33  156 1    
    68   33  157 1    
    69   33  158 1    
    70   34   35 am   BACKBONE|DICT|INTERRES
    71   34  159 1    
    72   35   36 2    
    73   35   37 1    
    74   37   38 1    
    75   37   39 1    
    76   37  160 1    
    77   38  161 1    
    78   38  162 1    
    79   38  163 1    
    80   39   40 am   BACKBONE|DICT|INTERRES
    81   39  164 1    
    82   40   41 2    
    83   40   42 1    
    84   42   43 1    
    85   42   44 1    
    86   42  165 1    
    87   43  166 1    
    88   43  167 1    
    89   43  168 1    
    90   44   45 am   BACKBONE|DICT|INTERRES
    91   44  169 1    
    92   45   46 2    
    93   45   47 1    
    94   47   48 1    
    95   47   49 1    
    96   47  170 1    
    97   48  171 1    
    98   48  172 1    
    99   48  173 1    
   100   49   50 am   BACKBONE|DICT|INTERRES
   101   49  174 1    
   102   50   51 2    
   103   50   52 1    
   104   52   53 1    
   105   52   54 1    
   106   52  175 1    
   107   53  176 1    
   108   53  177 1    
   109   53  178 1    
   110   54   55 am   BACKBONE|DICT|INTERRES
   111   54  179 1    
   112   55   56 2    
   113   55   57 1    
   114   57   58 1    
   115   57   59 1    
   116   57  180 1    
   117   58  181 1    
   118   58  182 1    
   119   58  183 1    
   120   59   60 am   BACKBONE|DICT|INTERRES
   121   59  184 1    
   122   60   61 2    
   123   60   62 1    
   124   62   63 1    
   125   62   64 1    
   126   62  185 1    
   127   63  186 1    
   128   63  187 1    
   129   63  188 1    
   130   64   65 am   BACKBONE|DICT|INTERRES
   131   64  189 1    
   132   65   66 2    
   133   67   68 2    
   134   67   69 am   BACKBONE|DICT|INTERRES
   135   69   70 1    
   136   69  190 1    
   137   70   71 1    
   138   70   72 1    
   139   70  191 1    
   140   71  192 1    
   141   71  193 1    
   142   71  194 1    
   143   72   73 2    
   144   72   74 am   BACKBONE|DICT|INTERRES
   145   74   75 1    
   146   74  195 1    
   147   75   76 1    
   148   75   77 1    
   149   75  196 1    
   150   76  197 1    
   151   76  198 1    
   152   76  199 1    
   153   77   78 2    
   154   77   79 am   BACKBONE|DICT|INTERRES
   155   79   80 1    
   156   79  200 1    
   157   80   81 1    
   158   80   82 1    
   159   80  201 1    
   160   81  202 1    
   161   81  203 1    
   162   81  204 1    
   163   82   83 2    
   164   82   84 am   BACKBONE|DICT|INTERRES
   165   84   85 1    
   166   84  205 1    
   167   85   86 1    
   168   85   87 1    
   169   85  206 1    
   170   86  207 1    
   171   86  208 1    
   172   86  209 1    
   173   87   88 2    
   174   87   89 am   BACKBONE|DICT|INTERRES
   175   89   90 1    
   176   89  210 1    
   177   90   91 1    
   178   90   92 1    
   179   90  211 1    
   180   91  212 1    
   181   91  213 1    
   182   91  214 1    
   183   92   93 2    
   184   92   94 am   BACKBONE|DICT|INTERRES
   185   94   95 1    
   186   94  215 1    
   187   95   96 1    
   188   95   97 1    
   189   95  216 1    
   190   96  217 1    
   191   96  218 1    
   192   96  219 1    
   193   97   98 2    
   194   97   99 am   BACKBONE|DICT|INTERRES
   195   99  100 1    
   196   99  220 1    
   197  100  101 1    
   198  100  102 1    
   199  100  221 1    
   200  101  222 1    
   201  101  223 1    
   202  101  224 1    
   203  102  103 2    
   204  102  104 am   BACKBONE|DICT|INTERRES
   205  104  105 1    
   206  104  225 1    
   207  105  106 1    
   208  105  107 1    
   209  105  226 1    
   210  106  227 1    
   211  106  228 1    
   212  106  229 1    
   213  107  108 2    
   214  107  109 am   BACKBONE|DICT|INTERRES
   215  109  110 1    
   216  109  230 1    
   217  110  111 1    
   218  110  112 1    
   219  110  231 1    
   220  111  232 1    
   221  111  233 1    
   222  111  234 1    
   223  112  113 2    
   224  112  114 am   BACKBONE|DICT|INTERRES
   225  114  115 1    
   226  114  235 1    
   227  115  116 1    
   228  115  117 1    
   229  115  236 1    
   230  116  237 1    
   231  116  238 1    
   232  116  239 1    
   233  117  118 2    
   234  117  119 am   BACKBONE|DICT|INTERRES
   235  119  120 1    
   236  119  240 1    
   237  120  121 1    
   238  120  124 1    
   239  120  241 1    
   240  121  122 am   BACKBONE|DICT|INTERRES
   241  121  123 2    
   242  122  242 1    
   243  122  243 1    
   244  124  125 1    
   245  124  244 1    
   246  124  245 1    
   247  125  126 1    
   248  126  246 1    
   249  126  247 1    
@<TRIPOS>SUBSTRUCTURE
     1 UNK         1 GROUP             0       ****    0 ROOT    
