@<TRIPOS>MOLECULE
3R540
247   249    1
SMALL
USER_CHARGES


@<TRIPOS>ATOM
      1 CA         -3.6345   -8.3172  -44.5768 C.3       0 UNK        -0.1800 
      2 C          -2.5621   -8.8088  -45.5389 C.2       0 UNK         0.5000 
      3 O          -1.6839   -8.0365  -45.9241 O.2       0 UNK        -0.5000 
      4 N          -2.6337  -10.0861  -45.9333 N.am      1 UNK        -0.5000 
      5 CA         -1.6579  -10.7538  -46.7956 C.3       1 UNK         0.1400 
      6 C6         -2.2539  -12.0439  -47.4124 C.3       23 UNK        -0.0398 
      7 S7         -1.1708  -12.8295  -48.6531 S.3       23 UNK        -0.2404 
      8 C8         -2.2297  -14.2104  -49.1919 C.3       23 UNK        -0.0205 
      9 C9         -1.4221  -15.2990  -49.8833 C.ar      23 UNK        -0.0193 
     10 C10        -1.5480  -15.5323  -51.2561 C.ar      23 UNK        -0.1150 
     11 C11        -0.8119  -16.5503  -51.8744 C.ar      23 UNK        -0.0193 
     12 C12         0.0651  -17.3279  -51.1086 C.ar      23 UNK        -0.1150 
     13 C13         0.2122  -17.0917  -49.7388 C.ar      23 UNK        -0.0193 
     14 C14        -0.5443  -16.0857  -49.1359 C.ar      23 UNK        -0.1150 
     15 C15         1.2249  -17.8725  -48.9122 C.3       23 UNK        -0.0205 
     16 S16         0.4553  -18.7541  -47.5199 S.3       23 UNK        -0.2404 
     17 C17         0.0312  -20.3368  -48.3149 C.3       23 UNK        -0.0398 
     18 CA         -0.8760  -21.2494  -47.4556 C.3       11 UNK         0.1400 
     19 N          -0.3401  -21.4479  -46.1052 N.am      11 UNK        -0.5000 
     20 C          -0.6408  -22.4834  -45.3119 C.2       10 UNK         0.5000 
     21 O          -1.3747  -23.4113  -45.6499 O.2       10 UNK        -0.5000 
     22 CA         -0.0515  -22.4510  -43.8892 C.3       10 UNK         0.1400 
     23 CB          1.4096  -22.9233  -43.8967 C.3       10 UNK        -0.1800 
     24 N          -0.1387  -21.1282  -43.2610 N.am      10 UNK        -0.5000 
     25 C          -1.2923  -20.5134  -42.9566 C.2       9 UNK         0.5000 
     26 O          -2.3949  -20.9998  -43.2107 O.2       9 UNK        -0.5000 
     27 CA         -1.2246  -19.1129  -42.3092 C.3       9 UNK         0.1400 
     28 CB         -2.3188  -18.9028  -41.2422 C.3       9 UNK        -0.1800 
     29 N           0.0924  -18.7317  -41.7919 N.am      9 UNK        -0.5000 
     30 C           0.7718  -19.2624  -40.7651 C.2       8 UNK         0.5000 
     31 O           0.3700  -20.2110  -40.0894 O.2       8 UNK        -0.5000 
     32 CA          2.1446  -18.6158  -40.4724 C.3       8 UNK         0.1400 
     33 CB          3.0155  -19.4469  -39.5075 C.3       8 UNK        -0.1800 
     34 N           2.8871  -18.2920  -41.6965 N.am      8 UNK        -0.5000 
     35 C           3.2742  -19.1464  -42.6560 C.2       7 UNK         0.5000 
     36 O           3.0783  -20.3606  -42.6016 O.2       7 UNK        -0.5000 
     37 CA          3.9484  -18.5617  -43.9138 C.3       7 UNK         0.1400 
     38 CB          3.0869  -18.8533  -45.1511 C.3       7 UNK        -0.1800 
     39 N           4.1896  -17.1188  -43.8435 N.am      7 UNK        -0.5000 
     40 C           5.1990  -16.5384  -43.1814 C.2       6 UNK         0.5000 
     41 O           6.0640  -17.1651  -42.5689 O.2       6 UNK        -0.5000 
     42 CA          5.2299  -14.9972  -43.1773 C.3       6 UNK         0.1400 
     43 CB          5.9173  -14.4658  -44.4441 C.3       6 UNK        -0.1800 
     44 N           3.9009  -14.3924  -43.0564 N.am      6 UNK        -0.5000 
     45 C           3.0946  -14.5207  -41.9924 C.2       5 UNK         0.5000 
     46 O           3.3922  -15.1537  -40.9791 O.2       5 UNK        -0.5000 
     47 CA          1.6951  -13.8873  -42.1041 C.3       5 UNK         0.1400 
     48 CB          1.7481  -12.3689  -41.8773 C.3       5 UNK        -0.1800 
     49 N           1.0602  -14.1734  -43.3904 N.am      5 UNK        -0.5000 
     50 C           0.7334  -15.4033  -43.8115 C.2       4 UNK         0.5000 
     51 O           0.8802  -16.4231  -43.1395 O.2       4 UNK        -0.5000 
     52 CA          0.1899  -15.5203  -45.2410 C.3       4 UNK         0.1400 
     53 CB         -1.3144  -15.2141  -45.2676 C.3       4 UNK        -0.1800 
     54 N           0.9136  -14.6516  -46.1713 N.am      4 UNK        -0.5000 
     55 C           2.1920  -14.8470  -46.5312 C.2       3 UNK         0.5000 
     56 O           2.8712  -15.7958  -46.1435 O.2       3 UNK        -0.5000 
     57 CA          2.8427  -13.7784  -47.4274 C.3       3 UNK         0.1400 
     58 CB          2.5741  -14.0601  -48.9128 C.3       3 UNK        -0.1800 
     59 N           2.3986  -12.4259  -47.0936 N.am      3 UNK        -0.5000 
     60 C           2.6788  -11.8062  -45.9381 C.2       2 UNK         0.5000 
     61 O           3.3773  -12.2983  -45.0520 O.2       2 UNK        -0.5000 
     62 CA          2.0322  -10.4266  -45.7169 C.3       2 UNK         0.1400 
     63 CB          2.9509   -9.3107  -46.2353 C.3       2 UNK        -0.1800 
     64 N           0.7145  -10.3021  -46.3458 N.am      2 UNK        -0.5000 
     65 C          -0.3628  -11.0183  -45.9976 C.2       1 UNK         0.5000 
     66 O          -0.3585  -11.8604  -45.0964 O.2       1 UNK        -0.5000 
     67 C          -2.3369  -20.7537  -47.4346 C.2       11 UNK         0.5000 
     68 O          -3.1047  -21.0900  -48.3360 O.2       11 UNK        -0.5000 
     69 N          -2.7101  -20.0023  -46.3874 N.am      12 UNK        -0.5000 
     70 CA         -4.0499  -19.4429  -46.1822 C.3       12 UNK         0.1400 
     71 CB         -3.9956  -18.3886  -45.0678 C.3       12 UNK        -0.1800 
     72 C          -5.1286  -20.5043  -45.8862 C.2       12 UNK         0.5000 
     73 O          -6.3143  -20.2219  -46.0604 O.2       12 UNK        -0.5000 
     74 N          -4.7060  -21.7155  -45.4938 N.am      13 UNK        -0.5000 
     75 CA         -5.5492  -22.9099  -45.3897 C.3       13 UNK         0.1400 
     76 CB         -4.7633  -24.0081  -44.6580 C.3       13 UNK        -0.1800 
     77 C          -6.0477  -23.4260  -46.7585 C.2       13 UNK         0.5000 
     78 O          -6.9890  -24.2199  -46.7981 O.2       13 UNK        -0.5000 
     79 N          -5.4133  -22.9657  -47.8474 N.am      14 UNK        -0.5000 
     80 CA         -5.6959  -23.2022  -49.2624 C.3       14 UNK         0.1400 
     81 CB         -7.1105  -22.7395  -49.6567 C.3       14 UNK        -0.1800 
     82 C          -5.4145  -24.6340  -49.7348 C.2       14 UNK         0.5000 
     83 O          -4.6447  -24.7979  -50.6804 O.2       14 UNK        -0.5000 
     84 N          -6.0362  -25.6298  -49.0888 N.am      15 UNK        -0.5000 
     85 CA         -5.9498  -27.0675  -49.3766 C.3       15 UNK         0.1400 
     86 CB         -4.5584  -27.6053  -48.9847 C.3       15 UNK        -0.1800 
     87 C          -6.3213  -27.3900  -50.8399 C.2       15 UNK         0.5000 
     88 O          -5.5179  -27.9676  -51.5724 O.2       15 UNK        -0.5000 
     89 N          -7.5118  -26.9329  -51.2596 N.am      16 UNK        -0.5000 
     90 CA         -8.0246  -26.9724  -52.6396 C.3       16 UNK         0.1400 
     91 CB         -8.2841  -28.4240  -53.0949 C.3       16 UNK        -0.1800 
     92 C          -7.1340  -26.1778  -53.6235 C.2       16 UNK         0.5000 
     93 O          -6.9510  -26.5818  -54.7723 O.2       16 UNK        -0.5000 
     94 N          -6.5800  -25.0678  -53.1157 N.am      17 UNK        -0.5000 
     95 CA         -5.6285  -24.1355  -53.7291 C.3       17 UNK         0.1400 
     96 CB         -6.1809  -23.5339  -55.0364 C.3       17 UNK        -0.1800 
     97 C          -4.1964  -24.6856  -53.9049 C.2       17 UNK         0.5000 
     98 O          -3.3359  -23.9446  -54.3831 O.2       17 UNK        -0.5000 
     99 N          -3.9326  -25.9338  -53.4905 N.am      18 UNK        -0.5000 
    100 CA        -2.6240  -26.5801  -53.6072 C.3       18 UNK         0.1400 
    101 CB        -2.7732  -28.0934  -53.3936 C.3       18 UNK        -0.1800 
    102 C         -1.5694  -26.0028  -52.6456 C.2       18 UNK         0.5000 
    103 O         -0.3937  -25.9531  -53.0092 O.2       18 UNK        -0.5000 
    104 N         -1.9959  -25.5683  -51.4508 N.am      19 UNK        -0.5000 
    105 CA        -1.1318  -24.8970  -50.4774 C.3       19 UNK         0.1400 
    106 CB        -1.6528  -25.1326  -49.0505 C.3       19 UNK        -0.1800 
    107 C         -1.0178  -23.3925  -50.7702 C.2       19 UNK         0.5000 
    108 O          0.0192  -22.8015  -50.4703 O.2       19 UNK        -0.5000 
    109 N         -2.0742  -22.8023  -51.3491 N.am      20 UNK        -0.5000 
    110 CA        -2.1036  -21.4007  -51.7659 C.3       20 UNK         0.1400 
    111 CB        -3.5416  -20.9741  -52.1007 C.3       20 UNK        -0.1800 
    112 C         -1.1697  -21.1313  -52.9562 C.2       20 UNK         0.5000 
    113 O         -0.3674  -20.2008  -52.8994 O.2       20 UNK        -0.5000 
    114 N         -1.3070  -21.9511  -54.0106 N.am      21 UNK        -0.5000 
    115 CA        -0.6676  -21.8053  -55.3237 C.3       21 UNK         0.1400 
    116 CB         0.8604  -21.9940  -55.2243 C.3       21 UNK        -0.1800 
    117 C         -1.0784  -20.4975  -56.0396 C.2       21 UNK         0.5000 
    118 O         -0.2916  -19.9245  -56.7956 O.2       21 UNK        -0.5000 
    119 N         -2.3141  -20.0552  -55.7870 N.am      22 UNK        -0.5000 
    120 CA        -2.9351  -18.8382  -56.3145 C.3       22 UNK         0.1400 
    121 C         -4.4837  -18.9330  -56.2402 C.2       22 UNK         0.5000 
    122 N         -5.1992  -18.0585  -56.9347 N.am      22 UNK        -0.7600 
    123 O         -5.0474  -19.7896  -55.5607 O.2       22 UNK        -0.5000 
    124 C124       -2.3755  -17.5395  -55.6658 C.3       23 UNK        -0.0398 
    125 S125       -2.5558  -17.4501  -53.8458 S.3       23 UNK        -0.2404 
    126 C126       -0.9305  -16.7782  -53.3757 C.3       23 UNK        -0.0205 
    127 H127       -4.1836   -7.4863  -45.0196 H         1 UNK         0.0600 
    128 H128       -4.3486   -9.1030  -44.3291 H         1 UNK         0.0600 
    129 H129       -3.1766   -7.9699  -43.6507 H         1 UNK         0.0600 
    130 H130       -3.3621  -10.6758  -45.5568 H         1 UNK         0.3000 
    131 H131       -1.4260  -10.0776  -47.6217 H         1 UNK         0.0600 
    132 H132       -3.1988  -11.8076  -47.9041 H         1 UNK         0.0800 
    133 H133       -2.4927  -12.7705  -46.6350 H         1 UNK         0.0800 
    134 H134       -3.0092  -13.8268  -49.8519 H         1 UNK         0.0800 
    135 H135       -2.7408  -14.6445  -48.3319 H         1 UNK         0.0800 
    136 H136       -2.2202  -14.9259  -51.8468 H         1 UNK         0.1150 
    137 H137        0.6493  -18.1029  -51.5845 H         1 UNK         0.1150 
    138 H138       -0.4347  -15.9048  -48.0791 H         1 UNK         0.1150 
    139 H139        1.7834  -18.5754  -49.5322 H         1 UNK         0.0800 
    140 H140        1.9591  -17.1747  -48.5101 H         1 UNK         0.0800 
    141 H141       -0.4218  -20.1341  -49.2849 H         1 UNK         0.0800 
    142 H142        0.9631  -20.8613  -48.5306 H         1 UNK         0.0800 
    143 H143       -0.8971  -22.2244  -47.9453 H         1 UNK         0.0600 
    144 H144        0.2764  -20.7264  -45.7606 H         1 UNK         0.3000 
    145 H145       -0.6286  -23.1480  -43.2777 H         1 UNK         0.0600 
    146 H146        1.8112  -22.9763  -42.8845 H         1 UNK         0.0600 
    147 H147        1.4966  -23.9189  -44.3336 H         1 UNK         0.0600 
    148 H148        2.0481  -22.2538  -44.4740 H         1 UNK         0.0600 
    149 H149        0.7339  -20.6877  -43.0001 H         1 UNK         0.3000 
    150 H150       -1.4262  -18.4100  -43.1186 H         1 UNK         0.0600 
    151 H151       -3.3150  -19.0292  -41.6670 H         1 UNK         0.0600 
    152 H152       -2.2732  -17.8971  -40.8243 H         1 UNK         0.0600 
    153 H153       -2.2256  -19.6132  -40.4205 H         1 UNK         0.0600 
    154 H154        0.5194  -17.9397  -42.2730 H         1 UNK         0.3000 
    155 H155        1.9327  -17.6625  -39.9863 H         1 UNK         0.0600 
    156 H156        2.5175  -19.5769  -38.5460 H         1 UNK         0.0600 
    157 H157        3.9683  -18.9539  -39.3145 H         1 UNK         0.0600 
    158 H158        3.2259  -20.4408  -39.9032 H         1 UNK         0.0600 
    159 H159        3.0614  -17.3070  -41.8494 H         1 UNK         0.3000 
    160 H160        4.9054  -19.0723  -44.0373 H         1 UNK         0.0600 
    161 H161        2.1105  -18.3750  -45.0703 H         1 UNK         0.0600 
    162 H162        2.9213  -19.9234  -45.2799 H         1 UNK         0.0600 
    163 H163        3.5634  -18.4897  -46.0617 H         1 UNK         0.0600 
    164 H164        3.5570  -16.5335  -44.3799 H         1 UNK         0.3000 
    165 H165        5.8180  -14.6805  -42.3136 H         1 UNK         0.0600 
    166 H166        6.9227  -14.8763  -44.5452 H         1 UNK         0.0600 
    167 H167        5.3616  -14.7307  -45.3440 H         1 UNK         0.0600 
    168 H168        6.0100  -13.3800  -44.4164 H         1 UNK         0.0600 
    169 H169        3.5931  -13.8157  -43.8343 H         1 UNK         0.3000 
    170 H170        1.0696  -14.3233  -41.3222 H         1 UNK         0.0600 
    171 H171        2.1637  -12.1374  -40.8959 H         1 UNK         0.0600 
    172 H172        2.3676  -11.8676  -42.6204 H         1 UNK         0.0600 
    173 H173        0.7517  -11.9287  -41.9215 H         1 UNK         0.0600 
    174 H174        0.8764  -13.3869  -44.0010 H         1 UNK         0.3000 
    175 H175        0.3286  -16.5537  -45.5618 H         1 UNK         0.0600 
    176 H176       -1.8500  -15.8615  -44.5729 H         1 UNK         0.0600 
    177 H177       -1.5249  -14.1876  -44.9713 H         1 UNK         0.0600 
    178 H178       -1.7413  -15.3771  -46.2554 H         1 UNK         0.0600 
    179 H179        0.4350  -13.8229  -46.4933 H         1 UNK         0.3000 
    180 H180        3.9218  -13.8260  -47.2668 H         1 UNK         0.0600 
    181 H181        1.5108  -14.0274  -49.1477 H         1 UNK         0.0600 
    182 H182        3.0794  -13.3338  -49.5494 H         1 UNK         0.0600 
    183 H183        2.9417  -15.0470  -49.1954 H         1 UNK         0.0600 
    184 H184        1.8102  -11.9564  -47.7661 H         1 UNK         0.3000 
    185 H185        1.9044  -10.2917  -44.6408 H         1 UNK         0.0600 
    186 H186        2.5403   -8.3260  -46.0114 H         1 UNK         0.0600 
    187 H187        3.9343   -9.3657  -45.7661 H         1 UNK         0.0600 
    188 H188        3.0975   -9.3771  -47.3141 H         1 UNK         0.0600 
    189 H189        0.6250   -9.6052  -47.0715 H         1 UNK         0.3000 
    190 H190       -2.0241  -19.8034  -45.6763 H         1 UNK         0.3000 
    191 H191       -4.3406  -18.9396  -47.1067 H         1 UNK         0.0600 
    192 H192       -4.9583  -17.8876  -44.9594 H         1 UNK         0.0600 
    193 H193       -3.2549  -17.6215  -45.2889 H         1 UNK         0.0600 
    194 H194       -3.7509  -18.8325  -44.1040 H         1 UNK         0.0600 
    195 H195       -3.7178  -21.8436  -45.3230 H         1 UNK         0.3000 
    196 H196       -6.4272  -22.6565  -44.7923 H         1 UNK         0.0600 
    197 H197       -5.3863  -24.8871  -44.4884 H         1 UNK         0.0600 
    198 H198       -4.4141  -23.6635  -43.6842 H         1 UNK         0.0600 
    199 H199       -3.8937  -24.3295  -45.2321 H         1 UNK         0.0600 
    200 H200       -4.6321  -22.3376  -47.6936 H         1 UNK         0.3000 
    201 H201       -4.9912  -22.5651  -49.7943 H         1 UNK         0.0600 
    202 H202       -7.2696  -21.6958  -49.3853 H         1 UNK         0.0600 
    203 H203       -7.8880  -23.3319  -49.1740 H         1 UNK         0.0600 
    204 H204       -7.2604  -22.8200  -50.7340 H         1 UNK         0.0600 
    205 H205       -6.6170  -25.3637  -48.2976 H         1 UNK         0.3000 
    206 H206       -6.6894  -27.5620  -48.7454 H         1 UNK         0.0600 
    207 H207       -4.3111  -27.3509  -47.9541 H         1 UNK         0.0600 
    208 H208       -4.5233  -28.6919  -49.0707 H         1 UNK         0.0600 
    209 H209       -3.7748  -27.2040  -49.6270 H         1 UNK         0.0600 
    210 H210       -8.0999  -26.4601  -50.5871 H         1 UNK         0.3000 
    211 H211       -8.9870  -26.4588  -52.6236 H         1 UNK         0.0600 
    212 H212       -7.3577  -28.9876  -53.2093 H         1 UNK         0.0600 
    213 H213       -8.7978  -28.4450  -54.0567 H         1 UNK         0.0600 
    214 H214       -8.9136  -28.9545  -52.3806 H         1 UNK         0.0600 
    215 H215       -6.7714  -24.8835  -52.1424 H         1 UNK         0.3000 
    216 H216       -5.5403  -23.3179  -53.0136 H         1 UNK         0.0600 
    217 H217       -6.2258  -24.2716  -55.8377 H         1 UNK         0.0600 
    218 H218       -5.5498  -22.7156  -55.3856 H         1 UNK         0.0600 
    219 H219       -7.1825  -23.1288  -54.8933 H         1 UNK         0.0600 
    220 H220       -4.6672  -26.4726  -53.0490 H         1 UNK         0.3000 
    221 H221       -2.2646  -26.4207  -54.6261 H         1 UNK         0.0600 
    222 H222       -3.0478  -28.3297  -52.3653 H         1 UNK         0.0600 
    223 H223       -3.5337  -28.5151  -54.0512 H         1 UNK         0.0600 
    224 H224       -1.8358  -28.6089  -53.6054 H         1 UNK         0.0600 
    225 H225       -2.9901  -25.5909  -51.2404 H         1 UNK         0.3000 
    226 H226       -0.1282  -25.3239  -50.5341 H         1 UNK         0.0600 
    227 H227       -1.7371  -26.1964  -48.8304 H         1 UNK         0.0600 
    228 H228       -0.9696  -24.7070  -48.3145 H         1 UNK         0.0600 
    229 H229       -2.6266  -24.6730  -48.8869 H         1 UNK         0.0600 
    230 H230       -2.8878  -23.3660  -51.5485 H         1 UNK         0.3000 
    231 H231       -1.7681  -20.7862  -50.9310 H         1 UNK         0.0600 
    232 H232       -4.1888  -21.0414  -51.2286 H         1 UNK         0.0600 
    233 H233       -3.9732  -21.5781  -52.8977 H         1 UNK         0.0600 
    234 H234       -3.5691  -19.9359  -52.4326 H         1 UNK         0.0600 
    235 H235       -2.0043  -22.6908  -53.9620 H         1 UNK         0.3000 
    236 H236       -1.0579  -22.6186  -55.9370 H         1 UNK         0.0600 
    237 H237        1.1091  -22.9203  -54.7061 H         1 UNK         0.0600 
    238 H238        1.3120  -22.0455  -56.2155 H         1 UNK         0.0600 
    239 H239        1.3385  -21.1719  -54.6914 H         1 UNK         0.0600 
    240 H240       -2.9182  -20.5938  -55.1809 H         1 UNK         0.3000 
    241 H241       -2.6985  -18.8068  -57.3798 H         1 UNK         0.0600 
    242 H242       -6.2052  -18.1108  -56.8919 H         1 UNK         0.3800 
    243 H243       -4.7667  -17.3507  -57.5079 H         1 UNK         0.3800 
    244 H244       -2.8529  -16.6592  -56.0983 H         1 UNK         0.0800 
    245 H245       -1.3197  -17.4461  -55.9222 H         1 UNK         0.0800 
    246 H246       -0.1528  -17.4619  -53.7205 H         1 UNK         0.0800 
    247 H247       -0.7664  -15.8326  -53.8944 H         1 UNK         0.0800 
@<TRIPOS>BOND
     1    1    2 1    
     2    1  127 1    
     3    1  128 1    
     4    1  129 1    
     5    2    3 2    
     6    2    4 am   BACKBONE|DICT|INTERRES
     7    4    5 1    
     8    4  130 1    
     9    5    6 1    
    10    5   65 1    
    11    5  131 1    
    12    6    7 1    
    13    6  132 1    
    14    6  133 1    
    15    7    8 1    
    16    8    9 1    
    17    8  134 1    
    18    8  135 1    
    19    9   10 ar   
    20    9   14 ar   
    21   10   11 ar   
    22   10  136 1    
    23   11   12 ar   
    24   11  126 1    
    25   12   13 ar   
    26   12  137 1    
    27   13   14 ar   
    28   13   15 1    
    29   14  138 1    
    30   15   16 1    
    31   15  139 1    
    32   15  140 1    
    33   16   17 1    
    34   17   18 1    
    35   17  141 1    
    36   17  142 1    
    37   18   19 1    
    38   18   67 1    
    39   18  143 1    
    40   19   20 am   BACKBONE|DICT|INTERRES
    41   19  144 1    
    42   20   21 2    
    43   20   22 1    
    44   22   23 1    
    45   22   24 1    
    46   22  145 1    
    47   23  146 1    
    48   23  147 1    
    49   23  148 1    
    50   24   25 am   BACKBONE|DICT|INTERRES
    51   24  149 1    
    52   25   26 2    
    53   25   27 1    
    54   27   28 1    
    55   27   29 1    
    56   27  150 1    
    57   28  151 1    
    58   28  152 1    
    59   28  153 1    
    60   29   30 am   BACKBONE|DICT|INTERRES
    61   29  154 1    
    62   30   31 2    
    63   30   32 1    
    64   32   33 1    
    65   32   34 1    
    66   32  155 1    
    67   33  156 1    
    68   33  157 1    
    69   33  158 1    
    70   34   35 am   BACKBONE|DICT|INTERRES
    71   34  159 1    
    72   35   36 2    
    73   35   37 1    
    74   37   38 1    
    75   37   39 1    
    76   37  160 1    
    77   38  161 1    
    78   38  162 1    
    79   38  163 1    
    80   39   40 am   BACKBONE|DICT|INTERRES
    81   39  164 1    
    82   40   41 2    
    83   40   42 1    
    84   42   43 1    
    85   42   44 1    
    86   42  165 1    
    87   43  166 1    
    88   43  167 1    
    89   43  168 1    
    90   44   45 am   BACKBONE|DICT|INTERRES
    91   44  169 1    
    92   45   46 2    
    93   45   47 1    
    94   47   48 1    
    95   47   49 1    
    96   47  170 1    
    97   48  171 1    
    98   48  172 1    
    99   48  173 1    
   100   49   50 am   BACKBONE|DICT|INTERRES
   101   49  174 1    
   102   50   51 2    
   103   50   52 1    
   104   52   53 1    
   105   52   54 1    
   106   52  175 1    
   107   53  176 1    
   108   53  177 1    
   109   53  178 1    
   110   54   55 am   BACKBONE|DICT|INTERRES
   111   54  179 1    
   112   55   56 2    
   113   55   57 1    
   114   57   58 1    
   115   57   59 1    
   116   57  180 1    
   117   58  181 1    
   118   58  182 1    
   119   58  183 1    
   120   59   60 am   BACKBONE|DICT|INTERRES
   121   59  184 1    
   122   60   61 2    
   123   60   62 1    
   124   62   63 1    
   125   62   64 1    
   126   62  185 1    
   127   63  186 1    
   128   63  187 1    
   129   63  188 1    
   130   64   65 am   BACKBONE|DICT|INTERRES
   131   64  189 1    
   132   65   66 2    
   133   67   68 2    
   134   67   69 am   BACKBONE|DICT|INTERRES
   135   69   70 1    
   136   69  190 1    
   137   70   71 1    
   138   70   72 1    
   139   70  191 1    
   140   71  192 1    
   141   71  193 1    
   142   71  194 1    
   143   72   73 2    
   144   72   74 am   BACKBONE|DICT|INTERRES
   145   74   75 1    
   146   74  195 1    
   147   75   76 1    
   148   75   77 1    
   149   75  196 1    
   150   76  197 1    
   151   76  198 1    
   152   76  199 1    
   153   77   78 2    
   154   77   79 am   BACKBONE|DICT|INTERRES
   155   79   80 1    
   156   79  200 1    
   157   80   81 1    
   158   80   82 1    
   159   80  201 1    
   160   81  202 1    
   161   81  203 1    
   162   81  204 1    
   163   82   83 2    
   164   82   84 am   BACKBONE|DICT|INTERRES
   165   84   85 1    
   166   84  205 1    
   167   85   86 1    
   168   85   87 1    
   169   85  206 1    
   170   86  207 1    
   171   86  208 1    
   172   86  209 1    
   173   87   88 2    
   174   87   89 am   BACKBONE|DICT|INTERRES
   175   89   90 1    
   176   89  210 1    
   177   90   91 1    
   178   90   92 1    
   179   90  211 1    
   180   91  212 1    
   181   91  213 1    
   182   91  214 1    
   183   92   93 2    
   184   92   94 am   BACKBONE|DICT|INTERRES
   185   94   95 1    
   186   94  215 1    
   187   95   96 1    
   188   95   97 1    
   189   95  216 1    
   190   96  217 1    
   191   96  218 1    
   192   96  219 1    
   193   97   98 2    
   194   97   99 am   BACKBONE|DICT|INTERRES
   195   99  100 1    
   196   99  220 1    
   197  100  101 1    
   198  100  102 1    
   199  100  221 1    
   200  101  222 1    
   201  101  223 1    
   202  101  224 1    
   203  102  103 2    
   204  102  104 am   BACKBONE|DICT|INTERRES
   205  104  105 1    
   206  104  225 1    
   207  105  106 1    
   208  105  107 1    
   209  105  226 1    
   210  106  227 1    
   211  106  228 1    
   212  106  229 1    
   213  107  108 2    
   214  107  109 am   BACKBONE|DICT|INTERRES
   215  109  110 1    
   216  109  230 1    
   217  110  111 1    
   218  110  112 1    
   219  110  231 1    
   220  111  232 1    
   221  111  233 1    
   222  111  234 1    
   223  112  113 2    
   224  112  114 am   BACKBONE|DICT|INTERRES
   225  114  115 1    
   226  114  235 1    
   227  115  116 1    
   228  115  117 1    
   229  115  236 1    
   230  116  237 1    
   231  116  238 1    
   232  116  239 1    
   233  117  118 2    
   234  117  119 am   BACKBONE|DICT|INTERRES
   235  119  120 1    
   236  119  240 1    
   237  120  121 1    
   238  120  124 1    
   239  120  241 1    
   240  121  122 am   BACKBONE|DICT|INTERRES
   241  121  123 2    
   242  122  242 1    
   243  122  243 1    
   244  124  125 1    
   245  124  244 1    
   246  124  245 1    
   247  125  126 1    
   248  126  246 1    
   249  126  247 1    
@<TRIPOS>SUBSTRUCTURE
     1 UNK         1 GROUP             0       ****    0 ROOT    
