@<TRIPOS>MOLECULE
3R540
247   249    1
SMALL
USER_CHARGES


@<TRIPOS>ATOM
      1 CA          7.4964  -16.0260  -43.3238 C.3       0 UNK        -0.1800 
      2 C           6.4549  -14.9196  -43.4115 C.2       0 UNK         0.5000 
      3 O           6.6554  -13.8423  -42.8509 O.2       0 UNK        -0.5000 
      4 N           5.3454  -15.1797  -44.1145 N.am      1 UNK        -0.5000 
      5 CA          4.2368  -14.2386  -44.3199 C.3       1 UNK         0.1400 
      6 C6          2.9203  -14.9674  -44.6889 C.3       23 UNK        -0.0398 
      7 S7          3.0351  -16.1211  -46.1024 S.3       23 UNK        -0.2404 
      8 C8          2.5741  -15.0361  -47.4956 C.3       23 UNK        -0.0205 
      9 C9          2.0876  -15.7663  -48.7430 C.ar      23 UNK        -0.0193 
     10 C10         1.1404  -15.1460  -49.5639 C.ar      23 UNK        -0.1150 
     11 C11         0.6765  -15.7779  -50.7198 C.ar      23 UNK        -0.0193 
     12 C12         1.1480  -17.0529  -51.0459 C.ar      23 UNK        -0.1150 
     13 C13         2.1006  -17.6840  -50.2419 C.ar      23 UNK        -0.0193 
     14 C14         2.5792  -17.0263  -49.1042 C.ar      23 UNK        -0.1150 
     15 C15         2.6501  -19.0512  -50.6283 C.3       23 UNK        -0.0205 
     16 S16         2.5041  -20.2773  -49.2882 S.3       23 UNK        -0.2404 
     17 C17         0.7570  -20.7920  -49.4116 C.3       23 UNK        -0.0398 
     18 CA          0.5489  -22.1884  -48.7796 C.3       11 UNK         0.1400 
     19 N           0.9054  -22.2172  -47.3579 N.am      11 UNK        -0.5000 
     20 C           1.1152  -23.3300  -46.6431 C.2       10 UNK         0.5000 
     21 O           1.0237  -24.4681  -47.1010 O.2       10 UNK        -0.5000 
     22 CA          1.4459  -23.1333  -45.1533 C.3       10 UNK         0.1400 
     23 CB          2.9277  -22.7744  -44.9675 C.3       10 UNK        -0.1800 
     24 N           0.6129  -22.1030  -44.5326 N.am      10 UNK        -0.5000 
     25 C          -0.7100  -22.2158  -44.3507 C.2       9 UNK         0.5000 
     26 O          -1.3572  -23.2181  -44.6514 O.2       9 UNK        -0.5000 
     27 CA         -1.4380  -20.9889  -43.7745 C.3       9 UNK         0.1400 
     28 CB         -1.4012  -21.0076  -42.2395 C.3       9 UNK        -0.1800 
     29 N          -0.9016  -19.7141  -44.2535 N.am      9 UNK        -0.5000 
     30 C          -0.8932  -19.2975  -45.5262 C.2       8 UNK         0.5000 
     31 O          -1.2900  -19.9928  -46.4633 O.2       8 UNK        -0.5000 
     32 CA         -0.3467  -17.8760  -45.7842 C.3       8 UNK         0.1400 
     33 CB         -0.6395  -17.3860  -47.2106 C.3       8 UNK        -0.1800 
     34 N          -0.8574  -16.8805  -44.8356 N.am      8 UNK        -0.5000 
     35 C          -0.4226  -16.6954  -43.5805 C.2       7 UNK         0.5000 
     36 O           0.4261  -17.4177  -43.0559 O.2       7 UNK        -0.5000 
     37 CA         -1.0348  -15.5434  -42.7589 C.3       7 UNK         0.1400 
     38 CB          0.0528  -14.5788  -42.2567 C.3       7 UNK        -0.1800 
     39 N          -2.0142  -14.7745  -43.5254 N.am      7 UNK        -0.5000 
     40 C          -3.3423  -14.8230  -43.3555 C.2       6 UNK         0.5000 
     41 O          -3.8967  -15.5217  -42.5063 O.2       6 UNK        -0.5000 
     42 CA         -4.2081  -13.9465  -44.2866 C.3       6 UNK         0.1400 
     43 CB         -4.6488  -12.6674  -43.5582 C.3       6 UNK        -0.1800 
     44 N          -3.5473  -13.5695  -45.5384 N.am      6 UNK        -0.5000 
     45 C          -3.1823  -14.4264  -46.5017 C.2       5 UNK         0.5000 
     46 O          -3.3927  -15.6364  -46.4453 O.2       5 UNK        -0.5000 
     47 CA         -2.3975  -13.8391  -47.6924 C.3       5 UNK         0.1400 
     48 CB         -3.3658  -13.3884  -48.7957 C.3       5 UNK        -0.1800 
     49 N          -1.5199  -12.7154  -47.3408 N.am      5 UNK        -0.5000 
     50 C          -0.5667  -12.7283  -46.3994 C.2       4 UNK         0.5000 
     51 O          -0.3258  -13.7019  -45.6851 O.2       4 UNK        -0.5000 
     52 CA          0.2504  -11.4358  -46.2270 C.3       4 UNK         0.1400 
     53 CB          0.6073  -11.1855  -44.7515 C.3       4 UNK        -0.1800 
     54 N           1.4815  -11.4788  -47.0150 N.am      4 UNK        -0.5000 
     55 C           1.5368  -11.3257  -48.3482 C.2       3 UNK         0.5000 
     56 O           0.5356  -11.1401  -49.0410 O.2       3 UNK        -0.5000 
     57 CA          2.9153  -11.3721  -49.0382 C.3       3 UNK         0.1400 
     58 CB          3.1906  -10.0804  -49.8302 C.3       3 UNK        -0.1800 
     59 N           4.0081  -11.6089  -48.0967 N.am      3 UNK        -0.5000 
     60 C           5.1629  -12.2207  -48.3733 C.2       2 UNK         0.5000 
     61 O           5.4655  -12.6446  -49.4889 O.2       2 UNK        -0.5000 
     62 CA          6.1364  -12.4178  -47.1948 C.3       2 UNK         0.1400 
     63 CB          6.6222  -11.0722  -46.6201 C.3       2 UNK        -0.1800 
     64 N           5.6142  -13.2967  -46.1394 N.am      2 UNK        -0.5000 
     65 C           4.5613  -13.1118  -45.3269 C.2       1 UNK         0.5000 
     66 O           3.8382  -12.1137  -45.3588 O.2       1 UNK        -0.5000 
     67 C          -0.8815  -22.7142  -49.0008 C.2       11 UNK         0.5000 
     68 O          -1.0986  -23.4962  -49.9264 O.2       11 UNK        -0.5000 
     69 N          -1.8073  -22.3408  -48.1040 N.am      12 UNK        -0.5000 
     70 CA         -3.1647  -22.8779  -48.0285 C.3       12 UNK         0.1400 
     71 CB         -3.9338  -22.1804  -46.8967 C.3       12 UNK        -0.1800 
     72 C          -3.1793  -24.4020  -47.8231 C.2       12 UNK         0.5000 
     73 O          -3.8424  -25.1069  -48.5842 O.2       12 UNK        -0.5000 
     74 N          -2.4289  -24.8810  -46.8195 N.am      13 UNK        -0.5000 
     75 CA         -2.2921  -26.2965  -46.4734 C.3       13 UNK         0.1400 
     76 CB         -1.4913  -26.4381  -45.1707 C.3       13 UNK        -0.1800 
     77 C          -1.6587  -27.1368  -47.5952 C.2       13 UNK         0.5000 
     78 O          -2.1731  -28.2124  -47.9034 O.2       13 UNK        -0.5000 
     79 N          -0.5919  -26.6162  -48.2195 N.am      14 UNK        -0.5000 
     80 CA          0.0983  -27.2358  -49.3565 C.3       14 UNK         0.1400 
     81 CB          1.3495  -26.4149  -49.7023 C.3       14 UNK        -0.1800 
     82 C          -0.7955  -27.4014  -50.6013 C.2       14 UNK         0.5000 
     83 O          -0.6132  -28.3533  -51.3606 O.2       14 UNK        -0.5000 
     84 N          -1.7667  -26.4954  -50.7614 N.am      15 UNK        -0.5000 
     85 CA         -2.7890  -26.5138  -51.8052 C.3       15 UNK         0.1400 
     86 CB         -3.0959  -25.0613  -52.1903 C.3       15 UNK        -0.1800 
     87 C          -4.0644  -27.2830  -51.3906 C.2       15 UNK         0.5000 
     88 O          -5.0861  -27.1542  -52.0658 O.2       15 UNK        -0.5000 
     89 N          -3.9867  -28.0745  -50.3091 N.am      16 UNK        -0.5000 
     90 CA         -5.0372  -28.9299  -49.7479 C.3       16 UNK         0.1400 
     91 CB         -5.4738  -30.0181  -50.7525 C.3       16 UNK        -0.1800 
     92 C          -6.2130  -28.1237  -49.1611 C.2       16 UNK         0.5000 
     93 O          -7.3749  -28.4070  -49.4589 O.2       16 UNK        -0.5000 
     94 N          -5.8686  -27.1421  -48.3165 N.am      17 UNK        -0.5000 
     95 CA         -6.7556  -26.2276  -47.5902 C.3       17 UNK         0.1400 
     96 CB         -7.6957  -26.9904  -46.6325 C.3       17 UNK        -0.1800 
     97 C          -7.4877  -25.2521  -48.5316 C.2       17 UNK         0.5000 
     98 O          -8.7002  -25.0598  -48.4166 O.2       17 UNK        -0.5000 
     99 N          -6.7230  -24.6476  -49.4490 N.am      18 UNK        -0.5000 
    100 CA        -7.1850  -23.5834  -50.3400 C.3       18 UNK         0.1400 
    101 CB        -6.1942  -23.4474  -51.5048 C.3       18 UNK        -0.1800 
    102 C         -7.3105  -22.2387  -49.6001 C.2       18 UNK         0.5000 
    103 O         -6.7562  -22.0704  -48.5116 O.2       18 UNK        -0.5000 
    104 N         -7.9940  -21.2768  -50.2303 N.am      19 UNK        -0.5000 
    105 CA        -8.0949  -19.8910  -49.7724 C.3       19 UNK         0.1400 
    106 CB        -9.2963  -19.2249  -50.4658 C.3       19 UNK        -0.1800 
    107 C         -6.7739  -19.1418  -50.0396 C.2       19 UNK         0.5000 
    108 O         -6.6476  -18.4609  -51.0582 O.2       19 UNK        -0.5000 
    109 N         -5.7847  -19.3550  -49.1601 N.am      20 UNK        -0.5000 
    110 CA        -4.4157  -18.8099  -49.1522 C.3       20 UNK         0.1400 
    111 CB        -4.4371  -17.2702  -49.1371 C.3       20 UNK        -0.1800 
    112 C         -3.4904  -19.3393  -50.2701 C.2       20 UNK         0.5000 
    113 O         -2.2732  -19.3128  -50.0979 O.2       20 UNK        -0.5000 
    114 N         -4.0758  -19.8100  -51.3814 N.am      21 UNK        -0.5000 
    115 CA        -3.4335  -20.3013  -52.6077 C.3       21 UNK         0.1400 
    116 CB        -2.5025  -21.4935  -52.3119 C.3       21 UNK        -0.1800 
    117 C         -2.7307  -19.1923  -53.4216 C.2       21 UNK         0.5000 
    118 O         -1.8960  -19.4947  -54.2765 O.2       21 UNK        -0.5000 
    119 N         -3.0839  -17.9313  -53.1505 N.am      22 UNK        -0.5000 
    120 CA        -2.5489  -16.7365  -53.8140 C.3       22 UNK         0.1400 
    121 C         -3.1322  -16.5391  -55.2396 C.2       22 UNK         0.5000 
    122 N         -2.3568  -15.9844  -56.1614 N.am      22 UNK        -0.7600 
    123 O         -4.2917  -16.8455  -55.5098 O.2       22 UNK        -0.5000 
    124 C124       -2.7628  -15.4669  -52.9506 C.3       23 UNK        -0.0398 
    125 S125       -2.0120  -15.6266  -51.2954 S.3       23 UNK        -0.2404 
    126 C126       -0.3151  -15.0784  -51.6332 C.3       23 UNK        -0.0205 
    127 H127        7.1859  -16.9193  -43.8663 H         1 UNK         0.0600 
    128 H128        7.6639  -16.3018  -42.2826 H         1 UNK         0.0600 
    129 H129        8.4427  -15.6848  -43.7437 H         1 UNK         0.0600 
    130 H130        5.2294  -16.0834  -44.5526 H         1 UNK         0.3000 
    131 H131        4.0574  -13.7354  -43.3672 H         1 UNK         0.0600 
    132 H132        2.1149  -14.2537  -44.8612 H         1 UNK         0.0800 
    133 H133        2.5961  -15.5566  -43.8303 H         1 UNK         0.0800 
    134 H134        3.4360  -14.4332  -47.7723 H         1 UNK         0.0800 
    135 H135        1.7994  -14.3488  -47.1603 H         1 UNK         0.0800 
    136 H136        0.7627  -14.1663  -49.3066 H         1 UNK         0.1150 
    137 H137        0.7805  -17.5453  -51.9354 H         1 UNK         0.1150 
    138 H138        3.3307  -17.5090  -48.4963 H         1 UNK         0.1150 
    139 H139        2.1646  -19.4333  -51.5276 H         1 UNK         0.0800 
    140 H140        3.7057  -18.9365  -50.8775 H         1 UNK         0.0800 
    141 H141        0.4663  -20.8039  -50.4632 H         1 UNK         0.0800 
    142 H142        0.1271  -20.0460  -48.9265 H         1 UNK         0.0800 
    143 H143        1.2173  -22.8820  -49.2950 H         1 UNK         0.0600 
    144 H144        0.9666  -21.3226  -46.8962 H         1 UNK         0.3000 
    145 H145        1.2566  -24.0793  -44.6414 H         1 UNK         0.0600 
    146 H146        3.1870  -22.7051  -43.9109 H         1 UNK         0.0600 
    147 H147        3.5711  -23.5362  -45.4098 H         1 UNK         0.0600 
    148 H148        3.1759  -21.8220  -45.4378 H         1 UNK         0.0600 
    149 H149        1.0671  -21.2447  -44.2576 H         1 UNK         0.3000 
    150 H150       -2.4815  -21.0458  -44.0895 H         1 UNK         0.0600 
    151 H151       -1.8135  -21.9395  -41.8501 H         1 UNK         0.0600 
    152 H152       -1.9915  -20.1921  -41.8213 H         1 UNK         0.0600 
    153 H153       -0.3830  -20.9138  -41.8597 H         1 UNK         0.0600 
    154 H154       -0.5151  -19.0842  -43.5580 H         1 UNK         0.3000 
    155 H155        0.7370  -17.9316  -45.6721 H         1 UNK         0.0600 
    156 H156       -1.7009  -17.4461  -47.4487 H         1 UNK         0.0600 
    157 H157       -0.3227  -16.3524  -47.3404 H         1 UNK         0.0600 
    158 H158       -0.1045  -17.9805  -47.9501 H         1 UNK         0.0600 
    159 H159       -1.5976  -16.2835  -45.1807 H         1 UNK         0.3000 
    160 H160       -1.5050  -15.9991  -41.8855 H         1 UNK         0.0600 
    161 H161        0.8224  -15.1058  -41.6914 H         1 UNK         0.0600 
    162 H162       -0.3713  -13.8220  -41.5968 H         1 UNK         0.0600 
    163 H163        0.5428  -14.0613  -43.0804 H         1 UNK         0.0600 
    164 H164       -1.6291  -14.2101  -44.2767 H         1 UNK         0.3000 
    165 H165       -5.1005  -14.5228  -44.5391 H         1 UNK         0.0600 
    166 H166       -5.3279  -12.0764  -44.1730 H         1 UNK         0.0600 
    167 H167       -5.1753  -12.9055  -42.6329 H         1 UNK         0.0600 
    168 H168       -3.7959  -12.0391  -43.2981 H         1 UNK         0.0600 
    169 H169       -3.3262  -12.5922  -45.6587 H         1 UNK         0.3000 
    170 H170       -1.7674  -14.6328  -48.0973 H         1 UNK         0.0600 
    171 H171       -4.0110  -14.2103  -49.1090 H         1 UNK         0.0600 
    172 H172       -4.0091  -12.5740  -48.4605 H         1 UNK         0.0600 
    173 H173       -2.8255  -13.0482  -49.6794 H         1 UNK         0.0600 
    174 H174       -1.6044  -11.8889  -47.9166 H         1 UNK         0.3000 
    175 H175       -0.3573  -10.5938  -46.5656 H         1 UNK         0.0600 
    176 H176        1.2573  -11.9638  -44.3512 H         1 UNK         0.0600 
    177 H177        1.1188  -10.2310  -44.6276 H         1 UNK         0.0600 
    178 H178       -0.2896  -11.1576  -44.1314 H         1 UNK         0.0600 
    179 H179        2.3242  -11.6754  -46.4872 H         1 UNK         0.3000 
    180 H180        2.8707  -12.2074  -49.7404 H         1 UNK         0.0600 
    181 H181        2.4005   -9.8857  -50.5565 H         1 UNK         0.0600 
    182 H182        4.1266  -10.1475  -50.3849 H         1 UNK         0.0600 
    183 H183        3.2534   -9.2143  -49.1706 H         1 UNK         0.0600 
    184 H184        3.8546  -11.3368  -47.1318 H         1 UNK         0.3000 
    185 H185        7.0126  -12.9287  -47.5973 H         1 UNK         0.0600 
    186 H186        5.8132  -10.4944  -46.1729 H         1 UNK         0.0600 
    187 H187        7.3824  -11.2262  -45.8542 H         1 UNK         0.0600 
    188 H188        7.0685  -10.4554  -47.4011 H         1 UNK         0.0600 
    189 H189        6.1098  -14.1707  -46.0347 H         1 UNK         0.3000 
    190 H190       -1.5542  -21.6457  -47.4066 H         1 UNK         0.3000 
    191 H191       -3.6671  -22.6604  -48.9734 H         1 UNK         0.0600 
    192 H192       -3.4254  -22.2780  -45.9397 H         1 UNK         0.0600 
    193 H193       -4.9278  -22.6103  -46.7730 H         1 UNK         0.0600 
    194 H194       -4.0585  -21.1184  -47.0965 H         1 UNK         0.0600 
    195 H195       -1.9389  -24.2247  -46.2179 H         1 UNK         0.3000 
    196 H196       -3.2953  -26.6890  -46.2951 H         1 UNK         0.0600 
    197 H197       -1.3782  -27.4864  -44.8916 H         1 UNK         0.0600 
    198 H198       -1.9932  -25.9347  -44.3443 H         1 UNK         0.0600 
    199 H199       -0.4919  -26.0119  -45.2638 H         1 UNK         0.0600 
    200 H200       -0.2011  -25.7418  -47.8780 H         1 UNK         0.3000 
    201 H201        0.4178  -28.2329  -49.0472 H         1 UNK         0.0600 
    202 H202        2.0397  -26.3745  -48.8596 H         1 UNK         0.0600 
    203 H203        1.0931  -25.3907  -49.9755 H         1 UNK         0.0600 
    204 H204        1.8885  -26.8552  -50.5421 H         1 UNK         0.0600 
    205 H205       -1.8274  -25.7335  -50.0965 H         1 UNK         0.3000 
    206 H206       -2.3941  -27.0151  -52.6909 H         1 UNK         0.0600 
    207 H207       -2.1989  -24.5542  -52.5460 H         1 UNK         0.0600 
    208 H208       -3.8389  -25.0011  -52.9860 H         1 UNK         0.0600 
    209 H209       -3.4710  -24.5076  -51.3310 H         1 UNK         0.0600 
    210 H210       -3.1160  -28.0783  -49.7905 H         1 UNK         0.3000 
    211 H211       -4.5792  -29.4449  -48.9021 H         1 UNK         0.0600 
    212 H212       -5.9982  -29.5975  -51.6107 H         1 UNK         0.0600 
    213 H213       -6.1476  -30.7337  -50.2802 H         1 UNK         0.0600 
    214 H214       -4.6158  -30.5781  -51.1242 H         1 UNK         0.0600 
    215 H215       -4.8837  -26.9171  -48.2442 H         1 UNK         0.3000 
    216 H216       -6.1051  -25.6092  -46.9700 H         1 UNK         0.0600 
    217 H217       -8.2464  -26.2967  -45.9963 H         1 UNK         0.0600 
    218 H218       -7.1346  -27.6557  -45.9763 H         1 UNK         0.0600 
    219 H219       -8.4307  -27.5895  -47.1702 H         1 UNK         0.0600 
    220 H220       -5.7274  -24.8368  -49.4353 H         1 UNK         0.3000 
    221 H221       -8.1636  -23.8582  -50.7392 H         1 UNK         0.0600 
    222 H222       -5.2301  -23.0715  -51.1629 H         1 UNK         0.0600 
    223 H223       -6.0348  -24.4049  -52.0006 H         1 UNK         0.0600 
    224 H224       -6.5637  -22.7519  -52.2590 H         1 UNK         0.0600 
    225 H225       -8.4002  -21.4763  -51.1331 H         1 UNK         0.3000 
    226 H226       -8.2823  -19.8791  -48.6963 H         1 UNK         0.0600 
    227 H227      -10.2280  -19.7286  -50.2078 H         1 UNK         0.0600 
    228 H228       -9.3949  -18.1831  -50.1582 H         1 UNK         0.0600 
    229 H229       -9.1985  -19.2388  -51.5521 H         1 UNK         0.0600 
    230 H230       -5.9740  -20.0395  -48.4365 H         1 UNK         0.3000 
    231 H231       -3.9683  -19.1297  -48.2109 H         1 UNK         0.0600 
    232 H232       -3.4348  -16.8736  -48.9769 H         1 UNK         0.0600 
    233 H233       -5.0657  -16.8905  -48.3320 H         1 UNK         0.0600 
    234 H234       -4.8010  -16.8525  -50.0758 H         1 UNK         0.0600 
    235 H235       -5.0820  -19.6994  -51.4321 H         1 UNK         0.3000 
    236 H236       -4.2449  -20.6693  -53.2369 H         1 UNK         0.0600 
    237 H237       -2.2389  -22.0212  -53.2288 H         1 UNK         0.0600 
    238 H238       -1.5720  -21.1750  -51.8424 H         1 UNK         0.0600 
    239 H239       -2.9797  -22.2097  -51.6456 H         1 UNK         0.0600 
    240 H240       -3.7851  -17.7720  -52.4433 H         1 UNK         0.3000 
    241 H241       -1.4726  -16.8851  -53.9223 H         1 UNK         0.0600 
    242 H242       -2.7278  -15.8373  -57.0876 H         1 UNK         0.3800 
    243 H243       -1.4036  -15.7195  -55.9659 H         1 UNK         0.3800 
    244 H244       -2.3493  -14.5847  -53.4428 H         1 UNK         0.0800 
    245 H245       -3.8284  -15.2702  -52.8208 H         1 UNK         0.0800 
    246 H246       -0.0496  -15.2858  -52.6706 H         1 UNK         0.0800 
    247 H247       -0.2567  -13.9956  -51.5116 H         1 UNK         0.0800 
@<TRIPOS>BOND
     1    1    2 1    
     2    1  127 1    
     3    1  128 1    
     4    1  129 1    
     5    2    3 2    
     6    2    4 am   BACKBONE|DICT|INTERRES
     7    4    5 1    
     8    4  130 1    
     9    5    6 1    
    10    5   65 1    
    11    5  131 1    
    12    6    7 1    
    13    6  132 1    
    14    6  133 1    
    15    7    8 1    
    16    8    9 1    
    17    8  134 1    
    18    8  135 1    
    19    9   10 ar   
    20    9   14 ar   
    21   10   11 ar   
    22   10  136 1    
    23   11   12 ar   
    24   11  126 1    
    25   12   13 ar   
    26   12  137 1    
    27   13   14 ar   
    28   13   15 1    
    29   14  138 1    
    30   15   16 1    
    31   15  139 1    
    32   15  140 1    
    33   16   17 1    
    34   17   18 1    
    35   17  141 1    
    36   17  142 1    
    37   18   19 1    
    38   18   67 1    
    39   18  143 1    
    40   19   20 am   BACKBONE|DICT|INTERRES
    41   19  144 1    
    42   20   21 2    
    43   20   22 1    
    44   22   23 1    
    45   22   24 1    
    46   22  145 1    
    47   23  146 1    
    48   23  147 1    
    49   23  148 1    
    50   24   25 am   BACKBONE|DICT|INTERRES
    51   24  149 1    
    52   25   26 2    
    53   25   27 1    
    54   27   28 1    
    55   27   29 1    
    56   27  150 1    
    57   28  151 1    
    58   28  152 1    
    59   28  153 1    
    60   29   30 am   BACKBONE|DICT|INTERRES
    61   29  154 1    
    62   30   31 2    
    63   30   32 1    
    64   32   33 1    
    65   32   34 1    
    66   32  155 1    
    67   33  156 1    
    68   33  157 1    
    69   33  158 1    
    70   34   35 am   BACKBONE|DICT|INTERRES
    71   34  159 1    
    72   35   36 2    
    73   35   37 1    
    74   37   38 1    
    75   37   39 1    
    76   37  160 1    
    77   38  161 1    
    78   38  162 1    
    79   38  163 1    
    80   39   40 am   BACKBONE|DICT|INTERRES
    81   39  164 1    
    82   40   41 2    
    83   40   42 1    
    84   42   43 1    
    85   42   44 1    
    86   42  165 1    
    87   43  166 1    
    88   43  167 1    
    89   43  168 1    
    90   44   45 am   BACKBONE|DICT|INTERRES
    91   44  169 1    
    92   45   46 2    
    93   45   47 1    
    94   47   48 1    
    95   47   49 1    
    96   47  170 1    
    97   48  171 1    
    98   48  172 1    
    99   48  173 1    
   100   49   50 am   BACKBONE|DICT|INTERRES
   101   49  174 1    
   102   50   51 2    
   103   50   52 1    
   104   52   53 1    
   105   52   54 1    
   106   52  175 1    
   107   53  176 1    
   108   53  177 1    
   109   53  178 1    
   110   54   55 am   BACKBONE|DICT|INTERRES
   111   54  179 1    
   112   55   56 2    
   113   55   57 1    
   114   57   58 1    
   115   57   59 1    
   116   57  180 1    
   117   58  181 1    
   118   58  182 1    
   119   58  183 1    
   120   59   60 am   BACKBONE|DICT|INTERRES
   121   59  184 1    
   122   60   61 2    
   123   60   62 1    
   124   62   63 1    
   125   62   64 1    
   126   62  185 1    
   127   63  186 1    
   128   63  187 1    
   129   63  188 1    
   130   64   65 am   BACKBONE|DICT|INTERRES
   131   64  189 1    
   132   65   66 2    
   133   67   68 2    
   134   67   69 am   BACKBONE|DICT|INTERRES
   135   69   70 1    
   136   69  190 1    
   137   70   71 1    
   138   70   72 1    
   139   70  191 1    
   140   71  192 1    
   141   71  193 1    
   142   71  194 1    
   143   72   73 2    
   144   72   74 am   BACKBONE|DICT|INTERRES
   145   74   75 1    
   146   74  195 1    
   147   75   76 1    
   148   75   77 1    
   149   75  196 1    
   150   76  197 1    
   151   76  198 1    
   152   76  199 1    
   153   77   78 2    
   154   77   79 am   BACKBONE|DICT|INTERRES
   155   79   80 1    
   156   79  200 1    
   157   80   81 1    
   158   80   82 1    
   159   80  201 1    
   160   81  202 1    
   161   81  203 1    
   162   81  204 1    
   163   82   83 2    
   164   82   84 am   BACKBONE|DICT|INTERRES
   165   84   85 1    
   166   84  205 1    
   167   85   86 1    
   168   85   87 1    
   169   85  206 1    
   170   86  207 1    
   171   86  208 1    
   172   86  209 1    
   173   87   88 2    
   174   87   89 am   BACKBONE|DICT|INTERRES
   175   89   90 1    
   176   89  210 1    
   177   90   91 1    
   178   90   92 1    
   179   90  211 1    
   180   91  212 1    
   181   91  213 1    
   182   91  214 1    
   183   92   93 2    
   184   92   94 am   BACKBONE|DICT|INTERRES
   185   94   95 1    
   186   94  215 1    
   187   95   96 1    
   188   95   97 1    
   189   95  216 1    
   190   96  217 1    
   191   96  218 1    
   192   96  219 1    
   193   97   98 2    
   194   97   99 am   BACKBONE|DICT|INTERRES
   195   99  100 1    
   196   99  220 1    
   197  100  101 1    
   198  100  102 1    
   199  100  221 1    
   200  101  222 1    
   201  101  223 1    
   202  101  224 1    
   203  102  103 2    
   204  102  104 am   BACKBONE|DICT|INTERRES
   205  104  105 1    
   206  104  225 1    
   207  105  106 1    
   208  105  107 1    
   209  105  226 1    
   210  106  227 1    
   211  106  228 1    
   212  106  229 1    
   213  107  108 2    
   214  107  109 am   BACKBONE|DICT|INTERRES
   215  109  110 1    
   216  109  230 1    
   217  110  111 1    
   218  110  112 1    
   219  110  231 1    
   220  111  232 1    
   221  111  233 1    
   222  111  234 1    
   223  112  113 2    
   224  112  114 am   BACKBONE|DICT|INTERRES
   225  114  115 1    
   226  114  235 1    
   227  115  116 1    
   228  115  117 1    
   229  115  236 1    
   230  116  237 1    
   231  116  238 1    
   232  116  239 1    
   233  117  118 2    
   234  117  119 am   BACKBONE|DICT|INTERRES
   235  119  120 1    
   236  119  240 1    
   237  120  121 1    
   238  120  124 1    
   239  120  241 1    
   240  121  122 am   BACKBONE|DICT|INTERRES
   241  121  123 2    
   242  122  242 1    
   243  122  243 1    
   244  124  125 1    
   245  124  244 1    
   246  124  245 1    
   247  125  126 1    
   248  126  246 1    
   249  126  247 1    
@<TRIPOS>SUBSTRUCTURE
     1 UNK         1 GROUP             0       ****    0 ROOT    
