@<TRIPOS>MOLECULE
3R540
247   249    1
SMALL
USER_CHARGES


@<TRIPOS>ATOM
      1 CA         -0.6734  -11.5468  -45.3422 C.3       0 UNK        -0.1800 
      2 C          -0.1529  -11.5802  -46.7709 C.2       0 UNK         0.5000 
      3 O          -0.9447  -11.5535  -47.7133 O.2       0 UNK        -0.5000 
      4 N           1.1701  -11.6364  -46.9328 N.am      1 UNK        -0.5000 
      5 CA          1.8649  -11.6589  -48.2180 C.3       1 UNK         0.1400 
      6 C6          1.9758  -13.0990  -48.8006 C.3       23 UNK        -0.0398 
      7 S7          2.8594  -14.2870  -47.7193 S.3       23 UNK        -0.2404 
      8 C8          4.1127  -14.9901  -48.8379 C.3       23 UNK        -0.0205 
      9 C9          3.5700  -16.1979  -49.5834 C.ar      23 UNK        -0.0193 
     10 C10         2.7185  -16.0299  -50.6783 C.ar      23 UNK        -0.1150 
     11 C11         2.1868  -17.1384  -51.3417 C.ar      23 UNK        -0.0193 
     12 C12         2.5397  -18.4244  -50.9254 C.ar      23 UNK        -0.1150 
     13 C13         3.4075  -18.6052  -49.8448 C.ar      23 UNK        -0.0193 
     14 C14         3.9148  -17.4889  -49.1741 C.ar      23 UNK        -0.1150 
     15 C15         3.7959  -20.0055  -49.3974 C.3       23 UNK        -0.0205 
     16 S16         2.9215  -20.4883  -47.8787 S.3       23 UNK        -0.2404 
     17 C17         1.1911  -20.5295  -48.4548 C.3       23 UNK        -0.0398 
     18 CA          0.4024  -21.6854  -47.8035 C.3       11 UNK         0.1400 
     19 N           0.2277  -21.5068  -46.3592 N.am      11 UNK        -0.5000 
     20 C          -0.2483  -22.4460  -45.5305 C.2       10 UNK         0.5000 
     21 O          -0.5414  -23.5869  -45.8872 O.2       10 UNK        -0.5000 
     22 CA         -0.4959  -22.0252  -44.0709 C.3       10 UNK         0.1400 
     23 CB          0.8055  -22.0580  -43.2562 C.3       10 UNK        -0.1800 
     24 N          -1.1225  -20.7053  -43.9717 N.am      10 UNK        -0.5000 
     25 C          -2.3507  -20.4252  -44.4317 C.2       9 UNK         0.5000 
     26 O          -3.0959  -21.2670  -44.9312 O.2       9 UNK        -0.5000 
     27 CA         -2.8203  -18.9623  -44.3568 C.3       9 UNK         0.1400 
     28 CB         -3.3879  -18.6504  -42.9645 C.3       9 UNK        -0.1800 
     29 N          -1.7667  -18.0039  -44.6897 N.am      9 UNK        -0.5000 
     30 C          -1.1795  -17.8927  -45.8909 C.2       8 UNK         0.5000 
     31 O          -1.4938  -18.5677  -46.8719 O.2       8 UNK        -0.5000 
     32 CA         -0.0026  -16.9017  -45.9951 C.3       8 UNK         0.1400 
     33 CB         -0.5086  -15.4567  -46.1229 C.3       8 UNK        -0.1800 
     34 N           0.9155  -17.0029  -44.8584 N.am      8 UNK        -0.5000 
     35 C           1.5832  -18.1165  -44.5226 C.2       7 UNK         0.5000 
     36 O           1.5174  -19.1707  -45.1521 O.2       7 UNK        -0.5000 
     37 CA          2.4054  -18.0656  -43.2261 C.3       7 UNK         0.1400 
     38 CB          3.7512  -17.3579  -43.4466 C.3       7 UNK        -0.1800 
     39 N           1.6618  -17.4088  -42.1516 N.am      7 UNK        -0.5000 
     40 C           0.6129  -17.9567  -41.5207 C.2       6 UNK         0.5000 
     41 O           0.1937  -19.0906  -41.7517 O.2       6 UNK        -0.5000 
     42 CA         -0.1129  -17.0782  -40.4838 C.3       6 UNK         0.1400 
     43 CB          0.5907  -17.1569  -39.1208 C.3       6 UNK        -0.1800 
     44 N          -0.2112  -15.6779  -40.8972 N.am      6 UNK        -0.5000 
     45 C          -0.9176  -15.2486  -41.9522 C.2       5 UNK         0.5000 
     46 O          -1.6070  -15.9835  -42.6563 O.2       5 UNK        -0.5000 
     47 CA         -0.7903  -13.7595  -42.3205 C.3       5 UNK         0.1400 
     48 CB         -1.8752  -12.9298  -41.6195 C.3       5 UNK        -0.1800 
     49 N           0.5269  -13.1845  -42.0316 N.am      5 UNK        -0.5000 
     50 C           1.6822  -13.6203  -42.5510 C.2       4 UNK         0.5000 
     51 O           1.7641  -14.5888  -43.3105 O.2       4 UNK        -0.5000 
     52 CA          2.9524  -12.8847  -42.0809 C.3       4 UNK         0.1400 
     53 CB          3.3488  -13.3678  -40.6762 C.3       4 UNK        -0.1800 
     54 N           4.0981  -13.0725  -42.9722 N.am      4 UNK        -0.5000 
     55 C           4.1593  -12.6808  -44.2504 C.2       3 UNK         0.5000 
     56 O           3.2490  -12.0728  -44.8238 O.2       3 UNK        -0.5000 
     57 CA          5.4662  -13.0233  -44.9944 C.3       3 UNK         0.1400 
     58 CB          5.6885  -14.5450  -45.0618 C.3       3 UNK        -0.1800 
     59 N           5.4004  -12.5137  -46.3585 N.am      3 UNK        -0.5000 
     60 C           6.0684  -11.4647  -46.8537 C.2       2 UNK         0.5000 
     61 O           6.9550  -10.8627  -46.2469 O.2       2 UNK        -0.5000 
     62 CA          5.6600  -11.0013  -48.2709 C.3       2 UNK         0.1400 
     63 CB          6.6257  -11.5701  -49.3219 C.3       2 UNK        -0.1800 
     64 N           4.2919  -11.4048  -48.6138 N.am      2 UNK        -0.5000 
     65 C           3.1935  -10.8925  -48.0415 C.2       1 UNK         0.5000 
     66 O           3.2125   -9.8641  -47.3601 O.2       1 UNK        -0.5000 
     67 C          -0.9443  -21.9087  -48.5192 C.2       11 UNK         0.5000 
     68 O          -1.0345  -22.8082  -49.3532 O.2       11 UNK        -0.5000 
     69 N          -1.9774  -21.1369  -48.1486 N.am      12 UNK        -0.5000 
     70 CA         -3.3462  -21.3070  -48.6379 C.3       12 UNK         0.1400 
     71 CB         -4.2342  -20.1686  -48.1157 C.3       12 UNK        -0.1800 
     72 C          -3.9399  -22.6798  -48.2725 C.2       12 UNK         0.5000 
     73 O          -4.5223  -23.3331  -49.1357 O.2       12 UNK        -0.5000 
     74 N          -3.7478  -23.1180  -47.0208 N.am      13 UNK        -0.5000 
     75 CA         -4.1531  -24.4394  -46.5392 C.3       13 UNK         0.1400 
     76 CB         -3.9187  -24.5381  -45.0246 C.3       13 UNK        -0.1800 
     77 C          -3.4444  -25.5842  -47.2870 C.2       13 UNK         0.5000 
     78 O          -4.1093  -26.5306  -47.7139 O.2       13 UNK        -0.5000 
     79 N          -2.1225  -25.4483  -47.4729 N.am      14 UNK        -0.5000 
     80 CA         -1.2796  -26.3731  -48.2344 C.3       14 UNK         0.1400 
     81 CB          0.1957  -25.9761  -48.0785 C.3       14 UNK        -0.1800 
     82 C          -1.6656  -26.4643  -49.7227 C.2       14 UNK         0.5000 
     83 O          -1.5834  -27.5487  -50.3020 O.2       14 UNK        -0.5000 
     84 N          -2.1373  -25.3524  -50.3036 N.am      15 UNK        -0.5000 
     85 CA         -2.7202  -25.2579  -51.6438 C.3       15 UNK         0.1400 
     86 CB         -2.6746  -23.7907  -52.1129 C.3       15 UNK        -0.1800 
     87 C          -4.1436  -25.8579  -51.7022 C.2       15 UNK         0.5000 
     88 O          -5.0871  -25.1769  -52.1046 O.2       15 UNK        -0.5000 
     89 N          -4.2626  -27.1278  -51.2875 N.am      16 UNK        -0.5000 
     90 CA         -5.4480  -27.9900  -51.3064 C.3       16 UNK         0.1400 
     91 CB         -5.6873  -28.5138  -52.7364 C.3       16 UNK        -0.1800 
     92 C          -6.7030  -27.3477  -50.6780 C.2       16 UNK         0.5000 
     93 O          -7.7818  -27.3977  -51.2717 O.2       16 UNK        -0.5000 
     94 N          -6.5277  -26.7539  -49.4874 N.am      17 UNK        -0.5000 
     95 CA         -7.5435  -26.0361  -48.7108 C.3       17 UNK         0.1400 
     96 CB         -8.6396  -26.9992  -48.2074 C.3       17 UNK        -0.1800 
     97 C          -8.1021  -24.8122  -49.4674 C.2       17 UNK         0.5000 
     98 O          -9.3122  -24.6996  -49.6730 O.2       17 UNK        -0.5000 
     99 N          -7.1863  -23.9155  -49.8541 N.am      18 UNK        -0.5000 
    100 CA        -7.4090  -22.6353  -50.5257 C.3       18 UNK         0.1400 
    101 CB        -8.2044  -21.6666  -49.6247 C.3       18 UNK        -0.1800 
    102 C         -7.9800  -22.7635  -51.9504 C.2       18 UNK         0.5000 
    103 O         -8.8055  -21.9452  -52.3620 O.2       18 UNK        -0.5000 
    104 N         -7.4965  -23.7588  -52.7034 N.am      19 UNK        -0.5000 
    105 CA        -7.7587  -23.9178  -54.1305 C.3       19 UNK         0.1400 
    106 CB        -7.5358  -25.3869  -54.5259 C.3       19 UNK        -0.1800 
    107 C         -6.8424  -22.9568  -54.9097 C.2       19 UNK         0.5000 
    108 O         -5.7095  -23.3163  -55.2345 O.2       19 UNK        -0.5000 
    109 N         -7.3419  -21.7339  -55.1400 N.am      20 UNK        -0.5000 
    110 CA        -6.6366  -20.5863  -55.7221 C.3       20 UNK         0.1400 
    111 CB        -6.2201  -20.8608  -57.1832 C.3       20 UNK        -0.1800 
    112 C         -5.4697  -20.1216  -54.8255 C.2       20 UNK         0.5000 
    113 O         -4.3209  -20.0588  -55.2693 O.2       20 UNK        -0.5000 
    114 N         -5.8009  -19.8150  -53.5621 N.am      21 UNK        -0.5000 
    115 CA        -4.8905  -19.2763  -52.5475 C.3       21 UNK         0.1400 
    116 CB        -5.6807  -19.0586  -51.2486 C.3       21 UNK        -0.1800 
    117 C         -4.2350  -17.9430  -52.9782 C.2       21 UNK         0.5000 
    118 O         -4.8740  -17.1676  -53.6911 O.2       21 UNK        -0.5000 
    119 N         -3.0116  -17.6217  -52.5401 N.am      22 UNK        -0.5000 
    120 CA        -2.0821  -18.3931  -51.6924 C.3       22 UNK         0.1400 
    121 C         -1.3297  -19.5585  -52.4036 C.2       22 UNK         0.5000 
    122 N         -1.5607  -19.8281  -53.6817 N.am      22 UNK        -0.7600 
    123 O         -0.5307  -20.2446  -51.7753 O.2       22 UNK        -0.5000 
    124 C124       -1.1020  -17.4476  -50.9411 C.3       23 UNK        -0.0398 
    125 S125       -0.3324  -16.1645  -51.9988 S.3       23 UNK        -0.2404 
    126 C126        1.2335  -16.9431  -52.5095 C.3       23 UNK        -0.0205 
    127 H127        0.1192  -11.7524  -44.6224 H         1 UNK         0.0600 
    128 H128       -1.4579  -12.2921  -45.2142 H         1 UNK         0.0600 
    129 H129       -1.0937  -10.5666  -45.1180 H         1 UNK         0.0600 
    130 H130        1.7885  -11.6461  -46.1245 H         1 UNK         0.3000 
    131 H131        1.2924  -11.0613  -48.9305 H         1 UNK         0.0600 
    132 H132        0.9733  -13.4970  -48.9643 H         1 UNK         0.0800 
    133 H133        2.4305  -13.0674  -49.7905 H         1 UNK         0.0800 
    134 H134        4.9811  -15.2782  -48.2434 H         1 UNK         0.0800 
    135 H135        4.4701  -14.2438  -49.5474 H         1 UNK         0.0800 
    136 H136        2.4469  -15.0374  -51.0060 H         1 UNK         0.1150 
    137 H137        2.1340  -19.2848  -51.4394 H         1 UNK         0.1150 
    138 H138        4.5721  -17.6292  -48.3274 H         1 UNK         0.1150 
    139 H139        3.5964  -20.7361  -50.1829 H         1 UNK         0.0800 
    140 H140        4.8705  -20.0411  -49.2131 H         1 UNK         0.0800 
    141 H141        1.1876  -20.6407  -49.5406 H         1 UNK         0.0800 
    142 H142        0.7252  -19.5660  -48.2419 H         1 UNK         0.0800 
    143 H143        0.9824  -22.6001  -47.9442 H         1 UNK         0.0600 
    144 H144        0.5053  -20.6070  -45.9752 H         1 UNK         0.3000 
    145 H145       -1.1828  -22.7513  -43.6311 H         1 UNK         0.0600 
    146 H146        0.6189  -21.8301  -42.2068 H         1 UNK         0.0600 
    147 H147        1.2650  -23.0463  -43.2975 H         1 UNK         0.0600 
    148 H148        1.5370  -21.3419  -43.6293 H         1 UNK         0.0600 
    149 H149       -0.5775  -19.9718  -43.5336 H         1 UNK         0.3000 
    150 H150       -3.6242  -18.8348  -45.0841 H         1 UNK         0.0600 
    151 H151       -4.1783  -19.3529  -42.6974 H         1 UNK         0.0600 
    152 H152       -3.8184  -17.6496  -42.9302 H         1 UNK         0.0600 
    153 H153       -2.6188  -18.7109  -42.1937 H         1 UNK         0.0600 
    154 H154       -1.4863  -17.3693  -43.9465 H         1 UNK         0.3000 
    155 H155        0.5648  -17.1452  -46.8961 H         1 UNK         0.0600 
    156 H156       -1.1447  -15.1757  -45.2841 H         1 UNK         0.0600 
    157 H157       -1.0930  -15.3293  -47.0347 H         1 UNK         0.0600 
    158 H158        0.3186  -14.7483  -46.1645 H         1 UNK         0.0600 
    159 H159        1.0544  -16.1676  -44.2978 H         1 UNK         0.3000 
    160 H160        2.6143  -19.0931  -42.9206 H         1 UNK         0.0600 
    161 H161        4.3502  -17.3551  -42.5361 H         1 UNK         0.0600 
    162 H162        3.6197  -16.3246  -43.7643 H         1 UNK         0.0600 
    163 H163        4.3329  -17.8633  -44.2185 H         1 UNK         0.0600 
    164 H164        1.8893  -16.4409  -41.9734 H         1 UNK         0.3000 
    165 H165       -1.1262  -17.4689  -40.3687 H         1 UNK         0.0600 
    166 H166        0.0402  -16.6027  -38.3604 H         1 UNK         0.0600 
    167 H167        0.6638  -18.1903  -38.7791 H         1 UNK         0.0600 
    168 H168        1.6029  -16.7530  -39.1647 H         1 UNK         0.0600 
    169 H169        0.3272  -15.0053  -40.3720 H         1 UNK         0.3000 
    170 H170       -0.9499  -13.6878  -43.3962 H         1 UNK         0.0600 
    171 H171       -2.8689  -13.3256  -41.8338 H         1 UNK         0.0600 
    172 H172       -1.7470  -12.9318  -40.5364 H         1 UNK         0.0600 
    173 H173       -1.8601  -11.8940  -41.9593 H         1 UNK         0.0600 
    174 H174        0.5412  -12.3966  -41.4000 H         1 UNK         0.3000 
    175 H175        2.7327  -11.8160  -42.0401 H         1 UNK         0.0600 
    176 H176        3.5852  -14.4329  -40.6692 H         1 UNK         0.0600 
    177 H177        4.2208  -12.8287  -40.3051 H         1 UNK         0.0600 
    178 H178        2.5436  -13.2059  -39.9585 H         1 UNK         0.0600 
    179 H179        4.8787  -13.5814  -42.5856 H         1 UNK         0.3000 
    180 H180        6.2967  -12.5651  -44.4539 H         1 UNK         0.0600 
    181 H181        4.8401  -15.0569  -45.5171 H         1 UNK         0.0600 
    182 H182        5.8353  -14.9710  -44.0690 H         1 UNK         0.0600 
    183 H183        6.5755  -14.7868  -45.6475 H         1 UNK         0.0600 
    184 H184        4.6380  -12.8867  -46.9069 H         1 UNK         0.3000 
    185 H185        5.7222   -9.9114  -48.2988 H         1 UNK         0.0600 
    186 H186        7.6510  -11.2596  -49.1167 H         1 UNK         0.0600 
    187 H187        6.6106  -12.6606  -49.3362 H         1 UNK         0.0600 
    188 H188        6.3744  -11.2163  -50.3219 H         1 UNK         0.0600 
    189 H189        4.2022  -12.2233  -49.1951 H         1 UNK         0.3000 
    190 H190       -1.8175  -20.3820  -47.4871 H         1 UNK         0.3000 
    191 H191       -3.3167  -21.2395  -49.7273 H         1 UNK         0.0600 
    192 H192       -4.2968  -20.1710  -47.0285 H         1 UNK         0.0600 
    193 H193       -5.2516  -20.2604  -48.4968 H         1 UNK         0.0600 
    194 H194       -3.8517  -19.1956  -48.4239 H         1 UNK         0.0600 
    195 H195       -3.3059  -22.4999  -46.3447 H         1 UNK         0.3000 
    196 H196       -5.2248  -24.5384  -46.7184 H         1 UNK         0.0600 
    197 H197       -4.2386  -25.5081  -44.6424 H         1 UNK         0.0600 
    198 H198       -4.4831  -23.7746  -44.4890 H         1 UNK         0.0600 
    199 H199       -2.8665  -24.4147  -44.7686 H         1 UNK         0.0600 
    200 H200       -1.6509  -24.6520  -47.0519 H         1 UNK         0.3000 
    201 H201       -1.4102  -27.3668  -47.8013 H         1 UNK         0.0600 
    202 H202        0.4977  -25.9830  -47.0311 H         1 UNK         0.0600 
    203 H203        0.3881  -24.9795  -48.4757 H         1 UNK         0.0600 
    204 H204        0.8461  -26.6724  -48.6093 H         1 UNK         0.0600 
    205 H205       -2.1252  -24.4920  -49.7660 H         1 UNK         0.3000 
    206 H206       -2.1013  -25.8397  -52.3295 H         1 UNK         0.0600 
    207 H207       -1.6554  -23.4036  -52.1046 H         1 UNK         0.0600 
    208 H208       -3.0511  -23.6923  -53.1320 H         1 UNK         0.0600 
    209 H209       -3.2799  -23.1440  -51.4784 H         1 UNK         0.0600 
    210 H210       -3.4131  -27.5628  -50.9395 H         1 UNK         0.3000 
    211 H211       -5.2082  -28.8504  -50.6801 H         1 UNK         0.0600 
    212 H212       -5.9288  -27.7060  -53.4253 H         1 UNK         0.0600 
    213 H213       -6.5120  -29.2269  -52.7625 H         1 UNK         0.0600 
    214 H214       -4.8054  -29.0267  -53.1201 H         1 UNK         0.0600 
    215 H215       -5.5959  -26.7546  -49.0827 H         1 UNK         0.3000 
    216 H216       -7.0333  -25.6445  -47.8305 H         1 UNK         0.0600 
    217 H217       -9.3313  -26.4842  -47.5399 H         1 UNK         0.0600 
    218 H218       -8.2075  -27.8294  -47.6487 H         1 UNK         0.0600 
    219 H219       -9.2275  -27.4155  -49.0257 H         1 UNK         0.0600 
    220 H220       -6.2075  -24.1001  -49.6491 H         1 UNK         0.3000 
    221 H221       -6.4140  -22.2126  -50.6592 H         1 UNK         0.0600 
    222 H222       -9.2261  -22.0104  -49.4622 H         1 UNK         0.0600 
    223 H223       -7.7275  -21.5555  -48.6509 H         1 UNK         0.0600 
    224 H224       -8.2649  -20.6730  -50.0696 H         1 UNK         0.0600 
    225 H225       -6.7522  -24.3427  -52.3256 H         1 UNK         0.3000 
    226 H226       -8.8012  -23.6704  -54.3419 H         1 UNK         0.0600 
    227 H227       -8.1636  -26.0550  -53.9358 H         1 UNK         0.0600 
    228 H228       -6.4990  -25.6896  -54.3816 H         1 UNK         0.0600 
    229 H229       -7.7803  -25.5476  -55.5763 H         1 UNK         0.0600 
    230 H230       -8.2664  -21.5363  -54.7797 H         1 UNK         0.3000 
    231 H231       -7.3529  -19.7635  -55.7419 H         1 UNK         0.0600 
    232 H232       -7.0750  -21.1675  -57.7857 H         1 UNK         0.0600 
    233 H233       -5.4615  -21.6403  -57.2558 H         1 UNK         0.0600 
    234 H234       -5.8052  -19.9626  -57.6418 H         1 UNK         0.0600 
    235 H235       -6.7714  -19.8877  -53.2952 H         1 UNK         0.3000 
    236 H236       -4.1273  -20.0347  -52.3755 H         1 UNK         0.0600 
    237 H237       -6.0388  -20.0002  -50.8418 H         1 UNK         0.0600 
    238 H238       -5.0637  -18.5891  -50.4824 H         1 UNK         0.0600 
    239 H239       -6.5440  -18.4109  -51.4070 H         1 UNK         0.0600 
    240 H240       -2.6265  -16.7400  -52.8467 H         1 UNK         0.3000 
    241 H241       -2.6745  -18.8834  -50.9191 H         1 UNK         0.0600 
    242 H242       -1.0675  -20.5930  -54.1132 H         1 UNK         0.3800 
    243 H243       -2.2370  -19.3104  -54.2229 H         1 UNK         0.3800 
    244 H244       -1.6576  -16.9183  -50.1658 H         1 UNK         0.0800 
    245 H245       -0.3348  -18.0039  -50.4000 H         1 UNK         0.0800 
    246 H246        1.0254  -17.8896  -53.0098 H         1 UNK         0.0800 
    247 H247        1.7143  -16.3065  -53.2534 H         1 UNK         0.0800 
@<TRIPOS>BOND
     1    1    2 1    
     2    1  127 1    
     3    1  128 1    
     4    1  129 1    
     5    2    3 2    
     6    2    4 am   BACKBONE|DICT|INTERRES
     7    4    5 1    
     8    4  130 1    
     9    5    6 1    
    10    5   65 1    
    11    5  131 1    
    12    6    7 1    
    13    6  132 1    
    14    6  133 1    
    15    7    8 1    
    16    8    9 1    
    17    8  134 1    
    18    8  135 1    
    19    9   10 ar   
    20    9   14 ar   
    21   10   11 ar   
    22   10  136 1    
    23   11   12 ar   
    24   11  126 1    
    25   12   13 ar   
    26   12  137 1    
    27   13   14 ar   
    28   13   15 1    
    29   14  138 1    
    30   15   16 1    
    31   15  139 1    
    32   15  140 1    
    33   16   17 1    
    34   17   18 1    
    35   17  141 1    
    36   17  142 1    
    37   18   19 1    
    38   18   67 1    
    39   18  143 1    
    40   19   20 am   BACKBONE|DICT|INTERRES
    41   19  144 1    
    42   20   21 2    
    43   20   22 1    
    44   22   23 1    
    45   22   24 1    
    46   22  145 1    
    47   23  146 1    
    48   23  147 1    
    49   23  148 1    
    50   24   25 am   BACKBONE|DICT|INTERRES
    51   24  149 1    
    52   25   26 2    
    53   25   27 1    
    54   27   28 1    
    55   27   29 1    
    56   27  150 1    
    57   28  151 1    
    58   28  152 1    
    59   28  153 1    
    60   29   30 am   BACKBONE|DICT|INTERRES
    61   29  154 1    
    62   30   31 2    
    63   30   32 1    
    64   32   33 1    
    65   32   34 1    
    66   32  155 1    
    67   33  156 1    
    68   33  157 1    
    69   33  158 1    
    70   34   35 am   BACKBONE|DICT|INTERRES
    71   34  159 1    
    72   35   36 2    
    73   35   37 1    
    74   37   38 1    
    75   37   39 1    
    76   37  160 1    
    77   38  161 1    
    78   38  162 1    
    79   38  163 1    
    80   39   40 am   BACKBONE|DICT|INTERRES
    81   39  164 1    
    82   40   41 2    
    83   40   42 1    
    84   42   43 1    
    85   42   44 1    
    86   42  165 1    
    87   43  166 1    
    88   43  167 1    
    89   43  168 1    
    90   44   45 am   BACKBONE|DICT|INTERRES
    91   44  169 1    
    92   45   46 2    
    93   45   47 1    
    94   47   48 1    
    95   47   49 1    
    96   47  170 1    
    97   48  171 1    
    98   48  172 1    
    99   48  173 1    
   100   49   50 am   BACKBONE|DICT|INTERRES
   101   49  174 1    
   102   50   51 2    
   103   50   52 1    
   104   52   53 1    
   105   52   54 1    
   106   52  175 1    
   107   53  176 1    
   108   53  177 1    
   109   53  178 1    
   110   54   55 am   BACKBONE|DICT|INTERRES
   111   54  179 1    
   112   55   56 2    
   113   55   57 1    
   114   57   58 1    
   115   57   59 1    
   116   57  180 1    
   117   58  181 1    
   118   58  182 1    
   119   58  183 1    
   120   59   60 am   BACKBONE|DICT|INTERRES
   121   59  184 1    
   122   60   61 2    
   123   60   62 1    
   124   62   63 1    
   125   62   64 1    
   126   62  185 1    
   127   63  186 1    
   128   63  187 1    
   129   63  188 1    
   130   64   65 am   BACKBONE|DICT|INTERRES
   131   64  189 1    
   132   65   66 2    
   133   67   68 2    
   134   67   69 am   BACKBONE|DICT|INTERRES
   135   69   70 1    
   136   69  190 1    
   137   70   71 1    
   138   70   72 1    
   139   70  191 1    
   140   71  192 1    
   141   71  193 1    
   142   71  194 1    
   143   72   73 2    
   144   72   74 am   BACKBONE|DICT|INTERRES
   145   74   75 1    
   146   74  195 1    
   147   75   76 1    
   148   75   77 1    
   149   75  196 1    
   150   76  197 1    
   151   76  198 1    
   152   76  199 1    
   153   77   78 2    
   154   77   79 am   BACKBONE|DICT|INTERRES
   155   79   80 1    
   156   79  200 1    
   157   80   81 1    
   158   80   82 1    
   159   80  201 1    
   160   81  202 1    
   161   81  203 1    
   162   81  204 1    
   163   82   83 2    
   164   82   84 am   BACKBONE|DICT|INTERRES
   165   84   85 1    
   166   84  205 1    
   167   85   86 1    
   168   85   87 1    
   169   85  206 1    
   170   86  207 1    
   171   86  208 1    
   172   86  209 1    
   173   87   88 2    
   174   87   89 am   BACKBONE|DICT|INTERRES
   175   89   90 1    
   176   89  210 1    
   177   90   91 1    
   178   90   92 1    
   179   90  211 1    
   180   91  212 1    
   181   91  213 1    
   182   91  214 1    
   183   92   93 2    
   184   92   94 am   BACKBONE|DICT|INTERRES
   185   94   95 1    
   186   94  215 1    
   187   95   96 1    
   188   95   97 1    
   189   95  216 1    
   190   96  217 1    
   191   96  218 1    
   192   96  219 1    
   193   97   98 2    
   194   97   99 am   BACKBONE|DICT|INTERRES
   195   99  100 1    
   196   99  220 1    
   197  100  101 1    
   198  100  102 1    
   199  100  221 1    
   200  101  222 1    
   201  101  223 1    
   202  101  224 1    
   203  102  103 2    
   204  102  104 am   BACKBONE|DICT|INTERRES
   205  104  105 1    
   206  104  225 1    
   207  105  106 1    
   208  105  107 1    
   209  105  226 1    
   210  106  227 1    
   211  106  228 1    
   212  106  229 1    
   213  107  108 2    
   214  107  109 am   BACKBONE|DICT|INTERRES
   215  109  110 1    
   216  109  230 1    
   217  110  111 1    
   218  110  112 1    
   219  110  231 1    
   220  111  232 1    
   221  111  233 1    
   222  111  234 1    
   223  112  113 2    
   224  112  114 am   BACKBONE|DICT|INTERRES
   225  114  115 1    
   226  114  235 1    
   227  115  116 1    
   228  115  117 1    
   229  115  236 1    
   230  116  237 1    
   231  116  238 1    
   232  116  239 1    
   233  117  118 2    
   234  117  119 am   BACKBONE|DICT|INTERRES
   235  119  120 1    
   236  119  240 1    
   237  120  121 1    
   238  120  124 1    
   239  120  241 1    
   240  121  122 am   BACKBONE|DICT|INTERRES
   241  121  123 2    
   242  122  242 1    
   243  122  243 1    
   244  124  125 1    
   245  124  244 1    
   246  124  245 1    
   247  125  126 1    
   248  126  246 1    
   249  126  247 1    
@<TRIPOS>SUBSTRUCTURE
     1 UNK         1 GROUP             0       ****    0 ROOT    
