@<TRIPOS>MOLECULE
3R540
247   249    1
SMALL
USER_CHARGES


@<TRIPOS>ATOM
      1 CA         -3.3690  -14.5408  -49.2846 C.3       0 UNK        -0.1800 
      2 C          -1.9596  -14.0270  -49.0289 C.2       0 UNK         0.5000 
      3 O          -1.6350  -13.7030  -47.8877 O.2       0 UNK        -0.5000 
      4 N          -1.1371  -13.9533  -50.0854 N.am      1 UNK        -0.5000 
      5 CA          0.2727  -13.5399  -50.1185 C.3       1 UNK         0.1400 
      6 C6          1.2283  -14.7256  -49.8139 C.3       23 UNK        -0.0398 
      7 S7          2.9230  -14.4256  -50.4154 S.3       23 UNK        -0.2404 
      8 C8          3.8550  -15.7116  -49.5164 C.3       23 UNK        -0.0205 
      9 C9          3.5970  -17.1464  -49.9758 C.ar      23 UNK        -0.0193 
     10 C10         3.2783  -17.4575  -51.3046 C.ar      23 UNK        -0.1150 
     11 C11         3.0631  -18.7823  -51.6957 C.ar      23 UNK        -0.0193 
     12 C12         3.1939  -19.8064  -50.7532 C.ar      23 UNK        -0.1150 
     13 C13         3.5331  -19.5168  -49.4294 C.ar      23 UNK        -0.0193 
     14 C14         3.7303  -18.1859  -49.0485 C.ar      23 UNK        -0.1150 
     15 C15         3.7269  -20.6457  -48.4242 C.3       23 UNK        -0.0205 
     16 S16         2.5140  -20.6010  -47.0683 S.3       23 UNK        -0.2404 
     17 C17         0.9492  -20.9773  -47.9284 C.3       23 UNK        -0.0398 
     18 CA          0.1703  -22.1458  -47.2843 C.3       11 UNK         0.1400 
     19 N          -0.1140  -21.9192  -45.8630 N.am      11 UNK        -0.5000 
     20 C          -0.6551  -22.8232  -45.0346 C.2       10 UNK         0.5000 
     21 O          -0.9211  -23.9780  -45.3617 O.2       10 UNK        -0.5000 
     22 CA         -1.0158  -22.3409  -43.6209 C.3       10 UNK         0.1400 
     23 CB          0.1879  -22.4540  -42.6730 C.3       10 UNK        -0.1800 
     24 N          -1.5148  -20.9664  -43.6408 N.am      10 UNK        -0.5000 
     25 C          -2.7269  -20.6168  -44.0964 C.2       9 UNK         0.5000 
     26 O          -3.5642  -21.4274  -44.4929 O.2       9 UNK        -0.5000 
     27 CA         -3.0395  -19.1096  -44.1597 C.3       9 UNK         0.1400 
     28 CB         -3.5599  -18.6056  -42.8056 C.3       9 UNK        -0.1800 
     29 N          -1.8768  -18.3153  -44.5550 N.am      9 UNK        -0.5000 
     30 C          -1.3156  -18.3490  -45.7711 C.2       8 UNK         0.5000 
     31 O          -1.7797  -18.9873  -46.7163 O.2       8 UNK        -0.5000 
     32 CA         -0.0042  -17.5631  -45.9577 C.3       8 UNK         0.1400 
     33 CB         -0.2962  -16.1950  -46.5736 C.3       8 UNK        -0.1800 
     34 N           0.7757  -17.3700  -44.7322 N.am      8 UNK        -0.5000 
     35 C           1.3044  -18.3574  -43.9951 C.2       7 UNK         0.5000 
     36 O           1.0322  -19.5455  -44.1700 O.2       7 UNK        -0.5000 
     37 CA          2.2760  -17.9461  -42.8675 C.3       7 UNK         0.1400 
     38 CB          3.2254  -19.0901  -42.4562 C.3       7 UNK        -0.1800 
     39 N           3.0329  -16.7239  -43.1648 N.am      7 UNK        -0.5000 
     40 C           3.8684  -16.5038  -44.1940 C.2       6 UNK         0.5000 
     41 O           4.1652  -17.3579  -45.0296 O.2       6 UNK        -0.5000 
     42 CA          4.4659  -15.0878  -44.3250 C.3       6 UNK         0.1400 
     43 CB          4.3084  -14.5447  -45.7535 C.3       6 UNK        -0.1800 
     44 N           3.8392  -14.1440  -43.3980 N.am      6 UNK        -0.5000 
     45 C           4.4421  -13.5823  -42.3413 C.2       5 UNK         0.5000 
     46 O           5.6331  -13.7367  -42.0686 O.2       5 UNK        -0.5000 
     47 CA          3.5628  -12.7239  -41.4080 C.3       5 UNK         0.1400 
     48 CB          3.6940  -11.2352  -41.7622 C.3       5 UNK        -0.1800 
     49 N           2.1462  -13.0985  -41.4286 N.am      5 UNK        -0.5000 
     50 C           1.6568  -14.2809  -41.0283 C.2       4 UNK         0.5000 
     51 O           2.3511  -15.1802  -40.5553 O.2       4 UNK        -0.5000 
     52 CA          0.1538  -14.5357  -41.2493 C.3       4 UNK         0.1400 
     53 CB         -0.6316  -14.2777  -39.9552 C.3       4 UNK        -0.1800 
     54 N          -0.4395  -13.7484  -42.3332 N.am      4 UNK        -0.5000 
     55 C          -0.0788  -13.7887  -43.6232 C.2       3 UNK         0.5000 
     56 O           0.8434  -14.4937  -44.0453 O.2       3 UNK        -0.5000 
     57 CA         -0.9047  -12.9187  -44.5966 C.3       3 UNK         0.1400 
     58 CB         -1.5894  -11.7080  -43.9217 C.3       3 UNK        -0.1800 
     59 N          -0.1462  -12.4829  -45.7708 N.am      3 UNK        -0.5000 
     60 C           0.9458  -11.7037  -45.7930 C.2       2 UNK         0.5000 
     61 O           1.5004  -11.2782  -44.7784 O.2       2 UNK        -0.5000 
     62 CA          1.4945  -11.3252  -47.1846 C.3       2 UNK         0.1400 
     63 CB          3.0022  -11.0187  -47.1708 C.3       2 UNK        -0.1800 
     64 N           1.2302  -12.3865  -48.1554 N.am      2 UNK        -0.5000 
     65 C           0.5405  -12.2532  -49.2961 C.2       1 UNK         0.5000 
     66 O           0.0943  -11.1790  -49.7051 O.2       1 UNK        -0.5000 
     67 C          -1.1231  -22.4367  -48.0756 C.2       11 UNK         0.5000 
     68 O          -1.1592  -23.3981  -48.8434 O.2       11 UNK        -0.5000 
     69 N          -2.1759  -21.6404  -47.8316 N.am      12 UNK        -0.5000 
     70 CA         -3.5150  -21.8324  -48.3910 C.3       12 UNK         0.1400 
     71 CB         -4.4176  -20.6531  -47.9979 C.3       12 UNK        -0.1800 
     72 C          -4.1559  -23.1628  -47.9578 C.2       12 UNK         0.5000 
     73 O          -4.7407  -23.8511  -48.7950 O.2       12 UNK        -0.5000 
     74 N          -4.0118  -23.5132  -46.6711 N.am      13 UNK        -0.5000 
     75 CA         -4.4840  -24.7747  -46.0988 C.3       13 UNK         0.1400 
     76 CB         -4.3622  -24.7336  -44.5686 C.3       13 UNK        -0.1800 
     77 C          -3.7521  -25.9992  -46.6770 C.2       13 UNK         0.5000 
     78 O          -4.4061  -26.9822  -47.0247 O.2       13 UNK        -0.5000 
     79 N          -2.4222  -25.9053  -46.8211 N.am      14 UNK        -0.5000 
     80 CA         -1.5727  -26.9231  -47.4473 C.3       14 UNK         0.1400 
     81 CB         -0.0954  -26.5457  -47.2612 C.3       14 UNK        -0.1800 
     82 C          -1.8957  -27.1389  -48.9382 C.2       14 UNK         0.5000 
     83 O          -1.8398  -28.2720  -49.4165 O.2       14 UNK        -0.5000 
     84 N          -2.2763  -26.0566  -49.6294 N.am      15 UNK        -0.5000 
     85 CA         -2.7770  -26.0654  -51.0040 C.3       15 UNK         0.1400 
     86 CB         -2.5902  -24.6632  -51.6072 C.3       15 UNK        -0.1800 
     87 C          -4.2506  -26.5104  -51.1224 C.2       15 UNK         0.5000 
     88 O          -4.7700  -26.5420  -52.2375 O.2       15 UNK        -0.5000 
     89 N          -4.9191  -26.8016  -49.9945 N.am      16 UNK        -0.5000 
     90 CA         -6.3300  -27.1914  -49.8716 C.3       16 UNK         0.1400 
     91 CB         -6.5505  -28.6021  -50.4552 C.3       16 UNK        -0.1800 
     92 C          -7.3006  -26.1411  -50.4554 C.2       16 UNK         0.5000 
     93 O          -8.3393  -26.4987  -51.0130 O.2       16 UNK        -0.5000 
     94 N          -6.9138  -24.8615  -50.3434 N.am      17 UNK        -0.5000 
     95 CA         -7.5619  -23.6667  -50.8899 C.3       17 UNK         0.1400 
     96 CB         -8.9606  -23.4612  -50.2739 C.3       17 UNK        -0.1800 
     97 C          -7.5809  -23.5865  -52.4336 C.2       17 UNK         0.5000 
     98 O          -8.2149  -22.6786  -52.9729 O.2       17 UNK        -0.5000 
     99 N          -6.8611  -24.4801  -53.1325 N.am      18 UNK        -0.5000 
    100 CA        -6.7225  -24.4566  -54.5941 C.3       18 UNK         0.1400 
    101 CB        -6.1950  -25.8124  -55.0862 C.3       18 UNK        -0.1800 
    102 C         -5.8107  -23.3128  -55.0798 C.2       18 UNK         0.5000 
    103 O         -5.9567  -22.8556  -56.2137 O.2       18 UNK        -0.5000 
    104 N         -4.9120  -22.8583  -54.1990 N.am      19 UNK        -0.5000 
    105 CA        -4.0579  -21.6893  -54.3707 C.3       19 UNK         0.1400 
    106 CB        -2.6120  -22.1350  -54.6571 C.3       19 UNK        -0.1800 
    107 C         -4.1840  -20.8152  -53.1134 C.2       19 UNK         0.5000 
    108 O         -3.1803  -20.4743  -52.4879 O.2       19 UNK        -0.5000 
    109 N         -5.4299  -20.4728  -52.7497 N.am      20 UNK        -0.5000 
    110 CA        -5.7702  -19.6579  -51.5761 C.3       20 UNK         0.1400 
    111 CB        -7.2965  -19.5442  -51.4543 C.3       20 UNK        -0.1800 
    112 C         -5.1234  -18.2584  -51.5736 C.2       20 UNK         0.5000 
    113 O         -4.8121  -17.7360  -50.5037 O.2       20 UNK        -0.5000 
    114 N         -4.8687  -17.7108  -52.7710 N.am      21 UNK        -0.5000 
    115 CA        -4.1401  -16.4604  -53.0023 C.3       21 UNK         0.1400 
    116 CB        -4.2102  -16.1173  -54.4980 C.3       21 UNK        -0.1800 
    117 C         -2.6719  -16.4821  -52.5240 C.2       21 UNK         0.5000 
    118 O         -2.0932  -15.4119  -52.3328 O.2       21 UNK        -0.5000 
    119 N         -2.1059  -17.6791  -52.3258 N.am      22 UNK        -0.5000 
    120 CA        -0.8003  -17.9010  -51.6914 C.3       22 UNK         0.1400 
    121 C         -0.8841  -18.0859  -50.1486 C.2       22 UNK         0.5000 
    122 N         -2.0536  -18.1467  -49.5234 N.am      22 UNK        -0.7600 
    123 O          0.1478  -18.1491  -49.4936 O.2       22 UNK        -0.5000 
    124 C124       -0.0387  -19.0712  -52.3777 C.3       23 UNK        -0.0398 
    125 S125        1.0939  -18.4506  -53.6679 S.3       23 UNK        -0.2404 
    126 C126        2.7085  -19.1185  -53.1398 C.3       23 UNK        -0.0205 
    127 H127       -3.6574  -14.4239  -50.3286 H         1 UNK         0.0600 
    128 H128       -4.0877  -13.9925  -48.6757 H         1 UNK         0.0600 
    129 H129       -3.4357  -15.5969  -49.0237 H         1 UNK         0.0600 
    130 H130       -1.4972  -14.2781  -50.9806 H         1 UNK         0.3000 
    131 H131        0.4419  -13.2567  -51.1587 H         1 UNK         0.0600 
    132 H132        1.2374  -14.9827  -48.7564 H         1 UNK         0.0800 
    133 H133        0.8750  -15.6200  -50.3238 H         1 UNK         0.0800 
    134 H134        4.9205  -15.5053  -49.6238 H         1 UNK         0.0800 
    135 H135        3.6265  -15.6177  -48.4549 H         1 UNK         0.0800 
    136 H136        3.1901  -16.6729  -52.0420 H         1 UNK         0.1150 
    137 H137        3.0409  -20.8334  -51.0533 H         1 UNK         0.1150 
    138 H138        3.9933  -17.9633  -48.0231 H         1 UNK         0.1150 
    139 H139        3.6817  -21.6201  -48.9130 H         1 UNK         0.0800 
    140 H140        4.7275  -20.5656  -47.9974 H         1 UNK         0.0800 
    141 H141        0.3417  -20.0755  -47.9157 H         1 UNK         0.0800 
    142 H142        1.1534  -21.1896  -48.9791 H         1 UNK         0.0800 
    143 H143        0.7958  -23.0387  -47.3488 H         1 UNK         0.0600 
    144 H144        0.1327  -21.0096  -45.4902 H         1 UNK         0.3000 
    145 H145       -1.8061  -22.9876  -43.2346 H         1 UNK         0.0600 
    146 H146       -0.0620  -22.1014  -41.6724 H         1 UNK         0.0600 
    147 H147        0.5095  -23.4921  -42.5815 H         1 UNK         0.0600 
    148 H148        1.0441  -21.8806  -43.0279 H         1 UNK         0.0600 
    149 H149       -0.8392  -20.2428  -43.4304 H         1 UNK         0.3000 
    150 H150       -3.8239  -18.9621  -44.9051 H         1 UNK         0.0600 
    151 H151       -4.4409  -19.1679  -42.4933 H         1 UNK         0.0600 
    152 H152       -3.8483  -17.5556  -42.8602 H         1 UNK         0.0600 
    153 H153       -2.8097  -18.7079  -42.0205 H         1 UNK         0.0600 
    154 H154       -1.4325  -17.7603  -43.8395 H         1 UNK         0.3000 
    155 H155        0.6248  -18.1193  -46.6542 H         1 UNK         0.0600 
    156 H156        0.6061  -15.5891  -46.6433 H         1 UNK         0.0600 
    157 H157       -1.0273  -15.6406  -45.9863 H         1 UNK         0.0600 
    158 H158       -0.6993  -16.3055  -47.5798 H         1 UNK         0.0600 
    159 H159        1.0113  -16.4097  -44.5004 H         1 UNK         0.3000 
    160 H160        1.6519  -17.7124  -42.0042 H         1 UNK         0.0600 
    161 H161        3.8331  -19.4316  -43.2948 H         1 UNK         0.0600 
    162 H162        2.6655  -19.9507  -42.0883 H         1 UNK         0.0600 
    163 H163        3.8982  -18.7770  -41.6579 H         1 UNK         0.0600 
    164 H164        2.8927  -15.9649  -42.5104 H         1 UNK         0.3000 
    165 H165        5.5334  -15.1811  -44.1170 H         1 UNK         0.0600 
    166 H166        3.2592  -14.4513  -46.0372 H         1 UNK         0.0600 
    167 H167        4.7769  -13.5657  -45.8461 H         1 UNK         0.0600 
    168 H168        4.7963  -15.1994  -46.4756 H         1 UNK         0.0600 
    169 H169        2.8510  -13.9699  -43.5484 H         1 UNK         0.3000 
    170 H170        3.9302  -12.8666  -40.3896 H         1 UNK         0.0600 
    171 H171        4.7351  -10.9130  -41.7158 H         1 UNK         0.0600 
    172 H172        3.3321  -11.0285  -42.7700 H         1 UNK         0.0600 
    173 H173        3.1306  -10.6118  -41.0678 H         1 UNK         0.0600 
    174 H174        1.5089  -12.4288  -41.8352 H         1 UNK         0.3000 
    175 H175        0.0410  -15.5895  -41.5119 H         1 UNK         0.0600 
    176 H176       -0.5842  -13.2292  -39.6584 H         1 UNK         0.0600 
    177 H177       -1.6815  -14.5483  -40.0694 H         1 UNK         0.0600 
    178 H178       -0.2334  -14.8707  -39.1306 H         1 UNK         0.0600 
    179 H179       -1.2014  -13.1394  -42.0721 H         1 UNK         0.3000 
    180 H180       -1.6945  -13.5657  -44.9792 H         1 UNK         0.0600 
    181 H181       -0.8708  -11.0647  -43.4124 H         1 UNK         0.0600 
    182 H182       -2.3331  -12.0239  -43.1896 H         1 UNK         0.0600 
    183 H183       -2.1144  -11.0981  -44.6571 H         1 UNK         0.0600 
    184 H184       -0.5241  -12.8139  -46.6563 H         1 UNK         0.3000 
    185 H185        0.9712  -10.4111  -47.4711 H         1 UNK         0.0600 
    186 H186        3.3503  -10.7202  -48.1598 H         1 UNK         0.0600 
    187 H187        3.2345  -10.2019  -46.4865 H         1 UNK         0.0600 
    188 H188        3.5835  -11.8852  -46.8610 H         1 UNK         0.0600 
    189 H189        1.5418  -13.3072  -47.8851 H         1 UNK         0.3000 
    190 H190       -2.0506  -20.8318  -47.2295 H         1 UNK         0.3000 
    191 H191       -3.4241  -21.8448  -49.4793 H         1 UNK         0.0600 
    192 H192       -4.0538  -19.7179  -48.4209 H         1 UNK         0.0600 
    193 H193       -5.4360  -20.7987  -48.3599 H         1 UNK         0.0600 
    194 H194       -4.4718  -20.5293  -46.9164 H         1 UNK         0.0600 
    195 H195       -3.5631  -22.8644  -46.0344 H         1 UNK         0.3000 
    196 H196       -5.5424  -24.8746  -46.3486 H         1 UNK         0.0600 
    197 H197       -4.7514  -25.6494  -44.1222 H         1 UNK         0.0600 
    198 H198       -4.9288  -23.9016  -44.1501 H         1 UNK         0.0600 
    199 H199       -3.3262  -24.6280  -44.2480 H         1 UNK         0.0600 
    200 H200       -1.9466  -25.0824  -46.4574 H         1 UNK         0.3000 
    201 H201       -1.7503  -27.8684  -46.9306 H         1 UNK         0.0600 
    202 H202        0.1621  -26.4726  -46.2045 H         1 UNK         0.0600 
    203 H203        0.1371  -25.5884  -47.7286 H         1 UNK         0.0600 
    204 H204        0.5596  -27.2966  -47.7046 H         1 UNK         0.0600 
    205 H205       -2.2275  -25.1510  -49.1745 H         1 UNK         0.3000 
    206 H206       -2.1802  -26.7677  -51.5892 H         1 UNK         0.0600 
    207 H207       -1.5467  -24.3505  -51.5650 H         1 UNK         0.0600 
    208 H208       -2.8897  -24.6482  -52.6554 H         1 UNK         0.0600 
    209 H209       -3.1840  -23.9142  -51.0826 H         1 UNK         0.0600 
    210 H210       -4.4234  -26.7229  -49.1146 H         1 UNK         0.3000 
    211 H211       -6.5433  -27.2381  -48.8031 H         1 UNK         0.0600 
    212 H212       -6.4117  -28.6192  -51.5367 H         1 UNK         0.0600 
    213 H213       -7.5604  -28.9584  -50.2490 H         1 UNK         0.0600 
    214 H214       -5.8586  -29.3213  -50.0168 H         1 UNK         0.0600 
    215 H215       -6.0458  -24.6759  -49.8431 H         1 UNK         0.3000 
    216 H216       -6.9404  -22.8314  -50.5641 H         1 UNK         0.0600 
    217 H217       -8.9201  -23.4946  -49.1851 H         1 UNK         0.0600 
    218 H218       -9.6677  -24.2207  -50.6081 H         1 UNK         0.0600 
    219 H219       -9.3728  -22.4904  -50.5512 H         1 UNK         0.0600 
    220 H220       -6.3518  -25.2071  -52.6416 H         1 UNK         0.3000 
    221 H221       -7.7121  -24.3021  -55.0293 H         1 UNK         0.0600 
    222 H222       -5.1663  -25.9851  -54.7690 H         1 UNK         0.0600 
    223 H223       -6.8054  -26.6353  -54.7137 H         1 UNK         0.0600 
    224 H224       -6.2104  -25.8615  -56.1756 H         1 UNK         0.0600 
    225 H225       -4.8856  -23.2946  -53.2889 H         1 UNK         0.3000 
    226 H226       -4.4031  -21.0840  -55.2112 H         1 UNK         0.0600 
    227 H227       -2.5644  -22.7748  -55.5383 H         1 UNK         0.0600 
    228 H228       -1.9699  -21.2737  -54.8453 H         1 UNK         0.0600 
    229 H229       -2.1827  -22.6846  -53.8196 H         1 UNK         0.0600 
    230 H230       -6.2050  -20.8029  -53.3082 H         1 UNK         0.3000 
    231 H231       -5.3966  -20.1862  -50.6982 H         1 UNK         0.0600 
    232 H232       -7.5761  -18.9405  -50.5897 H         1 UNK         0.0600 
    233 H233       -7.7586  -20.5218  -51.3247 H         1 UNK         0.0600 
    234 H234       -7.7370  -19.0787  -52.3368 H         1 UNK         0.0600 
    235 H235       -5.1582  -18.2188  -53.5934 H         1 UNK         0.3000 
    236 H236       -4.6493  -15.6720  -52.4444 H         1 UNK         0.0600 
    237 H237       -5.2427  -16.0135  -54.8321 H         1 UNK         0.0600 
    238 H238       -3.7066  -15.1724  -54.7068 H         1 UNK         0.0600 
    239 H239       -3.7333  -16.8850  -55.1087 H         1 UNK         0.0600 
    240 H240       -2.6521  -18.5181  -52.4870 H         1 UNK         0.3000 
    241 H241       -0.2040  -16.9959  -51.8125 H         1 UNK         0.0600 
    242 H242       -2.0470  -18.3162  -48.5242 H         1 UNK         0.3800 
    243 H243       -2.9352  -18.0362  -50.0103 H         1 UNK         0.3800 
    244 H244       -0.7279  -19.7771  -52.8402 H         1 UNK         0.0800 
    245 H245        0.5259  -19.6685  -51.6615 H         1 UNK         0.0800 
    246 H246        2.7041  -20.1986  -53.2940 H         1 UNK         0.0800 
    247 H247        3.4840  -18.7219  -53.7963 H         1 UNK         0.0800 
@<TRIPOS>BOND
     1    1    2 1    
     2    1  127 1    
     3    1  128 1    
     4    1  129 1    
     5    2    3 2    
     6    2    4 am   BACKBONE|DICT|INTERRES
     7    4    5 1    
     8    4  130 1    
     9    5    6 1    
    10    5   65 1    
    11    5  131 1    
    12    6    7 1    
    13    6  132 1    
    14    6  133 1    
    15    7    8 1    
    16    8    9 1    
    17    8  134 1    
    18    8  135 1    
    19    9   10 ar   
    20    9   14 ar   
    21   10   11 ar   
    22   10  136 1    
    23   11   12 ar   
    24   11  126 1    
    25   12   13 ar   
    26   12  137 1    
    27   13   14 ar   
    28   13   15 1    
    29   14  138 1    
    30   15   16 1    
    31   15  139 1    
    32   15  140 1    
    33   16   17 1    
    34   17   18 1    
    35   17  141 1    
    36   17  142 1    
    37   18   19 1    
    38   18   67 1    
    39   18  143 1    
    40   19   20 am   BACKBONE|DICT|INTERRES
    41   19  144 1    
    42   20   21 2    
    43   20   22 1    
    44   22   23 1    
    45   22   24 1    
    46   22  145 1    
    47   23  146 1    
    48   23  147 1    
    49   23  148 1    
    50   24   25 am   BACKBONE|DICT|INTERRES
    51   24  149 1    
    52   25   26 2    
    53   25   27 1    
    54   27   28 1    
    55   27   29 1    
    56   27  150 1    
    57   28  151 1    
    58   28  152 1    
    59   28  153 1    
    60   29   30 am   BACKBONE|DICT|INTERRES
    61   29  154 1    
    62   30   31 2    
    63   30   32 1    
    64   32   33 1    
    65   32   34 1    
    66   32  155 1    
    67   33  156 1    
    68   33  157 1    
    69   33  158 1    
    70   34   35 am   BACKBONE|DICT|INTERRES
    71   34  159 1    
    72   35   36 2    
    73   35   37 1    
    74   37   38 1    
    75   37   39 1    
    76   37  160 1    
    77   38  161 1    
    78   38  162 1    
    79   38  163 1    
    80   39   40 am   BACKBONE|DICT|INTERRES
    81   39  164 1    
    82   40   41 2    
    83   40   42 1    
    84   42   43 1    
    85   42   44 1    
    86   42  165 1    
    87   43  166 1    
    88   43  167 1    
    89   43  168 1    
    90   44   45 am   BACKBONE|DICT|INTERRES
    91   44  169 1    
    92   45   46 2    
    93   45   47 1    
    94   47   48 1    
    95   47   49 1    
    96   47  170 1    
    97   48  171 1    
    98   48  172 1    
    99   48  173 1    
   100   49   50 am   BACKBONE|DICT|INTERRES
   101   49  174 1    
   102   50   51 2    
   103   50   52 1    
   104   52   53 1    
   105   52   54 1    
   106   52  175 1    
   107   53  176 1    
   108   53  177 1    
   109   53  178 1    
   110   54   55 am   BACKBONE|DICT|INTERRES
   111   54  179 1    
   112   55   56 2    
   113   55   57 1    
   114   57   58 1    
   115   57   59 1    
   116   57  180 1    
   117   58  181 1    
   118   58  182 1    
   119   58  183 1    
   120   59   60 am   BACKBONE|DICT|INTERRES
   121   59  184 1    
   122   60   61 2    
   123   60   62 1    
   124   62   63 1    
   125   62   64 1    
   126   62  185 1    
   127   63  186 1    
   128   63  187 1    
   129   63  188 1    
   130   64   65 am   BACKBONE|DICT|INTERRES
   131   64  189 1    
   132   65   66 2    
   133   67   68 2    
   134   67   69 am   BACKBONE|DICT|INTERRES
   135   69   70 1    
   136   69  190 1    
   137   70   71 1    
   138   70   72 1    
   139   70  191 1    
   140   71  192 1    
   141   71  193 1    
   142   71  194 1    
   143   72   73 2    
   144   72   74 am   BACKBONE|DICT|INTERRES
   145   74   75 1    
   146   74  195 1    
   147   75   76 1    
   148   75   77 1    
   149   75  196 1    
   150   76  197 1    
   151   76  198 1    
   152   76  199 1    
   153   77   78 2    
   154   77   79 am   BACKBONE|DICT|INTERRES
   155   79   80 1    
   156   79  200 1    
   157   80   81 1    
   158   80   82 1    
   159   80  201 1    
   160   81  202 1    
   161   81  203 1    
   162   81  204 1    
   163   82   83 2    
   164   82   84 am   BACKBONE|DICT|INTERRES
   165   84   85 1    
   166   84  205 1    
   167   85   86 1    
   168   85   87 1    
   169   85  206 1    
   170   86  207 1    
   171   86  208 1    
   172   86  209 1    
   173   87   88 2    
   174   87   89 am   BACKBONE|DICT|INTERRES
   175   89   90 1    
   176   89  210 1    
   177   90   91 1    
   178   90   92 1    
   179   90  211 1    
   180   91  212 1    
   181   91  213 1    
   182   91  214 1    
   183   92   93 2    
   184   92   94 am   BACKBONE|DICT|INTERRES
   185   94   95 1    
   186   94  215 1    
   187   95   96 1    
   188   95   97 1    
   189   95  216 1    
   190   96  217 1    
   191   96  218 1    
   192   96  219 1    
   193   97   98 2    
   194   97   99 am   BACKBONE|DICT|INTERRES
   195   99  100 1    
   196   99  220 1    
   197  100  101 1    
   198  100  102 1    
   199  100  221 1    
   200  101  222 1    
   201  101  223 1    
   202  101  224 1    
   203  102  103 2    
   204  102  104 am   BACKBONE|DICT|INTERRES
   205  104  105 1    
   206  104  225 1    
   207  105  106 1    
   208  105  107 1    
   209  105  226 1    
   210  106  227 1    
   211  106  228 1    
   212  106  229 1    
   213  107  108 2    
   214  107  109 am   BACKBONE|DICT|INTERRES
   215  109  110 1    
   216  109  230 1    
   217  110  111 1    
   218  110  112 1    
   219  110  231 1    
   220  111  232 1    
   221  111  233 1    
   222  111  234 1    
   223  112  113 2    
   224  112  114 am   BACKBONE|DICT|INTERRES
   225  114  115 1    
   226  114  235 1    
   227  115  116 1    
   228  115  117 1    
   229  115  236 1    
   230  116  237 1    
   231  116  238 1    
   232  116  239 1    
   233  117  118 2    
   234  117  119 am   BACKBONE|DICT|INTERRES
   235  119  120 1    
   236  119  240 1    
   237  120  121 1    
   238  120  124 1    
   239  120  241 1    
   240  121  122 am   BACKBONE|DICT|INTERRES
   241  121  123 2    
   242  122  242 1    
   243  122  243 1    
   244  124  125 1    
   245  124  244 1    
   246  124  245 1    
   247  125  126 1    
   248  126  246 1    
   249  126  247 1    
@<TRIPOS>SUBSTRUCTURE
     1 UNK         1 GROUP             0       ****    0 ROOT    
