@<TRIPOS>MOLECULE
3R540
247   249    1
SMALL
USER_CHARGES


@<TRIPOS>ATOM
      1 CA         -0.6624  -11.0433  -46.7756 C.3       0 UNK        -0.1800 
      2 C          -1.2185  -12.4595  -46.7816 C.2       0 UNK         0.5000 
      3 O          -2.3915  -12.6537  -46.4627 O.2       0 UNK        -0.5000 
      4 N          -0.3757  -13.4431  -47.1259 N.am      1 UNK        -0.5000 
      5 CA         -0.6702  -14.8795  -47.2296 C.3       1 UNK         0.1400 
      6 C6         -1.6499  -15.2404  -48.3818 C.3       23 UNK        -0.0398 
      7 S7         -1.0886  -14.6325  -50.0103 S.3       23 UNK        -0.2404 
      8 C8         -1.3061  -16.1077  -51.0691 C.3       23 UNK        -0.0205 
      9 C9         -0.2549  -17.2124  -50.9311 C.ar      23 UNK        -0.0193 
     10 C10        -0.3888  -18.3502  -51.7320 C.ar      23 UNK        -0.1150 
     11 C11         0.5397  -19.3928  -51.6629 C.ar      23 UNK        -0.0193 
     12 C12         1.6078  -19.3058  -50.7668 C.ar      23 UNK        -0.1150 
     13 C13         1.7555  -18.1792  -49.9540 C.ar      23 UNK        -0.0193 
     14 C14         0.8339  -17.1332  -50.0534 C.ar      23 UNK        -0.1150 
     15 C15         2.9108  -18.0811  -48.9672 C.3       23 UNK        -0.0205 
     16 S16         2.7422  -19.2312  -47.5628 S.3       23 UNK        -0.2404 
     17 C17         1.1211  -18.7795  -46.8491 C.3       23 UNK        -0.0398 
     18 CA          0.2141  -20.0223  -46.7201 C.3       11 UNK         0.1400 
     19 N           0.7385  -21.0062  -45.7614 N.am      11 UNK        -0.5000 
     20 C           0.2712  -22.2573  -45.6380 C.2       10 UNK         0.5000 
     21 O          -0.6420  -22.6984  -46.3375 O.2       10 UNK        -0.5000 
     22 CA          0.8440  -23.1299  -44.5047 C.3       10 UNK         0.1400 
     23 CB          0.8994  -24.6281  -44.8703 C.3       10 UNK        -0.1800 
     24 N           2.1171  -22.6484  -43.9603 N.am      10 UNK        -0.5000 
     25 C           3.3351  -22.7002  -44.5222 C.2       9 UNK         0.5000 
     26 O           3.5512  -23.1655  -45.6415 O.2       9 UNK        -0.5000 
     27 CA          4.5115  -22.1405  -43.6916 C.3       9 UNK         0.1400 
     28 CB          5.5083  -21.3597  -44.5673 C.3       9 UNK        -0.1800 
     29 N           4.0478  -21.2720  -42.6066 N.am      9 UNK        -0.5000 
     30 C           3.8259  -21.6531  -41.3403 C.2       8 UNK         0.5000 
     31 O           4.0618  -22.7867  -40.9222 O.2       8 UNK        -0.5000 
     32 CA          3.2090  -20.6123  -40.3802 C.3       8 UNK         0.1400 
     33 CB          4.2951  -20.0060  -39.4790 C.3       8 UNK        -0.1800 
     34 N           2.4979  -19.5246  -41.0563 N.am      8 UNK        -0.5000 
     35 C           1.3752  -19.6584  -41.7790 C.2       7 UNK         0.5000 
     36 O           0.7768  -20.7245  -41.9259 O.2       7 UNK        -0.5000 
     37 CA          0.8791  -18.4049  -42.5293 C.3       7 UNK         0.1400 
     38 CB         -0.1071  -17.6199  -41.6555 C.3       7 UNK        -0.1800 
     39 N           1.9533  -17.5078  -42.9655 N.am      7 UNK        -0.5000 
     40 C           3.0194  -17.8702  -43.6970 C.2       6 UNK         0.5000 
     41 O           3.1620  -19.0056  -44.1475 O.2       6 UNK        -0.5000 
     42 CA          4.1317  -16.8289  -43.9359 C.3       6 UNK         0.1400 
     43 CB          4.0558  -16.2915  -45.3728 C.3       6 UNK        -0.1800 
     44 N           4.1007  -15.6960  -43.0114 N.am      6 UNK        -0.5000 
     45 C           4.1942  -15.7474  -41.6738 C.2       5 UNK         0.5000 
     46 O           4.4187  -16.7806  -41.0421 O.2       5 UNK        -0.5000 
     47 CA          3.9250  -14.4275  -40.9179 C.3       5 UNK         0.1400 
     48 CB          5.2463  -13.7851  -40.4700 C.3       5 UNK        -0.1800 
     49 N           3.1571  -13.4500  -41.7030 N.am      5 UNK        -0.5000 
     50 C           1.9097  -13.6410  -42.1560 C.2       4 UNK         0.5000 
     51 O           1.2439  -14.6488  -41.9093 O.2       4 UNK        -0.5000 
     52 CA          1.3715  -12.5737  -43.1224 C.3       4 UNK         0.1400 
     53 CB          1.9997  -12.7589  -44.5139 C.3       4 UNK        -0.1800 
     54 N          -0.0787  -12.6702  -43.2575 N.am      4 UNK        -0.5000 
     55 C          -0.9648  -12.0633  -42.4590 C.2       3 UNK         0.5000 
     56 O          -0.6471  -11.3058  -41.5410 O.2       3 UNK        -0.5000 
     57 CA         -2.4576  -12.3247  -42.7383 C.3       3 UNK         0.1400 
     58 CB         -3.1144  -11.0829  -43.3620 C.3       3 UNK        -0.1800 
     59 N          -2.6764  -13.4681  -43.6273 N.am      3 UNK        -0.5000 
     60 C          -2.7845  -14.7386  -43.2140 C.2       2 UNK         0.5000 
     61 O          -2.7331  -15.0793  -42.0327 O.2       2 UNK        -0.5000 
     62 CA         -3.0006  -15.8107  -44.2986 C.3       2 UNK         0.1400 
     63 CB         -4.5048  -16.0632  -44.4931 C.3       2 UNK        -0.1800 
     64 N          -2.4142  -15.4417  -45.5854 N.am      2 UNK        -0.5000 
     65 C          -1.1038  -15.4566  -45.8649 C.2       1 UNK         0.5000 
     66 O          -0.2437  -15.8646  -45.0853 O.2       1 UNK        -0.5000 
     67 C          -1.2460  -19.6184  -46.4177 C.2       11 UNK         0.5000 
     68 O          -1.9570  -19.2150  -47.3364 O.2       11 UNK        -0.5000 
     69 N          -1.6887  -19.7806  -45.1609 N.am      12 UNK        -0.5000 
     70 CA         -3.0842  -19.6162  -44.7542 C.3       12 UNK         0.1400 
     71 CB         -3.1761  -19.5764  -43.2218 C.3       12 UNK        -0.1800 
     72 C          -3.9918  -20.7197  -45.3227 C.2       12 UNK         0.5000 
     73 O          -5.0750  -20.4202  -45.8246 O.2       12 UNK        -0.5000 
     74 N          -3.5144  -21.9713  -45.2703 N.am      13 UNK        -0.5000 
     75 CA         -4.1912  -23.1325  -45.8472 C.3       13 UNK         0.1400 
     76 CB         -3.5290  -24.4248  -45.3466 C.3       13 UNK        -0.1800 
     77 C          -4.2034  -23.0758  -47.3832 C.2       13 UNK         0.5000 
     78 O          -5.2202  -23.4044  -47.9926 O.2       13 UNK        -0.5000 
     79 N          -3.0955  -22.6087  -47.9769 N.am      14 UNK        -0.5000 
     80 CA         -2.9760  -22.3613  -49.4124 C.3       14 UNK         0.1400 
     81 CB         -1.5267  -22.0065  -49.7663 C.3       14 UNK        -0.1800 
     82 C          -3.9449  -21.2691  -49.8992 C.2       14 UNK         0.5000 
     83 O          -4.6091  -21.4677  -50.9149 O.2       14 UNK        -0.5000 
     84 N          -4.0521  -20.1633  -49.1472 N.am      15 UNK        -0.5000 
     85 CA         -5.0067  -19.0823  -49.3995 C.3       15 UNK         0.1400 
     86 CB         -4.7318  -17.9076  -48.4498 C.3       15 UNK        -0.1800 
     87 C          -6.4709  -19.5446  -49.2910 C.2       15 UNK         0.5000 
     88 O          -7.2754  -19.2012  -50.1570 O.2       15 UNK        -0.5000 
     89 N          -6.7805  -20.3584  -48.2705 N.am      16 UNK        -0.5000 
     90 CA         -8.0937  -20.9813  -48.0731 C.3       16 UNK         0.1400 
     91 CB         -8.1284  -21.6843  -46.7080 C.3       16 UNK        -0.1800 
     92 C          -8.4792  -21.9584  -49.2031 C.2       16 UNK         0.5000 
     93 O          -9.6526  -22.0342  -49.5682 O.2       16 UNK        -0.5000 
     94 N          -7.4804  -22.6526  -49.7643 N.am      17 UNK        -0.5000 
     95 CA         -7.6030  -23.5297  -50.9310 C.3       17 UNK         0.1400 
     96 CB         -6.4449  -24.5415  -50.9076 C.3       17 UNK        -0.1800 
     97 C          -7.6393  -22.7722  -52.2776 C.2       17 UNK         0.5000 
     98 O          -7.7688  -23.4179  -53.3184 O.2       17 UNK        -0.5000 
     99 N          -7.5136  -21.4360  -52.2449 N.am      18 UNK        -0.5000 
    100 CA        -7.4668  -20.5105  -53.3827 C.3       18 UNK         0.1400 
    101 CB        -8.7900  -20.5320  -54.1764 C.3       18 UNK        -0.1800 
    102 C         -6.2197  -20.6993  -54.2731 C.2       18 UNK         0.5000 
    103 O         -6.2824  -20.4622  -55.4811 O.2       18 UNK        -0.5000 
    104 N         -5.1057  -21.1129  -53.6521 N.am      19 UNK        -0.5000 
    105 CA        -3.7511  -21.3165  -54.1777 C.3       19 UNK         0.1400 
    106 CB        -3.1622  -19.9935  -54.6999 C.3       19 UNK        -0.1800 
    107 C         -3.5990  -22.4491  -55.2129 C.2       19 UNK         0.5000 
    108 O         -2.6177  -23.1904  -55.1434 O.2       19 UNK        -0.5000 
    109 N         -4.5476  -22.5720  -56.1500 N.am      20 UNK        -0.5000 
    110 CA        -4.5726  -23.5203  -57.2670 C.3       20 UNK         0.1400 
    111 CB        -4.8236  -24.9556  -56.7521 C.3       20 UNK        -0.1800 
    112 C         -3.3114  -23.3693  -58.1443 C.2       20 UNK         0.5000 
    113 O         -3.1341  -22.3146  -58.7563 O.2       20 UNK        -0.5000 
    114 N         -2.4358  -24.3844  -58.1549 N.am      21 UNK        -0.5000 
    115 CA        -1.1556  -24.3993  -58.8718 C.3       21 UNK         0.1400 
    116 CB        -0.5320  -25.7977  -58.7450 C.3       21 UNK        -0.1800 
    117 C         -0.1545  -23.3181  -58.4093 C.2       21 UNK         0.5000 
    118 O          0.7086  -22.9219  -59.1934 O.2       21 UNK        -0.5000 
    119 N         -0.2963  -22.8480  -57.1630 N.am      22 UNK        -0.5000 
    120 CA         0.4285  -21.6925  -56.6096 C.3       22 UNK         0.1400 
    121 C         -0.0998  -20.3204  -57.1446 C.2       22 UNK         0.5000 
    122 N         -1.2627  -20.2454  -57.7841 N.am      22 UNK        -0.7600 
    123 O          0.5773  -19.3037  -57.0255 O.2       22 UNK        -0.5000 
    124 C124        0.4717  -21.8111  -55.0592 C.3       23 UNK        -0.0398 
    125 S125        1.2658  -20.4619  -54.1174 S.3       23 UNK        -0.2404 
    126 C126        0.3676  -20.6190  -52.5422 C.3       23 UNK        -0.0205 
    127 H127       -1.3221  -10.3791  -47.3338 H         1 UNK         0.0600 
    128 H128       -0.5892  -10.6735  -45.7530 H         1 UNK         0.0600 
    129 H129        0.3281  -10.9952  -47.2285 H         1 UNK         0.0600 
    130 H130        0.5731  -13.1944  -47.3667 H         1 UNK         0.3000 
    131 H131        0.2847  -15.3548  -47.4555 H         1 UNK         0.0600 
    132 H132       -1.7668  -16.3240  -48.4312 H         1 UNK         0.0800 
    133 H133       -2.6439  -14.8270  -48.2070 H         1 UNK         0.0800 
    134 H134       -1.3062  -15.7703  -52.1065 H         1 UNK         0.0800 
    135 H135       -2.2956  -16.5298  -50.8860 H         1 UNK         0.0800 
    136 H136       -1.2192  -18.4225  -52.4207 H         1 UNK         0.1150 
    137 H137        2.3221  -20.1144  -50.6982 H         1 UNK         0.1150 
    138 H138        0.9773  -16.2612  -49.4363 H         1 UNK         0.1150 
    139 H139        3.8447  -18.2969  -49.4878 H         1 UNK         0.0800 
    140 H140        3.0067  -17.0653  -48.5805 H         1 UNK         0.0800 
    141 H141        0.6465  -18.0225  -47.4723 H         1 UNK         0.0800 
    142 H142        1.2677  -18.3044  -45.8808 H         1 UNK         0.0800 
    143 H143        0.1947  -20.5099  -47.6963 H         1 UNK         0.0600 
    144 H144        1.5171  -20.7114  -45.1873 H         1 UNK         0.3000 
    145 H145        0.1319  -23.0330  -43.6840 H         1 UNK         0.0600 
    146 H146        1.3129  -25.2197  -44.0536 H         1 UNK         0.0600 
    147 H147       -0.0982  -25.0169  -45.0765 H         1 UNK         0.0600 
    148 H148        1.5045  -24.8090  -45.7588 H         1 UNK         0.0600 
    149 H149        2.0446  -22.2070  -43.0520 H         1 UNK         0.3000 
    150 H150        5.0414  -22.9982  -43.2731 H         1 UNK         0.0600 
    151 H151        5.9786  -22.0144  -45.3018 H         1 UNK         0.0600 
    152 H152        6.3061  -20.9235  -43.9662 H         1 UNK         0.0600 
    153 H153        5.0219  -20.5536  -45.1169 H         1 UNK         0.0600 
    154 H154        3.7800  -20.3356  -42.8951 H         1 UNK         0.3000 
    155 H155        2.4915  -21.1379  -39.7469 H         1 UNK         0.0600 
    156 H156        5.0337  -19.4513  -40.0593 H         1 UNK         0.0600 
    157 H157        4.8259  -20.7829  -38.9271 H         1 UNK         0.0600 
    158 H158        3.8646  -19.3237  -38.7459 H         1 UNK         0.0600 
    159 H159        2.9381  -18.6135  -41.0191 H         1 UNK         0.3000 
    160 H160        0.3537  -18.7414  -43.4235 H         1 UNK         0.0600 
    161 H161       -0.5769  -16.8177  -42.2240 H         1 UNK         0.0600 
    162 H162        0.3898  -17.1705  -40.7949 H         1 UNK         0.0600 
    163 H163       -0.9013  -18.2622  -41.2743 H         1 UNK         0.0600 
    164 H164        1.8780  -16.5455  -42.6547 H         1 UNK         0.3000 
    165 H165        5.0887  -17.3373  -43.8042 H         1 UNK         0.0600 
    166 H166        4.8365  -15.5553  -45.5648 H         1 UNK         0.0600 
    167 H167        4.1917  -17.0970  -46.0942 H         1 UNK         0.0600 
    168 H168        3.0915  -15.8247  -45.5787 H         1 UNK         0.0600 
    169 H169        3.9193  -14.7949  -43.4255 H         1 UNK         0.3000 
    170 H170        3.3427  -14.6754  -40.0282 H         1 UNK         0.0600 
    171 H171        5.8299  -14.4765  -39.8605 H         1 UNK         0.0600 
    172 H172        5.8634  -13.4974  -41.3221 H         1 UNK         0.0600 
    173 H173        5.0680  -12.8946  -39.8670 H         1 UNK         0.0600 
    174 H174        3.6428  -12.5998  -41.9519 H         1 UNK         0.3000 
    175 H175        1.6430  -11.5866  -42.7421 H         1 UNK         0.0600 
    176 H176        1.6584  -11.9876  -45.2032 H         1 UNK         0.0600 
    177 H177        3.0872  -12.6886  -44.4729 H         1 UNK         0.0600 
    178 H178        1.7483  -13.7298  -44.9431 H         1 UNK         0.0600 
    179 H179       -0.4229  -13.3552  -43.9134 H         1 UNK         0.3000 
    180 H180       -2.9417  -12.5133  -41.7778 H         1 UNK         0.0600 
    181 H181       -2.6672  -10.8278  -44.3228 H         1 UNK         0.0600 
    182 H182       -3.0086  -10.2146  -42.7103 H         1 UNK         0.0600 
    183 H183       -4.1813  -11.2401  -43.5212 H         1 UNK         0.0600 
    184 H184       -2.7279  -13.2645  -44.6215 H         1 UNK         0.3000 
    185 H185       -2.5260  -16.7313  -43.9584 H         1 UNK         0.0600 
    186 H186       -5.0370  -15.1435  -44.7399 H         1 UNK         0.0600 
    187 H187       -4.6971  -16.7759  -45.2941 H         1 UNK         0.0600 
    188 H188       -4.9514  -16.4660  -43.5831 H         1 UNK         0.0600 
    189 H189       -3.0408  -15.0141  -46.2525 H         1 UNK         0.3000 
    190 H190       -1.0486  -20.1347  -44.4667 H         1 UNK         0.3000 
    191 H191       -3.4402  -18.6658  -45.1500 H         1 UNK         0.0600 
    192 H192       -2.7974  -20.4931  -42.7680 H         1 UNK         0.0600 
    193 H193       -4.2099  -19.4510  -42.8968 H         1 UNK         0.0600 
    194 H194       -2.6084  -18.7435  -42.8121 H         1 UNK         0.0600 
    195 H195       -2.5942  -22.1300  -44.8896 H         1 UNK         0.3000 
    196 H196       -5.2275  -23.1278  -45.5030 H         1 UNK         0.0600 
    197 H197       -4.0567  -25.3013  -45.7245 H         1 UNK         0.0600 
    198 H198       -3.5442  -24.4808  -44.2581 H         1 UNK         0.0600 
    199 H199       -2.4922  -24.5035  -45.6731 H         1 UNK         0.0600 
    200 H200       -2.2774  -22.4268  -47.4036 H         1 UNK         0.3000 
    201 H201       -3.2304  -23.2909  -49.9257 H         1 UNK         0.0600 
    202 H202       -0.8207  -22.7108  -49.3256 H         1 UNK         0.0600 
    203 H203       -1.2586  -21.0036  -49.4344 H         1 UNK         0.0600 
    204 H204       -1.3896  -22.0425  -50.8456 H         1 UNK         0.0600 
    205 H205       -3.4287  -20.0390  -48.3558 H         1 UNK         0.3000 
    206 H206       -4.8465  -18.7331  -50.4218 H         1 UNK         0.0600 
    207 H207       -3.7305  -17.5109  -48.6048 H         1 UNK         0.0600 
    208 H208       -5.4348  -17.0913  -48.6198 H         1 UNK         0.0600 
    209 H209       -4.8161  -18.2042  -47.4045 H         1 UNK         0.0600 
    210 H210       -6.0725  -20.5561  -47.5701 H         1 UNK         0.3000 
    211 H211       -8.8388  -20.1832  -48.0611 H         1 UNK         0.0600 
    212 H212       -7.3984  -22.4914  -46.6516 H         1 UNK         0.0600 
    213 H213       -9.1111  -22.1169  -46.5167 H         1 UNK         0.0600 
    214 H214       -7.9172  -20.9851  -45.8986 H         1 UNK         0.0600 
    215 H215       -6.5547  -22.5791  -49.3560 H         1 UNK         0.3000 
    216 H216       -8.5385  -24.0868  -50.8504 H         1 UNK         0.0600 
    217 H217       -6.5309  -25.2588  -51.7246 H         1 UNK         0.0600 
    218 H218       -6.4373  -25.1103  -49.9776 H         1 UNK         0.0600 
    219 H219       -5.4779  -24.0480  -51.0050 H         1 UNK         0.0600 
    220 H220       -7.3973  -20.9982  -51.3389 H         1 UNK         0.3000 
    221 H221       -7.3683  -19.5147  -52.9488 H         1 UNK         0.0600 
    222 H222       -8.9272  -21.4699  -54.7150 H         1 UNK         0.0600 
    223 H223       -9.6471  -20.3939  -53.5173 H         1 UNK         0.0600 
    224 H224       -8.8161  -19.7280  -54.9128 H         1 UNK         0.0600 
    225 H225       -5.1762  -21.2915  -52.6517 H         1 UNK         0.3000 
    226 H226       -3.1548  -21.6138  -53.3137 H         1 UNK         0.0600 
    227 H227       -3.6688  -19.6505  -55.6025 H         1 UNK         0.0600 
    228 H228       -2.1061  -20.1031  -54.9418 H         1 UNK         0.0600 
    229 H229       -3.2392  -19.2053  -53.9511 H         1 UNK         0.0600 
    230 H230       -5.2921  -21.8786  -56.1328 H         1 UNK         0.3000 
    231 H231       -5.4194  -23.2403  -57.8950 H         1 UNK         0.0600 
    232 H232       -5.7636  -25.0084  -56.2024 H         1 UNK         0.0600 
    233 H233       -4.0358  -25.3034  -56.0833 H         1 UNK         0.0600 
    234 H234       -4.8972  -25.6629  -57.5791 H         1 UNK         0.0600 
    235 H235       -2.6450  -25.1975  -57.5940 H         1 UNK         0.3000 
    236 H236       -1.3667  -24.2136  -59.9268 H         1 UNK         0.0600 
    237 H237        0.4098  -25.8573  -59.2922 H         1 UNK         0.0600 
    238 H238       -0.3240  -26.0518  -57.7049 H         1 UNK         0.0600 
    239 H239       -1.1918  -26.5633  -59.1535 H         1 UNK         0.0600 
    240 H240       -1.0481  -23.2153  -56.5903 H         1 UNK         0.3000 
    241 H241        1.4618  -21.7581  -56.9553 H         1 UNK         0.0600 
    242 H242       -1.5636  -19.3513  -58.1372 H         1 UNK         0.3800 
    243 H243       -1.8213  -21.0679  -57.9841 H         1 UNK         0.3800 
    244 H244       -0.5438  -21.9130  -54.6868 H         1 UNK         0.0800 
    245 H245        0.9760  -22.7387  -54.7846 H         1 UNK         0.0800 
    246 H246       -0.6950  -20.7681  -52.7371 H         1 UNK         0.0800 
    247 H247        0.7163  -21.5106  -52.0188 H         1 UNK         0.0800 
@<TRIPOS>BOND
     1    1    2 1    
     2    1  127 1    
     3    1  128 1    
     4    1  129 1    
     5    2    3 2    
     6    2    4 am   BACKBONE|DICT|INTERRES
     7    4    5 1    
     8    4  130 1    
     9    5    6 1    
    10    5   65 1    
    11    5  131 1    
    12    6    7 1    
    13    6  132 1    
    14    6  133 1    
    15    7    8 1    
    16    8    9 1    
    17    8  134 1    
    18    8  135 1    
    19    9   10 ar   
    20    9   14 ar   
    21   10   11 ar   
    22   10  136 1    
    23   11   12 ar   
    24   11  126 1    
    25   12   13 ar   
    26   12  137 1    
    27   13   14 ar   
    28   13   15 1    
    29   14  138 1    
    30   15   16 1    
    31   15  139 1    
    32   15  140 1    
    33   16   17 1    
    34   17   18 1    
    35   17  141 1    
    36   17  142 1    
    37   18   19 1    
    38   18   67 1    
    39   18  143 1    
    40   19   20 am   BACKBONE|DICT|INTERRES
    41   19  144 1    
    42   20   21 2    
    43   20   22 1    
    44   22   23 1    
    45   22   24 1    
    46   22  145 1    
    47   23  146 1    
    48   23  147 1    
    49   23  148 1    
    50   24   25 am   BACKBONE|DICT|INTERRES
    51   24  149 1    
    52   25   26 2    
    53   25   27 1    
    54   27   28 1    
    55   27   29 1    
    56   27  150 1    
    57   28  151 1    
    58   28  152 1    
    59   28  153 1    
    60   29   30 am   BACKBONE|DICT|INTERRES
    61   29  154 1    
    62   30   31 2    
    63   30   32 1    
    64   32   33 1    
    65   32   34 1    
    66   32  155 1    
    67   33  156 1    
    68   33  157 1    
    69   33  158 1    
    70   34   35 am   BACKBONE|DICT|INTERRES
    71   34  159 1    
    72   35   36 2    
    73   35   37 1    
    74   37   38 1    
    75   37   39 1    
    76   37  160 1    
    77   38  161 1    
    78   38  162 1    
    79   38  163 1    
    80   39   40 am   BACKBONE|DICT|INTERRES
    81   39  164 1    
    82   40   41 2    
    83   40   42 1    
    84   42   43 1    
    85   42   44 1    
    86   42  165 1    
    87   43  166 1    
    88   43  167 1    
    89   43  168 1    
    90   44   45 am   BACKBONE|DICT|INTERRES
    91   44  169 1    
    92   45   46 2    
    93   45   47 1    
    94   47   48 1    
    95   47   49 1    
    96   47  170 1    
    97   48  171 1    
    98   48  172 1    
    99   48  173 1    
   100   49   50 am   BACKBONE|DICT|INTERRES
   101   49  174 1    
   102   50   51 2    
   103   50   52 1    
   104   52   53 1    
   105   52   54 1    
   106   52  175 1    
   107   53  176 1    
   108   53  177 1    
   109   53  178 1    
   110   54   55 am   BACKBONE|DICT|INTERRES
   111   54  179 1    
   112   55   56 2    
   113   55   57 1    
   114   57   58 1    
   115   57   59 1    
   116   57  180 1    
   117   58  181 1    
   118   58  182 1    
   119   58  183 1    
   120   59   60 am   BACKBONE|DICT|INTERRES
   121   59  184 1    
   122   60   61 2    
   123   60   62 1    
   124   62   63 1    
   125   62   64 1    
   126   62  185 1    
   127   63  186 1    
   128   63  187 1    
   129   63  188 1    
   130   64   65 am   BACKBONE|DICT|INTERRES
   131   64  189 1    
   132   65   66 2    
   133   67   68 2    
   134   67   69 am   BACKBONE|DICT|INTERRES
   135   69   70 1    
   136   69  190 1    
   137   70   71 1    
   138   70   72 1    
   139   70  191 1    
   140   71  192 1    
   141   71  193 1    
   142   71  194 1    
   143   72   73 2    
   144   72   74 am   BACKBONE|DICT|INTERRES
   145   74   75 1    
   146   74  195 1    
   147   75   76 1    
   148   75   77 1    
   149   75  196 1    
   150   76  197 1    
   151   76  198 1    
   152   76  199 1    
   153   77   78 2    
   154   77   79 am   BACKBONE|DICT|INTERRES
   155   79   80 1    
   156   79  200 1    
   157   80   81 1    
   158   80   82 1    
   159   80  201 1    
   160   81  202 1    
   161   81  203 1    
   162   81  204 1    
   163   82   83 2    
   164   82   84 am   BACKBONE|DICT|INTERRES
   165   84   85 1    
   166   84  205 1    
   167   85   86 1    
   168   85   87 1    
   169   85  206 1    
   170   86  207 1    
   171   86  208 1    
   172   86  209 1    
   173   87   88 2    
   174   87   89 am   BACKBONE|DICT|INTERRES
   175   89   90 1    
   176   89  210 1    
   177   90   91 1    
   178   90   92 1    
   179   90  211 1    
   180   91  212 1    
   181   91  213 1    
   182   91  214 1    
   183   92   93 2    
   184   92   94 am   BACKBONE|DICT|INTERRES
   185   94   95 1    
   186   94  215 1    
   187   95   96 1    
   188   95   97 1    
   189   95  216 1    
   190   96  217 1    
   191   96  218 1    
   192   96  219 1    
   193   97   98 2    
   194   97   99 am   BACKBONE|DICT|INTERRES
   195   99  100 1    
   196   99  220 1    
   197  100  101 1    
   198  100  102 1    
   199  100  221 1    
   200  101  222 1    
   201  101  223 1    
   202  101  224 1    
   203  102  103 2    
   204  102  104 am   BACKBONE|DICT|INTERRES
   205  104  105 1    
   206  104  225 1    
   207  105  106 1    
   208  105  107 1    
   209  105  226 1    
   210  106  227 1    
   211  106  228 1    
   212  106  229 1    
   213  107  108 2    
   214  107  109 am   BACKBONE|DICT|INTERRES
   215  109  110 1    
   216  109  230 1    
   217  110  111 1    
   218  110  112 1    
   219  110  231 1    
   220  111  232 1    
   221  111  233 1    
   222  111  234 1    
   223  112  113 2    
   224  112  114 am   BACKBONE|DICT|INTERRES
   225  114  115 1    
   226  114  235 1    
   227  115  116 1    
   228  115  117 1    
   229  115  236 1    
   230  116  237 1    
   231  116  238 1    
   232  116  239 1    
   233  117  118 2    
   234  117  119 am   BACKBONE|DICT|INTERRES
   235  119  120 1    
   236  119  240 1    
   237  120  121 1    
   238  120  124 1    
   239  120  241 1    
   240  121  122 am   BACKBONE|DICT|INTERRES
   241  121  123 2    
   242  122  242 1    
   243  122  243 1    
   244  124  125 1    
   245  124  244 1    
   246  124  245 1    
   247  125  126 1    
   248  126  246 1    
   249  126  247 1    
@<TRIPOS>SUBSTRUCTURE
     1 UNK         1 GROUP             0       ****    0 ROOT    
