@<TRIPOS>MOLECULE
3R540
247   249    1
SMALL
USER_CHARGES


@<TRIPOS>ATOM
      1 CA         -2.8611  -15.2056  -44.7977 C.3       0 UNK        -0.1800 
      2 C          -2.2262  -14.2646  -45.8111 C.2       0 UNK         0.5000 
      3 O          -2.7777  -13.1962  -46.0771 O.2       0 UNK        -0.5000 
      4 N          -1.0695  -14.6511  -46.3666 N.am      1 UNK        -0.5000 
      5 CA         -0.2527  -13.8863  -47.3173 C.3       1 UNK         0.1400 
      6 C6          1.0032  -14.6756  -47.7642 C.3       23 UNK        -0.0398 
      7 S7          0.6212  -16.2416  -48.6143 S.3       23 UNK        -0.2404 
      8 C8          2.2962  -16.6795  -49.1723 C.3       23 UNK        -0.0205 
      9 C9          2.2846  -17.8769  -50.1073 C.ar      23 UNK        -0.0193 
     10 C10         2.0338  -17.6964  -51.4705 C.ar      23 UNK        -0.1150 
     11 C11         2.0449  -18.7866  -52.3447 C.ar      23 UNK        -0.0193 
     12 C12         2.3176  -20.0629  -51.8484 C.ar      23 UNK        -0.1150 
     13 C13         2.5442  -20.2603  -50.4826 C.ar      23 UNK        -0.0193 
     14 C14         2.5357  -19.1614  -49.6172 C.ar      23 UNK        -0.1150 
     15 C15         2.7415  -21.6659  -49.9306 C.3       23 UNK        -0.0205 
     16 S16         1.3734  -22.8005  -50.3593 S.3       23 UNK        -0.2404 
     17 C17        -0.1221  -21.8189  -49.9808 C.3       23 UNK        -0.0398 
     18 CA         -0.7942  -22.2240  -48.6549 C.3       11 UNK         0.1400 
     19 N           0.0887  -22.0622  -47.4978 N.am      11 UNK        -0.5000 
     20 C          -0.1628  -22.5676  -46.2837 C.2       10 UNK         0.5000 
     21 O          -1.1745  -23.2115  -46.0086 O.2       10 UNK        -0.5000 
     22 CA          0.8607  -22.2523  -45.1807 C.3       10 UNK         0.1400 
     23 CB          2.0287  -23.2478  -45.2204 C.3       10 UNK        -0.1800 
     24 N           1.3854  -20.8863  -45.2464 N.am      10 UNK        -0.5000 
     25 C           0.6461  -19.7751  -45.1421 C.2       9 UNK         0.5000 
     26 O          -0.5826  -19.7857  -45.0439 O.2       9 UNK        -0.5000 
     27 CA          1.4165  -18.4411  -45.1427 C.3       9 UNK         0.1400 
     28 CB          0.4971  -17.2323  -44.9177 C.3       9 UNK        -0.1800 
     29 N           2.4551  -18.4224  -44.1169 N.am      9 UNK        -0.5000 
     30 C           3.7024  -18.8858  -44.2590 C.2       8 UNK         0.5000 
     31 O           4.1064  -19.4477  -45.2775 O.2       8 UNK        -0.5000 
     32 CA          4.6334  -18.7232  -43.0486 C.3       8 UNK         0.1400 
     33 CB          4.9806  -17.2424  -42.8203 C.3       8 UNK        -0.1800 
     34 N           3.9910  -19.2571  -41.8505 N.am      8 UNK        -0.5000 
     35 C           4.2837  -20.4343  -41.2810 C.2       7 UNK         0.5000 
     36 O           5.1940  -21.1728  -41.6587 O.2       7 UNK        -0.5000 
     37 CA          3.4058  -20.8702  -40.0891 C.3       7 UNK         0.1400 
     38 CB          4.0473  -20.4366  -38.7622 C.3       7 UNK        -0.1800 
     39 N           2.0447  -20.3359  -40.1551 N.am      7 UNK        -0.5000 
     40 C           1.1386  -20.6676  -41.0853 C.2       6 UNK         0.5000 
     41 O           1.3162  -21.5578  -41.9148 O.2       6 UNK        -0.5000 
     42 CA         -0.1775  -19.8627  -41.1108 C.3       6 UNK         0.1400 
     43 CB         -1.3186  -20.6980  -40.5106 C.3       6 UNK        -0.1800 
     44 N          -0.1270  -18.5701  -40.4157 N.am      6 UNK        -0.5000 
     45 C           0.6802  -17.5434  -40.7141 C.2       5 UNK         0.5000 
     46 O           1.5530  -17.5849  -41.5854 O.2       5 UNK        -0.5000 
     47 CA          0.5313  -16.2915  -39.8311 C.3       5 UNK         0.1400 
     48 CB          1.3762  -16.4447  -38.5565 C.3       5 UNK        -0.1800 
     49 N           0.9406  -15.0675  -40.5186 N.am      5 UNK        -0.5000 
     50 C           0.3085  -14.5297  -41.5684 C.2       4 UNK         0.5000 
     51 O          -0.7148  -15.0014  -42.0717 O.2       4 UNK        -0.5000 
     52 CA          0.9498  -13.2570  -42.1556 C.3       4 UNK         0.1400 
     53 CB          2.1214  -13.6317  -43.0761 C.3       4 UNK        -0.1800 
     54 N          -0.0181  -12.4436  -42.8971 N.am      4 UNK        -0.5000 
     55 C          -1.0296  -11.7707  -42.3256 C.2       3 UNK         0.5000 
     56 O          -1.1628  -11.6740  -41.1037 O.2       3 UNK        -0.5000 
     57 CA         -2.0860  -11.1260  -43.2523 C.3       3 UNK         0.1400 
     58 CB         -2.7211   -9.8547  -42.6496 C.3       3 UNK        -0.1800 
     59 N          -1.6250  -10.8925  -44.6238 N.am      3 UNK        -0.5000 
     60 C          -0.6833  -10.0329  -45.0434 C.2       2 UNK         0.5000 
     61 O          -0.0914   -9.2463  -44.3026 O.2       2 UNK        -0.5000 
     62 CA         -0.3388  -10.0906  -46.5519 C.3       2 UNK         0.1400 
     63 CB          1.0488   -9.4967  -46.8733 C.3       2 UNK        -0.1800 
     64 N          -0.4680  -11.4414  -47.1200 N.am      2 UNK        -0.5000 
     65 C           0.1698  -12.5416  -46.6940 C.2       1 UNK         0.5000 
     66 O           1.0096  -12.5386  -45.7947 O.2       1 UNK        -0.5000 
     67 C          -2.1101  -21.4434  -48.4905 C.2       11 UNK         0.5000 
     68 O          -3.1506  -21.9313  -48.9263 O.2       11 UNK        -0.5000 
     69 N          -2.0601  -20.2633  -47.8572 N.am      12 UNK        -0.5000 
     70 CA         -3.2433  -19.4483  -47.5750 C.3       12 UNK         0.1400 
     71 CB         -2.8127  -18.0421  -47.1365 C.3       12 UNK        -0.1800 
     72 C          -4.1518  -20.0965  -46.5149 C.2       12 UNK         0.5000 
     73 O          -5.3688  -19.9278  -46.5751 O.2       12 UNK        -0.5000 
     74 N          -3.5457  -20.8402  -45.5815 N.am      13 UNK        -0.5000 
     75 CA         -4.2429  -21.6063  -44.5564 C.3       13 UNK         0.1400 
     76 CB         -3.2886  -21.8512  -43.3772 C.3       13 UNK        -0.1800 
     77 C          -4.8094  -22.9291  -45.1048 C.2       13 UNK         0.5000 
     78 O          -6.0045  -23.1844  -44.9534 O.2       13 UNK        -0.5000 
     79 N          -3.9440  -23.7581  -45.7048 N.am      14 UNK        -0.5000 
     80 CA         -4.2599  -25.1428  -46.0623 C.3       14 UNK         0.1400 
     81 CB         -2.9677  -25.9741  -46.0310 C.3       14 UNK        -0.1800 
     82 C          -4.9493  -25.2965  -47.4282 C.2       14 UNK         0.5000 
     83 O          -5.8166  -26.1597  -47.5684 O.2       14 UNK        -0.5000 
     84 N          -4.5376  -24.4894  -48.4129 N.am      15 UNK        -0.5000 
     85 CA         -4.9550  -24.6001  -49.8149 C.3       15 UNK         0.1400 
     86 CB         -3.6854  -24.7119  -50.6824 C.3       15 UNK        -0.1800 
     87 C          -5.8305  -23.4176  -50.2695 C.2       15 UNK         0.5000 
     88 O          -6.2060  -23.3639  -51.4439 O.2       15 UNK        -0.5000 
     89 N          -6.0841  -22.4613  -49.3597 N.am      16 UNK        -0.5000 
     90 CA         -6.7568  -21.1690  -49.5658 C.3       16 UNK         0.1400 
     91 CB         -8.2410  -21.3913  -49.9232 C.3       16 UNK        -0.1800 
     92 C          -6.0456  -20.2548  -50.5920 C.2       16 UNK         0.5000 
     93 O          -6.6650  -19.3287  -51.1153 O.2       16 UNK        -0.5000 
     94 N          -4.7838  -20.5842  -50.9155 N.am      17 UNK        -0.5000 
     95 CA         -3.9737  -20.1357  -52.0569 C.3       17 UNK         0.1400 
     96 CB         -3.6473  -18.6356  -51.9442 C.3       17 UNK        -0.1800 
     97 C          -4.5628  -20.5036  -53.4438 C.2       17 UNK         0.5000 
     98 O          -3.9625  -20.1717  -54.4686 O.2       17 UNK        -0.5000 
     99 N          -5.7099  -21.1939  -53.4656 N.am      18 UNK        -0.5000 
    100 CA        -6.4780  -21.5438  -54.6540 C.3       18 UNK         0.1400 
    101 CB        -7.9682  -21.6216  -54.2872 C.3       18 UNK        -0.1800 
    102 C         -5.9887  -22.8695  -55.2432 C.2       18 UNK         0.5000 
    103 O         -5.6999  -22.9293  -56.4377 O.2       18 UNK        -0.5000 
    104 N         -5.8369  -23.8925  -54.3886 N.am      19 UNK        -0.5000 
    105 CA        -5.2748  -25.1913  -54.7756 C.3       19 UNK         0.1400 
    106 CB        -5.6852  -26.2636  -53.7541 C.3       19 UNK        -0.1800 
    107 C         -3.7458  -25.1360  -54.9785 C.2       19 UNK         0.5000 
    108 O         -3.1952  -25.9834  -55.6814 O.2       19 UNK        -0.5000 
    109 N         -3.0987  -24.1120  -54.4022 N.am      20 UNK        -0.5000 
    110 CA        -1.7021  -23.7493  -54.6567 C.3       20 UNK         0.1400 
    111 CB        -1.1717  -22.9525  -53.4567 C.3       20 UNK        -0.1800 
    112 C         -1.5252  -22.9429  -55.9616 C.2       20 UNK         0.5000 
    113 O         -0.3950  -22.8049  -56.4301 O.2       20 UNK        -0.5000 
    114 N         -2.6376  -22.4408  -56.5215 N.am      21 UNK        -0.5000 
    115 CA        -2.7567  -21.6844  -57.7690 C.3       21 UNK         0.1400 
    116 CB        -2.4313  -22.5854  -58.9789 C.3       21 UNK        -0.1800 
    117 C         -1.9637  -20.3620  -57.7613 C.2       21 UNK         0.5000 
    118 O         -1.2556  -20.0635  -58.7261 O.2       21 UNK        -0.5000 
    119 N         -2.1041  -19.5849  -56.6804 N.am      22 UNK        -0.5000 
    120 CA        -1.4686  -18.2648  -56.5315 C.3       22 UNK         0.1400 
    121 C         -2.3540  -17.1798  -55.8546 C.2       22 UNK         0.5000 
    122 N         -3.5317  -17.4988  -55.3337 N.am      22 UNK        -0.7600 
    123 O         -1.9817  -16.0095  -55.8374 O.2       22 UNK        -0.5000 
    124 C124       -0.0417  -18.3579  -55.9324 C.3       23 UNK        -0.0398 
    125 S125        0.0159  -18.9609  -54.2102 S.3       23 UNK        -0.2404 
    126 C126        1.7540  -18.5880  -53.8221 C.3       23 UNK        -0.0205 
    127 H127       -2.2309  -16.0699  -44.5907 H         1 UNK         0.0600 
    128 H128       -3.8227  -15.5625  -45.1659 H         1 UNK         0.0600 
    129 H129       -3.0277  -14.6815  -43.8566 H         1 UNK         0.0600 
    130 H130       -0.6751  -15.5381  -46.0941 H         1 UNK         0.3000 
    131 H131       -0.8651  -13.6877  -48.1992 H         1 UNK         0.0600 
    132 H132        1.6458  -14.9001  -46.9105 H         1 UNK         0.0800 
    133 H133        1.6012  -14.0639  -48.4426 H         1 UNK         0.0800 
    134 H134        2.9247  -16.8821  -48.3035 H         1 UNK         0.0800 
    135 H135        2.7463  -15.8280  -49.6851 H         1 UNK         0.0800 
    136 H136        1.8249  -16.7055  -51.8492 H         1 UNK         0.1150 
    137 H137        2.3135  -20.9102  -52.5200 H         1 UNK         0.1150 
    138 H138        2.7151  -19.3036  -48.5606 H         1 UNK         0.1150 
    139 H139        3.6733  -22.0731  -50.3248 H         1 UNK         0.0800 
    140 H140        2.8528  -21.6447  -48.8457 H         1 UNK         0.0800 
    141 H141       -0.8155  -21.9700  -50.8081 H         1 UNK         0.0800 
    142 H142        0.0928  -20.7510  -49.9834 H         1 UNK         0.0800 
    143 H143       -1.0569  -23.2823  -48.7232 H         1 UNK         0.0600 
    144 H144        0.9413  -21.5440  -47.6413 H         1 UNK         0.3000 
    145 H145        0.3458  -22.3656  -44.2252 H         1 UNK         0.0600 
    146 H146        2.7048  -23.0911  -44.3794 H         1 UNK         0.0600 
    147 H147        1.6682  -24.2756  -45.1592 H         1 UNK         0.0600 
    148 H148        2.6077  -23.1553  -46.1402 H         1 UNK         0.0600 
    149 H149        2.3908  -20.7807  -45.3075 H         1 UNK         0.3000 
    150 H150        1.8760  -18.3297  -46.1271 H         1 UNK         0.0600 
    151 H151       -0.2470  -17.1754  -45.7091 H         1 UNK         0.0600 
    152 H152        1.0620  -16.3011  -44.9264 H         1 UNK         0.0600 
    153 H153       -0.0305  -17.2950  -43.9647 H         1 UNK         0.0600 
    154 H154        2.1784  -18.0276  -43.2202 H         1 UNK         0.3000 
    155 H155        5.5611  -19.2584  -43.2618 H         1 UNK         0.0600 
    156 H156        5.4410  -16.8077  -43.7084 H         1 UNK         0.0600 
    157 H157        5.6880  -17.1292  -41.9988 H         1 UNK         0.0600 
    158 H158        4.0977  -16.6474  -42.5826 H         1 UNK         0.0600 
    159 H159        3.1948  -18.7343  -41.5025 H         1 UNK         0.3000 
    160 H160        3.3450  -21.9605  -40.1025 H         1 UNK         0.0600 
    161 H161        4.1159  -19.3507  -38.6840 H         1 UNK         0.0600 
    162 H162        5.0575  -20.8371  -38.6677 H         1 UNK         0.0600 
    163 H163        3.4740  -20.7999  -37.9091 H         1 UNK         0.0600 
    164 H164        1.8095  -19.6071  -39.4987 H         1 UNK         0.3000 
    165 H165       -0.4114  -19.6638  -42.1586 H         1 UNK         0.0600 
    166 H166       -2.2779  -20.1908  -40.6148 H         1 UNK         0.0600 
    167 H167       -1.4055  -21.6622  -41.0135 H         1 UNK         0.0600 
    168 H168       -1.1562  -20.8963  -39.4504 H         1 UNK         0.0600 
    169 H169       -0.7922  -18.4534  -39.6647 H         1 UNK         0.3000 
    170 H170       -0.5184  -16.1860  -39.5491 H         1 UNK         0.0600 
    171 H171        1.0758  -17.3253  -37.9873 H         1 UNK         0.0600 
    172 H172        2.4374  -16.5496  -38.7871 H         1 UNK         0.0600 
    173 H173        1.2594  -15.5826  -37.8995 H         1 UNK         0.0600 
    174 H174        1.7945  -14.6397  -40.1925 H         1 UNK         0.3000 
    175 H175        1.3382  -12.6537  -41.3324 H         1 UNK         0.0600 
    176 H176        2.8884  -14.1854  -42.5333 H         1 UNK         0.0600 
    177 H177        1.7946  -14.2586  -43.9056 H         1 UNK         0.0600 
    178 H178        2.5967  -12.7435  -43.4928 H         1 UNK         0.0600 
    179 H179        0.0583  -12.4671  -43.9069 H         1 UNK         0.3000 
    180 H180       -2.8806  -11.8683  -43.3400 H         1 UNK         0.0600 
    181 H181       -1.9756   -9.0876  -42.4394 H         1 UNK         0.0600 
    182 H182       -3.2291  -10.0786  -41.7109 H         1 UNK         0.0600 
    183 H183       -3.4639   -9.4269  -43.3229 H         1 UNK         0.0600 
    184 H184       -2.0295  -11.5192  -45.3144 H         1 UNK         0.3000 
    185 H185       -1.0853   -9.4738  -47.0542 H         1 UNK         0.0600 
    186 H186        1.1030   -8.4476  -46.5804 H         1 UNK         0.0600 
    187 H187        1.8468  -10.0234  -46.3491 H         1 UNK         0.0600 
    188 H188        1.2604   -9.5447  -47.9414 H         1 UNK         0.0600 
    189 H189       -1.1824  -11.5468  -47.8276 H         1 UNK         0.3000 
    190 H190       -1.1833  -19.9422  -47.4742 H         1 UNK         0.3000 
    191 H191       -3.8185  -19.3510  -48.4975 H         1 UNK         0.0600 
    192 H192       -2.3196  -18.0623  -46.1657 H         1 UNK         0.0600 
    193 H193       -3.6776  -17.3839  -47.0478 H         1 UNK         0.0600 
    194 H194       -2.1319  -17.5890  -47.8572 H         1 UNK         0.0600 
    195 H195       -2.5347  -20.8882  -45.5834 H         1 UNK         0.3000 
    196 H196       -5.0806  -21.0121  -44.1846 H         1 UNK         0.0600 
    197 H197       -3.7858  -22.4019  -42.5779 H         1 UNK         0.0600 
    198 H198       -2.9440  -20.9060  -42.9584 H         1 UNK         0.0600 
    199 H199       -2.4079  -22.4219  -43.6731 H         1 UNK         0.0600 
    200 H200       -2.9679  -23.4809  -45.7943 H         1 UNK         0.3000 
    201 H201       -4.9323  -25.5551  -45.3065 H         1 UNK         0.0600 
    202 H202       -2.4877  -25.9206  -45.0537 H         1 UNK         0.0600 
    203 H203       -2.2487  -25.6301  -46.7757 H         1 UNK         0.0600 
    204 H204       -3.1737  -27.0256  -46.2354 H         1 UNK         0.0600 
    205 H205       -3.8496  -23.7728  -48.2142 H         1 UNK         0.3000 
    206 H206       -5.5502  -25.5010  -49.9749 H         1 UNK         0.0600 
    207 H207       -3.1563  -25.6428  -50.4784 H         1 UNK         0.0600 
    208 H208       -3.9158  -24.6990  -51.7450 H         1 UNK         0.0600 
    209 H209       -2.9896  -23.8940  -50.5064 H         1 UNK         0.0600 
    210 H210       -5.6956  -22.6011  -48.4379 H         1 UNK         0.3000 
    211 H211       -6.7257  -20.6436  -48.6130 H         1 UNK         0.0600 
    212 H212       -8.3593  -21.8423  -50.9088 H         1 UNK         0.0600 
    213 H213       -8.7889  -20.4484  -49.9288 H         1 UNK         0.0600 
    214 H214       -8.7277  -22.0417  -49.1964 H         1 UNK         0.0600 
    215 H215       -4.3561  -21.3151  -50.3543 H         1 UNK         0.3000 
    216 H216       -3.0320  -20.6777  -51.9743 H         1 UNK         0.0600 
    217 H217       -2.8983  -18.3445  -52.6814 H         1 UNK         0.0600 
    218 H218       -3.2409  -18.3932  -50.9622 H         1 UNK         0.0600 
    219 H219       -4.5280  -18.0143  -52.1080 H         1 UNK         0.0600 
    220 H220       -6.0949  -21.5014  -52.5820 H         1 UNK         0.3000 
    221 H221       -6.3522  -20.7644  -55.4088 H         1 UNK         0.0600 
    222 H222       -8.1602  -22.3756  -53.5226 H         1 UNK         0.0600 
    223 H223       -8.3280  -20.6650  -53.9076 H         1 UNK         0.0600 
    224 H224       -8.5725  -21.8744  -55.1592 H         1 UNK         0.0600 
    225 H225       -6.0779  -23.7630  -53.4100 H         1 UNK         0.3000 
    226 H226       -5.7074  -25.4786  -55.7365 H         1 UNK         0.0600 
    227 H227       -6.7677  -26.3911  -53.7399 H         1 UNK         0.0600 
    228 H228       -5.2497  -27.2314  -54.0060 H         1 UNK         0.0600 
    229 H229       -5.3721  -26.0166  -52.7424 H         1 UNK         0.0600 
    230 H230       -3.6377  -23.4740  -53.8372 H         1 UNK         0.3000 
    231 H231       -1.1096  -24.6621  -54.7478 H         1 UNK         0.0600 
    232 H232       -1.2895  -23.5158  -52.5313 H         1 UNK         0.0600 
    233 H233       -1.6868  -21.9986  -53.3486 H         1 UNK         0.0600 
    234 H234       -0.1088  -22.7345  -53.5706 H         1 UNK         0.0600 
    235 H235       -3.5188  -22.6252  -56.0628 H         1 UNK         0.3000 
    236 H236       -3.8068  -21.4003  -57.8504 H         1 UNK         0.0600 
    237 H237       -2.6363  -22.0692  -59.9175 H         1 UNK         0.0600 
    238 H238       -1.3829  -22.8849  -58.9921 H         1 UNK         0.0600 
    239 H239       -3.0386  -23.4906  -58.9688 H         1 UNK         0.0600 
    240 H240       -2.6851  -19.8967  -55.9082 H         1 UNK         0.3000 
    241 H241       -1.3434  -17.8591  -57.5373 H         1 UNK         0.0600 
    242 H242       -3.8237  -18.4659  -55.2465 H         1 UNK         0.3800 
    243 H243       -4.0951  -16.7714  -54.9246 H         1 UNK         0.3800 
    244 H244        0.5703  -19.0213  -56.5451 H         1 UNK         0.0800 
    245 H245        0.4423  -17.3811  -55.9809 H         1 UNK         0.0800 
    246 H246        2.4042  -19.2290  -54.4195 H         1 UNK         0.0800 
    247 H247        1.9826  -17.5607  -54.1102 H         1 UNK         0.0800 
@<TRIPOS>BOND
     1    1    2 1    
     2    1  127 1    
     3    1  128 1    
     4    1  129 1    
     5    2    3 2    
     6    2    4 am   BACKBONE|DICT|INTERRES
     7    4    5 1    
     8    4  130 1    
     9    5    6 1    
    10    5   65 1    
    11    5  131 1    
    12    6    7 1    
    13    6  132 1    
    14    6  133 1    
    15    7    8 1    
    16    8    9 1    
    17    8  134 1    
    18    8  135 1    
    19    9   10 ar   
    20    9   14 ar   
    21   10   11 ar   
    22   10  136 1    
    23   11   12 ar   
    24   11  126 1    
    25   12   13 ar   
    26   12  137 1    
    27   13   14 ar   
    28   13   15 1    
    29   14  138 1    
    30   15   16 1    
    31   15  139 1    
    32   15  140 1    
    33   16   17 1    
    34   17   18 1    
    35   17  141 1    
    36   17  142 1    
    37   18   19 1    
    38   18   67 1    
    39   18  143 1    
    40   19   20 am   BACKBONE|DICT|INTERRES
    41   19  144 1    
    42   20   21 2    
    43   20   22 1    
    44   22   23 1    
    45   22   24 1    
    46   22  145 1    
    47   23  146 1    
    48   23  147 1    
    49   23  148 1    
    50   24   25 am   BACKBONE|DICT|INTERRES
    51   24  149 1    
    52   25   26 2    
    53   25   27 1    
    54   27   28 1    
    55   27   29 1    
    56   27  150 1    
    57   28  151 1    
    58   28  152 1    
    59   28  153 1    
    60   29   30 am   BACKBONE|DICT|INTERRES
    61   29  154 1    
    62   30   31 2    
    63   30   32 1    
    64   32   33 1    
    65   32   34 1    
    66   32  155 1    
    67   33  156 1    
    68   33  157 1    
    69   33  158 1    
    70   34   35 am   BACKBONE|DICT|INTERRES
    71   34  159 1    
    72   35   36 2    
    73   35   37 1    
    74   37   38 1    
    75   37   39 1    
    76   37  160 1    
    77   38  161 1    
    78   38  162 1    
    79   38  163 1    
    80   39   40 am   BACKBONE|DICT|INTERRES
    81   39  164 1    
    82   40   41 2    
    83   40   42 1    
    84   42   43 1    
    85   42   44 1    
    86   42  165 1    
    87   43  166 1    
    88   43  167 1    
    89   43  168 1    
    90   44   45 am   BACKBONE|DICT|INTERRES
    91   44  169 1    
    92   45   46 2    
    93   45   47 1    
    94   47   48 1    
    95   47   49 1    
    96   47  170 1    
    97   48  171 1    
    98   48  172 1    
    99   48  173 1    
   100   49   50 am   BACKBONE|DICT|INTERRES
   101   49  174 1    
   102   50   51 2    
   103   50   52 1    
   104   52   53 1    
   105   52   54 1    
   106   52  175 1    
   107   53  176 1    
   108   53  177 1    
   109   53  178 1    
   110   54   55 am   BACKBONE|DICT|INTERRES
   111   54  179 1    
   112   55   56 2    
   113   55   57 1    
   114   57   58 1    
   115   57   59 1    
   116   57  180 1    
   117   58  181 1    
   118   58  182 1    
   119   58  183 1    
   120   59   60 am   BACKBONE|DICT|INTERRES
   121   59  184 1    
   122   60   61 2    
   123   60   62 1    
   124   62   63 1    
   125   62   64 1    
   126   62  185 1    
   127   63  186 1    
   128   63  187 1    
   129   63  188 1    
   130   64   65 am   BACKBONE|DICT|INTERRES
   131   64  189 1    
   132   65   66 2    
   133   67   68 2    
   134   67   69 am   BACKBONE|DICT|INTERRES
   135   69   70 1    
   136   69  190 1    
   137   70   71 1    
   138   70   72 1    
   139   70  191 1    
   140   71  192 1    
   141   71  193 1    
   142   71  194 1    
   143   72   73 2    
   144   72   74 am   BACKBONE|DICT|INTERRES
   145   74   75 1    
   146   74  195 1    
   147   75   76 1    
   148   75   77 1    
   149   75  196 1    
   150   76  197 1    
   151   76  198 1    
   152   76  199 1    
   153   77   78 2    
   154   77   79 am   BACKBONE|DICT|INTERRES
   155   79   80 1    
   156   79  200 1    
   157   80   81 1    
   158   80   82 1    
   159   80  201 1    
   160   81  202 1    
   161   81  203 1    
   162   81  204 1    
   163   82   83 2    
   164   82   84 am   BACKBONE|DICT|INTERRES
   165   84   85 1    
   166   84  205 1    
   167   85   86 1    
   168   85   87 1    
   169   85  206 1    
   170   86  207 1    
   171   86  208 1    
   172   86  209 1    
   173   87   88 2    
   174   87   89 am   BACKBONE|DICT|INTERRES
   175   89   90 1    
   176   89  210 1    
   177   90   91 1    
   178   90   92 1    
   179   90  211 1    
   180   91  212 1    
   181   91  213 1    
   182   91  214 1    
   183   92   93 2    
   184   92   94 am   BACKBONE|DICT|INTERRES
   185   94   95 1    
   186   94  215 1    
   187   95   96 1    
   188   95   97 1    
   189   95  216 1    
   190   96  217 1    
   191   96  218 1    
   192   96  219 1    
   193   97   98 2    
   194   97   99 am   BACKBONE|DICT|INTERRES
   195   99  100 1    
   196   99  220 1    
   197  100  101 1    
   198  100  102 1    
   199  100  221 1    
   200  101  222 1    
   201  101  223 1    
   202  101  224 1    
   203  102  103 2    
   204  102  104 am   BACKBONE|DICT|INTERRES
   205  104  105 1    
   206  104  225 1    
   207  105  106 1    
   208  105  107 1    
   209  105  226 1    
   210  106  227 1    
   211  106  228 1    
   212  106  229 1    
   213  107  108 2    
   214  107  109 am   BACKBONE|DICT|INTERRES
   215  109  110 1    
   216  109  230 1    
   217  110  111 1    
   218  110  112 1    
   219  110  231 1    
   220  111  232 1    
   221  111  233 1    
   222  111  234 1    
   223  112  113 2    
   224  112  114 am   BACKBONE|DICT|INTERRES
   225  114  115 1    
   226  114  235 1    
   227  115  116 1    
   228  115  117 1    
   229  115  236 1    
   230  116  237 1    
   231  116  238 1    
   232  116  239 1    
   233  117  118 2    
   234  117  119 am   BACKBONE|DICT|INTERRES
   235  119  120 1    
   236  119  240 1    
   237  120  121 1    
   238  120  124 1    
   239  120  241 1    
   240  121  122 am   BACKBONE|DICT|INTERRES
   241  121  123 2    
   242  122  242 1    
   243  122  243 1    
   244  124  125 1    
   245  124  244 1    
   246  124  245 1    
   247  125  126 1    
   248  126  246 1    
   249  126  247 1    
@<TRIPOS>SUBSTRUCTURE
     1 UNK         1 GROUP             0       ****    0 ROOT    
