@<TRIPOS>MOLECULE
3R540
247   249    1
SMALL
USER_CHARGES


@<TRIPOS>ATOM
      1 CA          8.7945  -10.7740  -46.1077 C.3       0 UNK        -0.1800 
      2 C           7.4100  -11.4067  -46.0786 C.2       0 UNK         0.5000 
      3 O           6.5843  -11.0347  -45.2443 O.2       0 UNK        -0.5000 
      4 N           7.1574  -12.3651  -46.9785 N.am      1 UNK        -0.5000 
      5 CA          5.8651  -13.0346  -47.1466 C.3       1 UNK         0.1400 
      6 C6          6.0166  -14.3353  -47.9728 C.3       23 UNK        -0.0398 
      7 S7          4.5699  -15.4505  -47.8715 S.3       23 UNK        -0.2404 
      8 C8          3.9437  -15.3370  -49.5765 C.3       23 UNK        -0.0205 
      9 C9          2.9046  -16.4058  -49.8783 C.ar      23 UNK        -0.0193 
     10 C10         1.5533  -16.0708  -50.0051 C.ar      23 UNK        -0.1150 
     11 C11         0.6071  -17.0468  -50.3356 C.ar      23 UNK        -0.0193 
     12 C12         1.0243  -18.3646  -50.5454 C.ar      23 UNK        -0.1150 
     13 C13         2.3701  -18.7175  -50.3988 C.ar      23 UNK        -0.0193 
     14 C14         3.3042  -17.7319  -50.0683 C.ar      23 UNK        -0.1150 
     15 C15         2.8226  -20.1563  -50.6139 C.3       23 UNK        -0.0205 
     16 S16         2.7285  -21.1475  -49.0859 S.3       23 UNK        -0.2404 
     17 C17         0.9250  -21.3122  -48.9081 C.3       23 UNK        -0.0398 
     18 CA          0.4849  -22.4641  -47.9731 C.3       11 UNK         0.1400 
     19 N           0.8000  -22.2253  -46.5585 N.am      11 UNK        -0.5000 
     20 C           0.5509  -23.0929  -45.5636 C.2       10 UNK         0.5000 
     21 O           0.1069  -24.2282  -45.7399 O.2       10 UNK        -0.5000 
     22 CA          0.7699  -22.5955  -44.1227 C.3       10 UNK         0.1400 
     23 CB          2.2520  -22.6659  -43.7263 C.3       10 UNK        -0.1800 
     24 N           0.2542  -21.2422  -43.9106 N.am      10 UNK        -0.5000 
     25 C          -1.0409  -20.9029  -43.9966 C.2       9 UNK         0.5000 
     26 O          -1.9449  -21.7105  -44.2066 O.2       9 UNK        -0.5000 
     27 CA         -1.3826  -19.4053  -43.8864 C.3       9 UNK         0.1400 
     28 CB         -1.4428  -18.9560  -42.4194 C.3       9 UNK        -0.1800 
     29 N          -0.4410  -18.5654  -44.6250 N.am      9 UNK        -0.5000 
     30 C          -0.2664  -18.6146  -45.9530 C.2       8 UNK         0.5000 
     31 O          -0.9383  -19.3191  -46.7056 O.2       8 UNK        -0.5000 
     32 CA          0.8838  -17.7760  -46.5305 C.3       8 UNK         0.1400 
     33 CB          0.4373  -16.3297  -46.7510 C.3       8 UNK        -0.1800 
     34 N           2.0726  -17.7957  -45.6804 N.am      8 UNK        -0.5000 
     35 C           2.8233  -18.8832  -45.4616 C.2       7 UNK         0.5000 
     36 O           2.6003  -19.9798  -45.9706 O.2       7 UNK        -0.5000 
     37 CA          3.9763  -18.7343  -44.4528 C.3       7 UNK         0.1400 
     38 CB          5.1906  -18.0528  -45.1007 C.3       7 UNK        -0.1800 
     39 N           3.5756  -17.9842  -43.2622 N.am      7 UNK        -0.5000 
     40 C           2.6639  -18.4030  -42.3725 C.2       6 UNK         0.5000 
     41 O           2.1156  -19.5033  -42.4237 O.2       6 UNK        -0.5000 
     42 CA          2.2625  -17.4034  -41.2701 C.3       6 UNK         0.1400 
     43 CB          3.1832  -17.5473  -40.0494 C.3       6 UNK        -0.1800 
     44 N           2.2728  -16.0095  -41.7264 N.am      6 UNK        -0.5000 
     45 C           1.4799  -15.5214  -42.6900 C.2       5 UNK         0.5000 
     46 O           0.6398  -16.1994  -43.2851 O.2       5 UNK        -0.5000 
     47 CA          1.7314  -14.0569  -43.0940 C.3       5 UNK         0.1400 
     48 CB          2.9873  -13.9640  -43.9784 C.3       5 UNK        -0.1800 
     49 N           0.5970  -13.4596  -43.8044 N.am      5 UNK        -0.5000 
     50 C          -0.5623  -13.1135  -43.2241 C.2       4 UNK         0.5000 
     51 O          -0.7861  -13.2786  -42.0234 O.2       4 UNK        -0.5000 
     52 CA         -1.6456  -12.4318  -44.0897 C.3       4 UNK         0.1400 
     53 CB         -1.9010  -10.9974  -43.5964 C.3       4 UNK        -0.1800 
     54 N          -1.3065  -12.3682  -45.5118 N.am      4 UNK        -0.5000 
     55 C          -1.6769  -13.2639  -46.4357 C.2       3 UNK         0.5000 
     56 O          -2.3909  -14.2371  -46.1938 O.2       3 UNK        -0.5000 
     57 CA         -1.1637  -13.0462  -47.8789 C.3       3 UNK         0.1400 
     58 CB         -2.2790  -12.4677  -48.7626 C.3       3 UNK        -0.1800 
     59 N           0.0327  -12.2017  -48.0156 N.am      3 UNK        -0.5000 
     60 C           1.2097  -12.4403  -47.4259 C.2       2 UNK         0.5000 
     61 O           1.3788  -13.3344  -46.5956 O.2       2 UNK        -0.5000 
     62 CA          2.3870  -11.5250  -47.7856 C.3       2 UNK         0.1400 
     63 CB          2.2571  -10.1509  -47.1068 C.3       2 UNK        -0.1800 
     64 N           3.5847  -12.2006  -47.3099 N.am      2 UNK        -0.5000 
     65 C           4.8282  -12.0744  -47.7700 C.2       1 UNK         0.5000 
     66 O           5.1621  -11.2810  -48.6539 O.2       1 UNK        -0.5000 
     67 C          -1.0179  -22.7344  -48.1765 C.2       11 UNK         0.5000 
     68 O          -1.3699  -23.7332  -48.8014 O.2       11 UNK        -0.5000 
     69 N          -1.8726  -21.8582  -47.6293 N.am      12 UNK        -0.5000 
     70 CA         -3.3280  -21.9640  -47.7126 C.3       12 UNK         0.1400 
     71 CB         -3.9788  -20.7069  -47.1187 C.3       12 UNK        -0.1800 
     72 C          -3.8795  -23.2363  -47.0494 C.2       12 UNK         0.5000 
     73 O          -4.7590  -23.8756  -47.6246 O.2       12 UNK        -0.5000 
     74 N          -3.3316  -23.6028  -45.8827 N.am      13 UNK        -0.5000 
     75 CA         -3.6563  -24.8344  -45.1641 C.3       13 UNK         0.1400 
     76 CB         -2.9846  -24.8237  -43.7827 C.3       13 UNK        -0.1800 
     77 C          -3.2692  -26.0966  -45.9545 C.2       13 UNK         0.5000 
     78 O          -4.0931  -27.0025  -46.0853 O.2       13 UNK        -0.5000 
     79 N          -2.0461  -26.1169  -46.5046 N.am      14 UNK        -0.5000 
     80 CA         -1.5313  -27.2019  -47.3453 C.3       14 UNK         0.1400 
     81 CB         -0.0384  -26.9687  -47.6223 C.3       14 UNK        -0.1800 
     82 C          -2.3103  -27.3622  -48.6650 C.2       14 UNK         0.5000 
     83 O          -2.5387  -28.4881  -49.1080 O.2       14 UNK        -0.5000 
     84 N          -2.7304  -26.2329  -49.2471 N.am      15 UNK        -0.5000 
     85 CA         -3.5377  -26.1517  -50.4637 C.3       15 UNK         0.1400 
     86 CB         -3.2870  -24.7851  -51.1131 C.3       15 UNK        -0.1800 
     87 C          -5.0477  -26.3697  -50.2285 C.2       15 UNK         0.5000 
     88 O          -5.8127  -26.3196  -51.1936 O.2       15 UNK        -0.5000 
     89 N          -5.4542  -26.5801  -48.9663 N.am      16 UNK        -0.5000 
     90 CA         -6.8246  -26.8015  -48.4915 C.3       16 UNK         0.1400 
     91 CB         -7.3450  -28.1716  -48.9728 C.3       16 UNK        -0.1800 
     92 C          -7.7827  -25.6399  -48.8335 C.2       16 UNK         0.5000 
     93 O          -8.9408  -25.8749  -49.1839 O.2       16 UNK        -0.5000 
     94 N          -7.2657  -24.4055  -48.7506 N.am      17 UNK        -0.5000 
     95 CA         -7.8838  -23.1035  -49.0338 C.3       17 UNK         0.1400 
     96 CB         -9.0774  -22.8383  -48.0984 C.3       17 UNK        -0.1800 
     97 C          -8.2734  -22.8650  -50.5075 C.2       17 UNK         0.5000 
     98 O          -8.0726  -21.7597  -51.0107 O.2       17 UNK        -0.5000 
     99 N          -8.8117  -23.8891  -51.1786 N.am      18 UNK        -0.5000 
    100 CA        -9.3383  -23.8468  -52.5438 C.3       18 UNK         0.1400 
    101 CB        -9.9997  -25.1970  -52.8589 C.3       18 UNK        -0.1800 
    102 C         -8.2946  -23.4977  -53.6216 C.2       18 UNK         0.5000 
    103 O         -8.6549  -22.8922  -54.6318 O.2       18 UNK        -0.5000 
    104 N         -7.0319  -23.8759  -53.3884 N.am      19 UNK        -0.5000 
    105 CA        -5.9073  -23.6508  -54.2979 C.3       19 UNK         0.1400 
    106 CB        -5.3362  -25.0168  -54.7216 C.3       19 UNK        -0.1800 
    107 C         -4.8396  -22.7281  -53.6759 C.2       19 UNK         0.5000 
    108 O         -3.6807  -22.7800  -54.0888 O.2       19 UNK        -0.5000 
    109 N         -5.2289  -21.9032  -52.6896 N.am      20 UNK        -0.5000 
    110 CA        -4.3366  -21.0003  -51.9487 C.3       20 UNK         0.1400 
    111 CB        -5.0890  -20.4322  -50.7365 C.3       20 UNK        -0.1800 
    112 C         -3.7381  -19.8502  -52.7858 C.2       20 UNK         0.5000 
    113 O         -2.7605  -19.2419  -52.3503 O.2       20 UNK        -0.5000 
    114 N         -4.3403  -19.5618  -53.9494 N.am      21 UNK        -0.5000 
    115 CA        -3.9502  -18.5957  -54.9876 C.3       21 UNK         0.1400 
    116 CB        -2.5357  -18.8888  -55.5238 C.3       21 UNK        -0.1800 
    117 C         -4.0963  -17.1117  -54.5964 C.2       21 UNK         0.5000 
    118 O         -4.5123  -16.3119  -55.4357 O.2       21 UNK        -0.5000 
    119 N         -3.7745  -16.7658  -53.3459 N.am      22 UNK        -0.5000 
    120 CA        -3.8723  -15.4045  -52.7921 C.3       22 UNK         0.1400 
    121 C         -5.3250  -14.9214  -52.5001 C.2       22 UNK         0.5000 
    122 N         -6.3383  -15.7779  -52.5472 N.am      22 UNK        -0.7600 
    123 O         -5.5370  -13.7423  -52.2306 O.2       22 UNK        -0.5000 
    124 C124       -2.9799  -15.2207  -51.5391 C.3       23 UNK        -0.0398 
    125 S125       -1.2180  -15.5931  -51.8437 S.3       23 UNK        -0.2404 
    126 C126       -0.8678  -16.6845  -50.4325 C.3       23 UNK        -0.0205 
    127 H127        9.2915  -10.9140  -45.1478 H         1 UNK         0.0600 
    128 H128        8.7135   -9.7039  -46.2982 H         1 UNK         0.0600 
    129 H129        9.4242  -11.2107  -46.8833 H         1 UNK         0.0600 
    130 H130        7.8672  -12.6020  -47.6567 H         1 UNK         0.3000 
    131 H131        5.5180  -13.3127  -46.1483 H         1 UNK         0.0600 
    132 H132        6.8677  -14.9051  -47.5971 H         1 UNK         0.0800 
    133 H133        6.2541  -14.1072  -49.0133 H         1 UNK         0.0800 
    134 H134        3.5313  -14.3403  -49.7410 H         1 UNK         0.0800 
    135 H135        4.7707  -15.4498  -50.2790 H         1 UNK         0.0800 
    136 H136        1.2340  -15.0498  -49.8493 H         1 UNK         0.1150 
    137 H137        0.2969  -19.1194  -50.8090 H         1 UNK         0.1150 
    138 H138        4.3475  -17.9947  -49.9632 H         1 UNK         0.1150 
    139 H139        2.2288  -20.6262  -51.3993 H         1 UNK         0.0800 
    140 H140        3.8532  -20.1677  -50.9716 H         1 UNK         0.0800 
    141 H141        0.5161  -21.4661  -49.9088 H         1 UNK         0.0800 
    142 H142        0.5260  -20.3605  -48.5596 H         1 UNK         0.0800 
    143 H143        1.0166  -23.3693  -48.2740 H         1 UNK         0.0600 
    144 H144        1.2326  -21.3334  -46.3344 H         1 UNK         0.3000 
    145 H145        0.2173  -23.2631  -43.4584 H         1 UNK         0.0600 
    146 H146        2.6360  -23.6806  -43.8377 H         1 UNK         0.0600 
    147 H147        2.8701  -22.0134  -44.3417 H         1 UNK         0.0600 
    148 H148        2.3949  -22.3761  -42.6852 H         1 UNK         0.0600 
    149 H149        0.9352  -20.5250  -43.6827 H         1 UNK         0.3000 
    150 H150       -2.3710  -19.2561  -44.3257 H         1 UNK         0.0600 
    151 H151       -1.7009  -17.8997  -42.3399 H         1 UNK         0.0600 
    152 H152       -0.4916  -19.1074  -41.9105 H         1 UNK         0.0600 
    153 H153       -2.1992  -19.5197  -41.8721 H         1 UNK         0.0600 
    154 H154        0.1072  -17.8998  -44.0879 H         1 UNK         0.3000 
    155 H155        1.1543  -18.1999  -47.4996 H         1 UNK         0.0600 
    156 H156       -0.4738  -16.2892  -47.3455 H         1 UNK         0.0600 
    157 H157        1.2060  -15.7718  -47.2819 H         1 UNK         0.0600 
    158 H158        0.2328  -15.8127  -45.8144 H         1 UNK         0.0600 
    159 H159        2.2891  -16.9431  -45.1880 H         1 UNK         0.3000 
    160 H160        4.2747  -19.7372  -44.1399 H         1 UNK         0.0600 
    161 H161        5.4812  -18.5613  -46.0210 H         1 UNK         0.0600 
    162 H162        6.0527  -18.0690  -44.4339 H         1 UNK         0.0600 
    163 H163        4.9820  -17.0127  -45.3515 H         1 UNK         0.0600 
    164 H164        3.9827  -17.0696  -43.1389 H         1 UNK         0.3000 
    165 H165        1.2443  -17.6451  -40.9592 H         1 UNK         0.0600 
    166 H166        2.8581  -16.9036  -39.2319 H         1 UNK         0.0600 
    167 H167        3.1777  -18.5722  -39.6759 H         1 UNK         0.0600 
    168 H168        4.2157  -17.2909  -40.2898 H         1 UNK         0.0600 
    169 H169        2.9434  -15.3972  -41.2844 H         1 UNK         0.3000 
    170 H170        1.9054  -13.4755  -42.1861 H         1 UNK         0.0600 
    171 H171        3.1651  -12.9392  -44.3050 H         1 UNK         0.0600 
    172 H172        3.8768  -14.2862  -43.4361 H         1 UNK         0.0600 
    173 H173        2.9034  -14.5921  -44.8662 H         1 UNK         0.0600 
    174 H174        0.7025  -13.3583  -44.8096 H         1 UNK         0.3000 
    175 H175       -2.5677  -13.0013  -43.9563 H         1 UNK         0.0600 
    176 H176       -1.0079  -10.3773  -43.6830 H         1 UNK         0.0600 
    177 H177       -2.6979  -10.5204  -44.1674 H         1 UNK         0.0600 
    178 H178       -2.2064  -10.9891  -42.5492 H         1 UNK         0.0600 
    179 H179       -0.7102  -11.6069  -45.8004 H         1 UNK         0.3000 
    180 H180       -0.9026  -14.0302  -48.2716 H         1 UNK         0.0600 
    181 H181       -1.9641  -12.4030  -49.8043 H         1 UNK         0.0600 
    182 H182       -2.5707  -11.4686  -48.4365 H         1 UNK         0.0600 
    183 H183       -3.1698  -13.0966  -48.7324 H         1 UNK         0.0600 
    184 H184       -0.0399  -11.4304  -48.6635 H         1 UNK         0.3000 
    185 H185        2.4303  -11.4127  -48.8707 H         1 UNK         0.0600 
    186 H186        2.1933  -10.2440  -46.0218 H         1 UNK         0.0600 
    187 H187        3.1126   -9.5155  -47.3367 H         1 UNK         0.0600 
    188 H188        1.3637   -9.6262  -47.4469 H         1 UNK         0.0600 
    189 H189        3.3695  -12.9335  -46.6434 H         1 UNK         0.3000 
    190 H190       -1.5034  -21.0381  -47.1523 H         1 UNK         0.3000 
    191 H191       -3.5858  -22.0126  -48.7714 H         1 UNK         0.0600 
    192 H192       -3.7378  -20.5906  -46.0618 H         1 UNK         0.0600 
    193 H193       -5.0650  -20.7502  -47.2073 H         1 UNK         0.0600 
    194 H194       -3.6450  -19.8080  -47.6375 H         1 UNK         0.0600 
    195 H195       -2.6508  -22.9871  -45.4456 H         1 UNK         0.3000 
    196 H196       -4.7377  -24.8557  -45.0137 H         1 UNK         0.0600 
    197 H197       -3.2191  -25.7320  -43.2263 H         1 UNK         0.0600 
    198 H198       -3.3277  -23.9787  -43.1856 H         1 UNK         0.0600 
    199 H199       -1.8992  -24.7566  -43.8620 H         1 UNK         0.0600 
    200 H200       -1.4164  -25.3370  -46.3360 H         1 UNK         0.3000 
    201 H201       -1.6322  -28.1342  -46.7861 H         1 UNK         0.0600 
    202 H202        0.5336  -26.9374  -46.6948 H         1 UNK         0.0600 
    203 H203        0.1306  -26.0293  -48.1499 H         1 UNK         0.0600 
    204 H204        0.3766  -27.7703  -48.2344 H         1 UNK         0.0600 
    205 H205       -2.4329  -25.3453  -48.8502 H         1 UNK         0.3000 
    206 H206       -3.2023  -26.9240  -51.1587 H         1 UNK         0.0600 
    207 H207       -3.7667  -24.7356  -52.0864 H         1 UNK         0.0600 
    208 H208       -3.6786  -23.9697  -50.5038 H         1 UNK         0.0600 
    209 H209       -2.2236  -24.6078  -51.2740 H         1 UNK         0.0600 
    210 H210       -4.7481  -26.5614  -48.2415 H         1 UNK         0.3000 
    211 H211       -6.7662  -26.8339  -47.4027 H         1 UNK         0.0600 
    212 H212       -7.4769  -28.1969  -50.0550 H         1 UNK         0.0600 
    213 H213       -8.3091  -28.4058  -48.5199 H         1 UNK         0.0600 
    214 H214       -6.6569  -28.9716  -48.6999 H         1 UNK         0.0600 
    215 H215       -6.2965  -24.3399  -48.4399 H         1 UNK         0.3000 
    216 H216       -7.1176  -22.3656  -48.7931 H         1 UNK         0.0600 
    217 H217       -9.4645  -21.8284  -48.2400 H         1 UNK         0.0600 
    218 H218       -8.7855  -22.9305  -47.0523 H         1 UNK         0.0600 
    219 H219       -9.9006  -23.5298  -48.2799 H         1 UNK         0.0600 
    220 H220       -8.9435  -24.7552  -50.6619 H         1 UNK         0.3000 
    221 H221      -10.1081  -23.0732  -52.5740 H         1 UNK         0.0600 
    222 H222       -9.2819  -26.0166  -52.8041 H         1 UNK         0.0600 
    223 H223      -10.8082  -25.4128  -52.1600 H         1 UNK         0.0600 
    224 H224      -10.4281  -25.2001  -53.8621 H         1 UNK         0.0600 
    225 H225       -6.8276  -24.3790  -52.5341 H         1 UNK         0.3000 
    226 H226       -6.2422  -23.1428  -55.2041 H         1 UNK         0.0600 
    227 H227       -6.0935  -25.6132  -55.2305 H         1 UNK         0.0600 
    228 H228       -4.5005  -24.9037  -55.4131 H         1 UNK         0.0600 
    229 H229       -4.9839  -25.5931  -53.8664 H         1 UNK         0.0600 
    230 H230       -6.2012  -21.9092  -52.4074 H         1 UNK         0.3000 
    231 H231       -3.4974  -21.5928  -51.5782 H         1 UNK         0.0600 
    232 H232       -5.9551  -19.8433  -51.0409 H         1 UNK         0.0600 
    233 H233       -5.4394  -21.2293  -50.0827 H         1 UNK         0.0600 
    234 H234       -4.4444  -19.7845  -50.1407 H         1 UNK         0.0600 
    235 H235       -5.1628  -20.1047  -54.1695 H         1 UNK         0.3000 
    236 H236       -4.6463  -18.7642  -55.8108 H         1 UNK         0.0600 
    237 H237       -1.7679  -18.7084  -54.7709 H         1 UNK         0.0600 
    238 H238       -2.4460  -19.9239  -55.8538 H         1 UNK         0.0600 
    239 H239       -2.3055  -18.2528  -56.3794 H         1 UNK         0.0600 
    240 H240       -3.3890  -17.4858  -52.7421 H         1 UNK         0.3000 
    241 H241       -3.4902  -14.7237  -53.5554 H         1 UNK         0.0600 
    242 H242       -7.2736  -15.4513  -52.3611 H         1 UNK         0.3800 
    243 H243       -6.1800  -16.7460  -52.7740 H         1 UNK         0.3800 
    244 H244       -3.0338  -14.1908  -51.1834 H         1 UNK         0.0800 
    245 H245       -3.3540  -15.8419  -50.7235 H         1 UNK         0.0800 
    246 H246       -1.4805  -17.5838  -50.5155 H         1 UNK         0.0800 
    247 H247       -1.1752  -16.1859  -49.5141 H         1 UNK         0.0800 
@<TRIPOS>BOND
     1    1    2 1    
     2    1  127 1    
     3    1  128 1    
     4    1  129 1    
     5    2    3 2    
     6    2    4 am   BACKBONE|DICT|INTERRES
     7    4    5 1    
     8    4  130 1    
     9    5    6 1    
    10    5   65 1    
    11    5  131 1    
    12    6    7 1    
    13    6  132 1    
    14    6  133 1    
    15    7    8 1    
    16    8    9 1    
    17    8  134 1    
    18    8  135 1    
    19    9   10 ar   
    20    9   14 ar   
    21   10   11 ar   
    22   10  136 1    
    23   11   12 ar   
    24   11  126 1    
    25   12   13 ar   
    26   12  137 1    
    27   13   14 ar   
    28   13   15 1    
    29   14  138 1    
    30   15   16 1    
    31   15  139 1    
    32   15  140 1    
    33   16   17 1    
    34   17   18 1    
    35   17  141 1    
    36   17  142 1    
    37   18   19 1    
    38   18   67 1    
    39   18  143 1    
    40   19   20 am   BACKBONE|DICT|INTERRES
    41   19  144 1    
    42   20   21 2    
    43   20   22 1    
    44   22   23 1    
    45   22   24 1    
    46   22  145 1    
    47   23  146 1    
    48   23  147 1    
    49   23  148 1    
    50   24   25 am   BACKBONE|DICT|INTERRES
    51   24  149 1    
    52   25   26 2    
    53   25   27 1    
    54   27   28 1    
    55   27   29 1    
    56   27  150 1    
    57   28  151 1    
    58   28  152 1    
    59   28  153 1    
    60   29   30 am   BACKBONE|DICT|INTERRES
    61   29  154 1    
    62   30   31 2    
    63   30   32 1    
    64   32   33 1    
    65   32   34 1    
    66   32  155 1    
    67   33  156 1    
    68   33  157 1    
    69   33  158 1    
    70   34   35 am   BACKBONE|DICT|INTERRES
    71   34  159 1    
    72   35   36 2    
    73   35   37 1    
    74   37   38 1    
    75   37   39 1    
    76   37  160 1    
    77   38  161 1    
    78   38  162 1    
    79   38  163 1    
    80   39   40 am   BACKBONE|DICT|INTERRES
    81   39  164 1    
    82   40   41 2    
    83   40   42 1    
    84   42   43 1    
    85   42   44 1    
    86   42  165 1    
    87   43  166 1    
    88   43  167 1    
    89   43  168 1    
    90   44   45 am   BACKBONE|DICT|INTERRES
    91   44  169 1    
    92   45   46 2    
    93   45   47 1    
    94   47   48 1    
    95   47   49 1    
    96   47  170 1    
    97   48  171 1    
    98   48  172 1    
    99   48  173 1    
   100   49   50 am   BACKBONE|DICT|INTERRES
   101   49  174 1    
   102   50   51 2    
   103   50   52 1    
   104   52   53 1    
   105   52   54 1    
   106   52  175 1    
   107   53  176 1    
   108   53  177 1    
   109   53  178 1    
   110   54   55 am   BACKBONE|DICT|INTERRES
   111   54  179 1    
   112   55   56 2    
   113   55   57 1    
   114   57   58 1    
   115   57   59 1    
   116   57  180 1    
   117   58  181 1    
   118   58  182 1    
   119   58  183 1    
   120   59   60 am   BACKBONE|DICT|INTERRES
   121   59  184 1    
   122   60   61 2    
   123   60   62 1    
   124   62   63 1    
   125   62   64 1    
   126   62  185 1    
   127   63  186 1    
   128   63  187 1    
   129   63  188 1    
   130   64   65 am   BACKBONE|DICT|INTERRES
   131   64  189 1    
   132   65   66 2    
   133   67   68 2    
   134   67   69 am   BACKBONE|DICT|INTERRES
   135   69   70 1    
   136   69  190 1    
   137   70   71 1    
   138   70   72 1    
   139   70  191 1    
   140   71  192 1    
   141   71  193 1    
   142   71  194 1    
   143   72   73 2    
   144   72   74 am   BACKBONE|DICT|INTERRES
   145   74   75 1    
   146   74  195 1    
   147   75   76 1    
   148   75   77 1    
   149   75  196 1    
   150   76  197 1    
   151   76  198 1    
   152   76  199 1    
   153   77   78 2    
   154   77   79 am   BACKBONE|DICT|INTERRES
   155   79   80 1    
   156   79  200 1    
   157   80   81 1    
   158   80   82 1    
   159   80  201 1    
   160   81  202 1    
   161   81  203 1    
   162   81  204 1    
   163   82   83 2    
   164   82   84 am   BACKBONE|DICT|INTERRES
   165   84   85 1    
   166   84  205 1    
   167   85   86 1    
   168   85   87 1    
   169   85  206 1    
   170   86  207 1    
   171   86  208 1    
   172   86  209 1    
   173   87   88 2    
   174   87   89 am   BACKBONE|DICT|INTERRES
   175   89   90 1    
   176   89  210 1    
   177   90   91 1    
   178   90   92 1    
   179   90  211 1    
   180   91  212 1    
   181   91  213 1    
   182   91  214 1    
   183   92   93 2    
   184   92   94 am   BACKBONE|DICT|INTERRES
   185   94   95 1    
   186   94  215 1    
   187   95   96 1    
   188   95   97 1    
   189   95  216 1    
   190   96  217 1    
   191   96  218 1    
   192   96  219 1    
   193   97   98 2    
   194   97   99 am   BACKBONE|DICT|INTERRES
   195   99  100 1    
   196   99  220 1    
   197  100  101 1    
   198  100  102 1    
   199  100  221 1    
   200  101  222 1    
   201  101  223 1    
   202  101  224 1    
   203  102  103 2    
   204  102  104 am   BACKBONE|DICT|INTERRES
   205  104  105 1    
   206  104  225 1    
   207  105  106 1    
   208  105  107 1    
   209  105  226 1    
   210  106  227 1    
   211  106  228 1    
   212  106  229 1    
   213  107  108 2    
   214  107  109 am   BACKBONE|DICT|INTERRES
   215  109  110 1    
   216  109  230 1    
   217  110  111 1    
   218  110  112 1    
   219  110  231 1    
   220  111  232 1    
   221  111  233 1    
   222  111  234 1    
   223  112  113 2    
   224  112  114 am   BACKBONE|DICT|INTERRES
   225  114  115 1    
   226  114  235 1    
   227  115  116 1    
   228  115  117 1    
   229  115  236 1    
   230  116  237 1    
   231  116  238 1    
   232  116  239 1    
   233  117  118 2    
   234  117  119 am   BACKBONE|DICT|INTERRES
   235  119  120 1    
   236  119  240 1    
   237  120  121 1    
   238  120  124 1    
   239  120  241 1    
   240  121  122 am   BACKBONE|DICT|INTERRES
   241  121  123 2    
   242  122  242 1    
   243  122  243 1    
   244  124  125 1    
   245  124  244 1    
   246  124  245 1    
   247  125  126 1    
   248  126  246 1    
   249  126  247 1    
@<TRIPOS>SUBSTRUCTURE
     1 UNK         1 GROUP             0       ****    0 ROOT    
