@<TRIPOS>MOLECULE
3R540
247   249    1
SMALL
USER_CHARGES


@<TRIPOS>ATOM
      1 CA          2.8917  -14.5645  -47.1835 C.3       0 UNK        -0.1800 
      2 C           1.4669  -14.1643  -47.5348 C.2       0 UNK         0.5000 
      3 O           1.1994  -12.9841  -47.7556 O.2       0 UNK        -0.5000 
      4 N           0.5473  -15.1376  -47.5815 N.am      1 UNK        -0.5000 
      5 CA         -0.8621  -15.0335  -47.9940 C.3       1 UNK         0.1400 
      6 C6         -1.0669  -14.3778  -49.3941 C.3       23 UNK        -0.0398 
      7 S7         -1.9561  -15.4567  -50.5658 S.3       23 UNK        -0.2404 
      8 C8         -0.8537  -15.4011  -52.0146 C.3       23 UNK        -0.0205 
      9 C9          0.2263  -16.4717  -51.9587 C.ar      23 UNK        -0.0193 
     10 C10         0.0643  -17.6541  -52.6833 C.ar      23 UNK        -0.1150 
     11 C11         1.0576  -18.6366  -52.6776 C.ar      23 UNK        -0.0193 
     12 C12         2.2222  -18.4279  -51.9359 C.ar      23 UNK        -0.1150 
     13 C13         2.3844  -17.2654  -51.1762 C.ar      23 UNK        -0.0193 
     14 C14         1.3891  -16.2838  -51.2050 C.ar      23 UNK        -0.1150 
     15 C15         3.6351  -17.0576  -50.3317 C.3       23 UNK        -0.0205 
     16 S16         4.0301  -18.4787  -49.2567 S.3       23 UNK        -0.2404 
     17 C17         2.5908  -18.5639  -48.1376 C.3       23 UNK        -0.0398 
     18 CA          1.9691  -19.9887  -48.0827 C.3       11 UNK         0.1400 
     19 N           1.7227  -20.4283  -46.7076 N.am      11 UNK        -0.5000 
     20 C           1.4500  -21.6901  -46.3440 C.2       10 UNK         0.5000 
     21 O           1.4539  -22.6425  -47.1234 O.2       10 UNK        -0.5000 
     22 CA          1.0911  -21.9380  -44.8661 C.3       10 UNK         0.1400 
     23 CB          2.3052  -22.4987  -44.1105 C.3       10 UNK        -0.1800 
     24 N           0.5907  -20.7519  -44.1664 N.am      10 UNK        -0.5000 
     25 C          -0.5375  -20.0939  -44.4684 C.2       9 UNK         0.5000 
     26 O          -1.2956  -20.4232  -45.3792 O.2       9 UNK        -0.5000 
     27 CA         -0.8279  -18.8153  -43.6645 C.3       9 UNK         0.1400 
     28 CB         -1.3934  -19.1581  -42.2777 C.3       9 UNK        -0.1800 
     29 N           0.3614  -17.9770  -43.5147 N.am      9 UNK        -0.5000 
     30 C           1.0190  -17.3872  -44.5235 C.2       8 UNK         0.5000 
     31 O           0.6768  -17.4447  -45.7064 O.2       8 UNK        -0.5000 
     32 CA          2.3027  -16.6345  -44.1438 C.3       8 UNK         0.1400 
     33 CB          1.9782  -15.2286  -43.6128 C.3       8 UNK        -0.1800 
     34 N           3.0905  -17.3775  -43.1613 N.am      8 UNK        -0.5000 
     35 C           3.7821  -18.4916  -43.4451 C.2       7 UNK         0.5000 
     36 O           3.8616  -18.9760  -44.5740 O.2       7 UNK        -0.5000 
     37 CA          4.4764  -19.1987  -42.2656 C.3       7 UNK         0.1400 
     38 CB          5.8728  -18.6048  -42.0284 C.3       7 UNK        -0.1800 
     39 N           3.7053  -19.1286  -41.0230 N.am      7 UNK        -0.5000 
     40 C           2.5207  -19.7256  -40.8300 C.2       6 UNK         0.5000 
     41 O           1.9604  -20.4203  -41.6754 O.2       6 UNK        -0.5000 
     42 CA          1.8147  -19.4504  -39.4895 C.3       6 UNK         0.1400 
     43 CB          2.2890  -20.4407  -38.4158 C.3       6 UNK        -0.1800 
     44 N           1.9993  -18.0790  -39.0052 N.am      6 UNK        -0.5000 
     45 C           1.6185  -16.9813  -39.6700 C.2       5 UNK         0.5000 
     46 O           1.0889  -17.0045  -40.7875 O.2       5 UNK        -0.5000 
     47 CA          1.9197  -15.6357  -38.9966 C.3       5 UNK         0.1400 
     48 CB          3.4049  -15.2649  -39.1444 C.3       5 UNK        -0.1800 
     49 N           1.1040  -14.6277  -39.6537 N.am      5 UNK        -0.5000 
     50 C           0.5285  -13.5625  -39.0897 C.2       4 UNK         0.5000 
     51 O           0.7093  -13.2228  -37.9198 O.2       4 UNK        -0.5000 
     52 CA         -0.4198  -12.7423  -39.9896 C.3       4 UNK         0.1400 
     53 CB          0.2637  -11.4470  -40.4544 C.3       4 UNK        -0.1800 
     54 N          -0.8705  -13.4834  -41.1722 N.am      4 UNK        -0.5000 
     55 C          -1.7519  -14.4945  -41.1624 C.2       3 UNK         0.5000 
     56 O          -2.3258  -14.8841  -40.1446 O.2       3 UNK        -0.5000 
     57 CA         -1.9966  -15.2034  -42.5126 C.3       3 UNK         0.1400 
     58 CB         -3.3736  -15.8939  -42.5954 C.3       3 UNK        -0.1800 
     59 N          -1.7676  -14.3462  -43.6830 N.am      3 UNK        -0.5000 
     60 C          -2.4368  -13.2300  -44.0108 C.2       2 UNK         0.5000 
     61 O          -3.3556  -12.7544  -43.3432 O.2       2 UNK        -0.5000 
     62 CA         -1.9886  -12.5025  -45.2929 C.3       2 UNK         0.1400 
     63 CB         -1.1035  -11.2983  -44.9342 C.3       2 UNK        -0.1800 
     64 N          -1.2646  -13.3416  -46.2517 N.am      2 UNK        -0.5000 
     65 C          -1.7742  -14.3742  -46.9361 C.2       1 UNK         0.5000 
     66 O          -2.9150  -14.8045  -46.7680 O.2       1 UNK        -0.5000 
     67 C           0.6926  -20.1186  -48.9436 C.2       11 UNK         0.5000 
     68 O           0.7613  -20.6437  -50.0537 O.2       11 UNK        -0.5000 
     69 N          -0.4562  -19.6976  -48.3902 N.am      12 UNK        -0.5000 
     70 CA         -1.7752  -19.8878  -49.0015 C.3       12 UNK         0.1400 
     71 CB         -2.7646  -18.8689  -48.4172 C.3       12 UNK        -0.1800 
     72 C          -2.3166  -21.3180  -48.8174 C.2       12 UNK         0.5000 
     73 O          -3.0256  -21.8138  -49.6965 O.2       12 UNK        -0.5000 
     74 N          -1.9518  -21.9413  -47.6890 N.am      13 UNK        -0.5000 
     75 CA         -2.3219  -23.2728  -47.2072 C.3       13 UNK         0.1400 
     76 CB         -1.9872  -24.3638  -48.2447 C.3       13 UNK        -0.1800 
     77 C          -3.7840  -23.3577  -46.7292 C.2       13 UNK         0.5000 
     78 O          -4.5730  -22.4268  -46.9176 O.2       13 UNK        -0.5000 
     79 N          -4.1142  -24.4888  -46.0906 N.am      14 UNK        -0.5000 
     80 CA         -5.4478  -24.8125  -45.5820 C.3       14 UNK         0.1400 
     81 CB         -5.4041  -26.1766  -44.8772 C.3       14 UNK        -0.1800 
     82 C          -6.4952  -24.8157  -46.7084 C.2       14 UNK         0.5000 
     83 O          -6.2475  -25.4004  -47.7646 O.2       14 UNK        -0.5000 
     84 N          -7.6168  -24.1203  -46.4759 N.am      15 UNK        -0.5000 
     85 CA         -8.7187  -23.8905  -47.4206 C.3       15 UNK         0.1400 
     86 CB         -9.4695  -25.2088  -47.7051 C.3       15 UNK        -0.1800 
     87 C          -8.2929  -23.1605  -48.7172 C.2       15 UNK         0.5000 
     88 O          -8.9768  -23.2848  -49.7343 O.2       15 UNK        -0.5000 
     89 N          -7.1726  -22.4196  -48.6581 N.am      16 UNK        -0.5000 
     90 CA         -6.5211  -21.7014  -49.7592 C.3       16 UNK         0.1400 
     91 CB         -7.4266  -20.5625  -50.2784 C.3       16 UNK        -0.1800 
     92 C          -6.0218  -22.6359  -50.8845 C.2       16 UNK         0.5000 
     93 O          -5.9705  -22.2223  -52.0435 O.2       16 UNK        -0.5000 
     94 N          -5.6680  -23.8824  -50.5331 N.am      17 UNK        -0.5000 
     95 CA         -5.3024  -24.9464  -51.4713 C.3       17 UNK         0.1400 
     96 CB         -5.0918  -26.2575  -50.6999 C.3       17 UNK        -0.1800 
     97 C          -4.0786  -24.6417  -52.3549 C.2       17 UNK         0.5000 
     98 O          -4.0716  -25.0388  -53.5208 O.2       17 UNK        -0.5000 
     99 N          -3.0780  -23.9409  -51.8045 N.am      18 UNK        -0.5000 
    100 CA        -1.9010  -23.5034  -52.5535 C.3       18 UNK         0.1400 
    101 CB        -0.6747  -23.4325  -51.6333 C.3       18 UNK        -0.1800 
    102 C         -2.1621  -22.1575  -53.2423 C.2       18 UNK         0.5000 
    103 O         -1.7355  -21.9737  -54.3811 O.2       18 UNK        -0.5000 
    104 N         -2.8922  -21.2501  -52.5763 N.am      19 UNK        -0.5000 
    105 CA        -3.2992  -19.9477  -53.1174 C.3       19 UNK         0.1400 
    106 CB        -3.9986  -19.1166  -52.0315 C.3       19 UNK        -0.1800 
    107 C         -4.1535  -20.0401  -54.3964 C.2       19 UNK         0.5000 
    108 O         -4.0599  -19.1574  -55.2478 O.2       19 UNK        -0.5000 
    109 N         -4.9278  -21.1238  -54.5290 N.am      20 UNK        -0.5000 
    110 CA        -5.6648  -21.4853  -55.7384 C.3       20 UNK         0.1400 
    111 CB        -6.6551  -22.6081  -55.3926 C.3       20 UNK        -0.1800 
    112 C         -4.7580  -21.9118  -56.9137 C.2       20 UNK         0.5000 
    113 O         -5.1755  -21.7806  -58.0652 O.2       20 UNK        -0.5000 
    114 N         -3.5547  -22.4246  -56.6176 N.am      21 UNK        -0.5000 
    115 CA        -2.5671  -22.8528  -57.6095 C.3       21 UNK         0.1400 
    116 CB        -1.7651  -24.0434  -57.0592 C.3       21 UNK        -0.1800 
    117 C         -1.6318  -21.7012  -58.0196 C.2       21 UNK         0.5000 
    118 O         -1.2910  -21.5971  -59.1991 O.2       21 UNK        -0.5000 
    119 N         -1.2403  -20.8573  -57.0542 N.am      22 UNK        -0.5000 
    120 CA        -0.4726  -19.6197  -57.2786 C.3       22 UNK         0.1400 
    121 C         -1.2293  -18.5756  -58.1521 C.2       22 UNK         0.5000 
    122 N         -0.5059  -17.7361  -58.8813 N.am      22 UNK        -0.7600 
    123 O         -2.4549  -18.4906  -58.1537 O.2       22 UNK        -0.5000 
    124 C124       -0.0132  -18.9757  -55.9436 C.3       23 UNK        -0.0398 
    125 S125        1.3540  -19.8961  -55.1572 S.3       23 UNK        -0.2404 
    126 C126        0.8470  -19.9521  -53.4100 C.3       23 UNK        -0.0205 
    127 H127        3.1561  -14.1972  -46.1924 H         1 UNK         0.0600 
    128 H128        3.5875  -14.1316  -47.9022 H         1 UNK         0.0600 
    129 H129        3.0233  -15.6457  -47.2037 H         1 UNK         0.0600 
    130 H130        0.8056  -16.0639  -47.2606 H         1 UNK         0.3000 
    131 H131       -1.1848  -16.0733  -48.0433 H         1 UNK         0.0600 
    132 H132       -0.1137  -14.0938  -49.8350 H         1 UNK         0.0800 
    133 H133       -1.6176  -13.4369  -49.3330 H         1 UNK         0.0800 
    134 H134       -1.4628  -15.5370  -52.9096 H         1 UNK         0.0800 
    135 H135       -0.4018  -14.4134  -52.1154 H         1 UNK         0.0800 
    136 H136       -0.8408  -17.8040  -53.2502 H         1 UNK         0.1150 
    137 H137        2.9875  -19.1910  -51.9189 H         1 UNK         0.1150 
    138 H138        1.5235  -15.3736  -50.6405 H         1 UNK         0.1150 
    139 H139        4.4783  -16.8808  -51.0003 H         1 UNK         0.0800 
    140 H140        3.5426  -16.1648  -49.7121 H         1 UNK         0.0800 
    141 H141        1.8540  -17.8050  -48.4061 H         1 UNK         0.0800 
    142 H142        2.9599  -18.2704  -47.1541 H         1 UNK         0.0800 
    143 H143        2.6923  -20.6973  -48.4931 H         1 UNK         0.0600 
    144 H144        1.7186  -19.7123  -45.9947 H         1 UNK         0.3000 
    145 H145        0.3010  -22.6911  -44.8465 H         1 UNK         0.0600 
    146 H146        2.0393  -22.7821  -43.0921 H         1 UNK         0.0600 
    147 H147        2.6974  -23.3900  -44.6019 H         1 UNK         0.0600 
    148 H148        3.1141  -21.7694  -44.0563 H         1 UNK         0.0600 
    149 H149        1.1348  -20.4462  -43.3629 H         1 UNK         0.3000 
    150 H150       -1.5779  -18.2378  -44.2091 H         1 UNK         0.0600 
    151 H151       -2.3335  -19.7037  -42.3663 H         1 UNK         0.0600 
    152 H152       -1.5909  -18.2606  -41.6925 H         1 UNK         0.0600 
    153 H153       -0.7070  -19.7804  -41.7037 H         1 UNK         0.0600 
    154 H154        0.7137  -17.8523  -42.5708 H         1 UNK         0.3000 
    155 H155        2.9065  -16.5268  -45.0454 H         1 UNK         0.0600 
    156 H156        2.8893  -14.6750  -43.3853 H         1 UNK         0.0600 
    157 H157        1.3738  -15.2616  -42.7079 H         1 UNK         0.0600 
    158 H158        1.4240  -14.6496  -44.3521 H         1 UNK         0.0600 
    159 H159        3.0274  -17.0754  -42.2003 H         1 UNK         0.3000 
    160 H160        4.5932  -20.2511  -42.5326 H         1 UNK         0.0600 
    161 H161        5.8208  -17.5566  -41.7313 H         1 UNK         0.0600 
    162 H162        6.4792  -18.6601  -42.9336 H         1 UNK         0.0600 
    163 H163        6.4055  -19.1493  -41.2486 H         1 UNK         0.0600 
    164 H164        4.0922  -18.5733  -40.2744 H         1 UNK         0.3000 
    165 H165        0.7450  -19.6039  -39.6453 H         1 UNK         0.0600 
    166 H166        1.7287  -20.3161  -37.4890 H         1 UNK         0.0600 
    167 H167        2.1451  -21.4709  -38.7445 H         1 UNK         0.0600 
    168 H168        3.3481  -20.3133  -38.1886 H         1 UNK         0.0600 
    169 H169        2.4348  -17.9776  -38.0996 H         1 UNK         0.3000 
    170 H170        1.6522  -15.7058  -37.9402 H         1 UNK         0.0600 
    171 H171        4.0462  -15.9994  -38.6561 H         1 UNK         0.0600 
    172 H172        3.7037  -15.2094  -40.1921 H         1 UNK         0.0600 
    173 H173        3.6149  -14.2979  -38.6869 H         1 UNK         0.0600 
    174 H174        0.8372  -14.8759  -40.5962 H         1 UNK         0.3000 
    175 H175       -1.2947  -12.4762  -39.3928 H         1 UNK         0.0600 
    176 H176        1.1464  -11.6529  -41.0613 H         1 UNK         0.0600 
    177 H177       -0.4155  -10.8326  -41.0458 H         1 UNK         0.0600 
    178 H178        0.5843  -10.8467  -39.6019 H         1 UNK         0.0600 
    179 H179       -0.4623  -13.2141  -42.0545 H         1 UNK         0.3000 
    180 H180       -1.2395  -15.9841  -42.5635 H         1 UNK         0.0600 
    181 H181       -3.4962  -16.4126  -43.5463 H         1 UNK         0.0600 
    182 H182       -4.1917  -15.1806  -42.4943 H         1 UNK         0.0600 
    183 H183       -3.4906  -16.6362  -41.8053 H         1 UNK         0.0600 
    184 H184       -1.0432  -14.6463  -44.3181 H         1 UNK         0.3000 
    185 H185       -2.8892  -12.1326  -45.7872 H         1 UNK         0.0600 
    186 H186       -1.6132  -10.6281  -44.2405 H         1 UNK         0.0600 
    187 H187       -0.1703  -11.6107  -44.4638 H         1 UNK         0.0600 
    188 H188       -0.8529  -10.7154  -45.8208 H         1 UNK         0.0600 
    189 H189       -0.3314  -13.0375  -46.5116 H         1 UNK         0.3000 
    190 H190       -0.4386  -19.3199  -47.4527 H         1 UNK         0.3000 
    191 H191       -1.6858  -19.7075  -50.0740 H         1 UNK         0.0600 
    192 H192       -3.7711  -19.0327  -48.8049 H         1 UNK         0.0600 
    193 H193       -2.4822  -17.8520  -48.6822 H         1 UNK         0.0600 
    194 H194       -2.8181  -18.9345  -47.3298 H         1 UNK         0.0600 
    195 H195       -1.4758  -21.3718  -46.9955 H         1 UNK         0.3000 
    196 H196       -1.6952  -23.4431  -46.3308 H         1 UNK         0.0600 
    197 H197       -2.6809  -24.3519  -49.0836 H         1 UNK         0.0600 
    198 H198       -0.9774  -24.2386  -48.6359 H         1 UNK         0.0600 
    199 H199       -2.0383  -25.3585  -47.8016 H         1 UNK         0.0600 
    200 H200       -3.4183  -25.2130  -45.9936 H         1 UNK         0.3000 
    201 H201       -5.7155  -24.0514  -44.8463 H         1 UNK         0.0600 
    202 H202       -5.1119  -26.9739  -45.5621 H         1 UNK         0.0600 
    203 H203       -6.3820  -26.4365  -44.4698 H         1 UNK         0.0600 
    204 H204       -4.6980  -26.1707  -44.0467 H         1 UNK         0.0600 
    205 H205       -7.7152  -23.6579  -45.5824 H         1 UNK         0.3000 
    206 H206       -9.4149  -23.2188  -46.9165 H         1 UNK         0.0600 
    207 H207       -9.7627  -25.7037  -46.7793 H         1 UNK         0.0600 
    208 H208      -10.3811  -25.0265  -48.2752 H         1 UNK         0.0600 
    209 H209       -8.8596  -25.9062  -48.2801 H         1 UNK         0.0600 
    210 H210       -6.6553  -22.4112  -47.7869 H         1 UNK         0.3000 
    211 H211       -5.6296  -21.2406  -49.3327 H         1 UNK         0.0600 
    212 H212       -6.9083  -19.9377  -51.0045 H         1 UNK         0.0600 
    213 H213       -7.7455  -19.9117  -49.4644 H         1 UNK         0.0600 
    214 H214       -8.3201  -20.9460  -50.7711 H         1 UNK         0.0600 
    215 H215       -5.7606  -24.1549  -49.5620 H         1 UNK         0.3000 
    216 H216       -6.1523  -25.0859  -52.1426 H         1 UNK         0.0600 
    217 H217       -4.3181  -26.1567  -49.9379 H         1 UNK         0.0600 
    218 H218       -4.7927  -27.0652  -51.3693 H         1 UNK         0.0600 
    219 H219       -6.0104  -26.5736  -50.2055 H         1 UNK         0.0600 
    220 H220       -3.1855  -23.5728  -50.8663 H         1 UNK         0.3000 
    221 H221       -1.6736  -24.2329  -53.3341 H         1 UNK         0.0600 
    222 H222        0.2132  -23.1342  -52.1922 H         1 UNK         0.0600 
    223 H223       -0.4649  -24.4020  -51.1817 H         1 UNK         0.0600 
    224 H224       -0.8059  -22.7109  -50.8299 H         1 UNK         0.0600 
    225 H225       -3.1927  -21.4730  -51.6330 H         1 UNK         0.3000 
    226 H226       -2.3929  -19.4163  -53.4027 H         1 UNK         0.0600 
    227 H227       -4.7013  -19.7168  -51.4573 H         1 UNK         0.0600 
    228 H228       -3.2751  -18.6911  -51.3388 H         1 UNK         0.0600 
    229 H229       -4.5493  -18.2779  -52.4597 H         1 UNK         0.0600 
    230 H230       -5.0302  -21.7418  -53.7293 H         1 UNK         0.3000 
    231 H231       -6.2356  -20.6126  -56.0618 H         1 UNK         0.0600 
    232 H232       -6.1397  -23.4995  -55.0322 H         1 UNK         0.0600 
    233 H233       -7.2429  -22.8962  -56.2650 H         1 UNK         0.0600 
    234 H234       -7.3549  -22.2916  -54.6186 H         1 UNK         0.0600 
    235 H235       -3.2525  -22.4429  -55.6511 H         1 UNK         0.3000 
    236 H236       -3.0855  -23.1961  -58.5073 H         1 UNK         0.0600 
    237 H237       -2.4237  -24.8630  -56.7710 H         1 UNK         0.0600 
    238 H238       -1.0774  -24.4278  -57.8134 H         1 UNK         0.0600 
    239 H239       -1.1705  -23.7702  -56.1877 H         1 UNK         0.0600 
    240 H240       -1.5196  -21.0537  -56.0990 H         1 UNK         0.3000 
    241 H241        0.4188  -19.9050  -57.8410 H         1 UNK         0.0600 
    242 H242       -0.9788  -17.0458  -59.4443 H         1 UNK         0.3800 
    243 H243        0.5016  -17.7793  -58.8980 H         1 UNK         0.3800 
    244 H244       -0.8617  -18.8958  -55.2647 H         1 UNK         0.0800 
    245 H245        0.3480  -17.9572  -56.0980 H         1 UNK         0.0800 
    246 H246        1.4037  -20.7457  -52.9093 H         1 UNK         0.0800 
    247 H247       -0.1974  -20.2337  -53.3353 H         1 UNK         0.0800 
@<TRIPOS>BOND
     1    1    2 1    
     2    1  127 1    
     3    1  128 1    
     4    1  129 1    
     5    2    3 2    
     6    2    4 am   BACKBONE|DICT|INTERRES
     7    4    5 1    
     8    4  130 1    
     9    5    6 1    
    10    5   65 1    
    11    5  131 1    
    12    6    7 1    
    13    6  132 1    
    14    6  133 1    
    15    7    8 1    
    16    8    9 1    
    17    8  134 1    
    18    8  135 1    
    19    9   10 ar   
    20    9   14 ar   
    21   10   11 ar   
    22   10  136 1    
    23   11   12 ar   
    24   11  126 1    
    25   12   13 ar   
    26   12  137 1    
    27   13   14 ar   
    28   13   15 1    
    29   14  138 1    
    30   15   16 1    
    31   15  139 1    
    32   15  140 1    
    33   16   17 1    
    34   17   18 1    
    35   17  141 1    
    36   17  142 1    
    37   18   19 1    
    38   18   67 1    
    39   18  143 1    
    40   19   20 am   BACKBONE|DICT|INTERRES
    41   19  144 1    
    42   20   21 2    
    43   20   22 1    
    44   22   23 1    
    45   22   24 1    
    46   22  145 1    
    47   23  146 1    
    48   23  147 1    
    49   23  148 1    
    50   24   25 am   BACKBONE|DICT|INTERRES
    51   24  149 1    
    52   25   26 2    
    53   25   27 1    
    54   27   28 1    
    55   27   29 1    
    56   27  150 1    
    57   28  151 1    
    58   28  152 1    
    59   28  153 1    
    60   29   30 am   BACKBONE|DICT|INTERRES
    61   29  154 1    
    62   30   31 2    
    63   30   32 1    
    64   32   33 1    
    65   32   34 1    
    66   32  155 1    
    67   33  156 1    
    68   33  157 1    
    69   33  158 1    
    70   34   35 am   BACKBONE|DICT|INTERRES
    71   34  159 1    
    72   35   36 2    
    73   35   37 1    
    74   37   38 1    
    75   37   39 1    
    76   37  160 1    
    77   38  161 1    
    78   38  162 1    
    79   38  163 1    
    80   39   40 am   BACKBONE|DICT|INTERRES
    81   39  164 1    
    82   40   41 2    
    83   40   42 1    
    84   42   43 1    
    85   42   44 1    
    86   42  165 1    
    87   43  166 1    
    88   43  167 1    
    89   43  168 1    
    90   44   45 am   BACKBONE|DICT|INTERRES
    91   44  169 1    
    92   45   46 2    
    93   45   47 1    
    94   47   48 1    
    95   47   49 1    
    96   47  170 1    
    97   48  171 1    
    98   48  172 1    
    99   48  173 1    
   100   49   50 am   BACKBONE|DICT|INTERRES
   101   49  174 1    
   102   50   51 2    
   103   50   52 1    
   104   52   53 1    
   105   52   54 1    
   106   52  175 1    
   107   53  176 1    
   108   53  177 1    
   109   53  178 1    
   110   54   55 am   BACKBONE|DICT|INTERRES
   111   54  179 1    
   112   55   56 2    
   113   55   57 1    
   114   57   58 1    
   115   57   59 1    
   116   57  180 1    
   117   58  181 1    
   118   58  182 1    
   119   58  183 1    
   120   59   60 am   BACKBONE|DICT|INTERRES
   121   59  184 1    
   122   60   61 2    
   123   60   62 1    
   124   62   63 1    
   125   62   64 1    
   126   62  185 1    
   127   63  186 1    
   128   63  187 1    
   129   63  188 1    
   130   64   65 am   BACKBONE|DICT|INTERRES
   131   64  189 1    
   132   65   66 2    
   133   67   68 2    
   134   67   69 am   BACKBONE|DICT|INTERRES
   135   69   70 1    
   136   69  190 1    
   137   70   71 1    
   138   70   72 1    
   139   70  191 1    
   140   71  192 1    
   141   71  193 1    
   142   71  194 1    
   143   72   73 2    
   144   72   74 am   BACKBONE|DICT|INTERRES
   145   74   75 1    
   146   74  195 1    
   147   75   76 1    
   148   75   77 1    
   149   75  196 1    
   150   76  197 1    
   151   76  198 1    
   152   76  199 1    
   153   77   78 2    
   154   77   79 am   BACKBONE|DICT|INTERRES
   155   79   80 1    
   156   79  200 1    
   157   80   81 1    
   158   80   82 1    
   159   80  201 1    
   160   81  202 1    
   161   81  203 1    
   162   81  204 1    
   163   82   83 2    
   164   82   84 am   BACKBONE|DICT|INTERRES
   165   84   85 1    
   166   84  205 1    
   167   85   86 1    
   168   85   87 1    
   169   85  206 1    
   170   86  207 1    
   171   86  208 1    
   172   86  209 1    
   173   87   88 2    
   174   87   89 am   BACKBONE|DICT|INTERRES
   175   89   90 1    
   176   89  210 1    
   177   90   91 1    
   178   90   92 1    
   179   90  211 1    
   180   91  212 1    
   181   91  213 1    
   182   91  214 1    
   183   92   93 2    
   184   92   94 am   BACKBONE|DICT|INTERRES
   185   94   95 1    
   186   94  215 1    
   187   95   96 1    
   188   95   97 1    
   189   95  216 1    
   190   96  217 1    
   191   96  218 1    
   192   96  219 1    
   193   97   98 2    
   194   97   99 am   BACKBONE|DICT|INTERRES
   195   99  100 1    
   196   99  220 1    
   197  100  101 1    
   198  100  102 1    
   199  100  221 1    
   200  101  222 1    
   201  101  223 1    
   202  101  224 1    
   203  102  103 2    
   204  102  104 am   BACKBONE|DICT|INTERRES
   205  104  105 1    
   206  104  225 1    
   207  105  106 1    
   208  105  107 1    
   209  105  226 1    
   210  106  227 1    
   211  106  228 1    
   212  106  229 1    
   213  107  108 2    
   214  107  109 am   BACKBONE|DICT|INTERRES
   215  109  110 1    
   216  109  230 1    
   217  110  111 1    
   218  110  112 1    
   219  110  231 1    
   220  111  232 1    
   221  111  233 1    
   222  111  234 1    
   223  112  113 2    
   224  112  114 am   BACKBONE|DICT|INTERRES
   225  114  115 1    
   226  114  235 1    
   227  115  116 1    
   228  115  117 1    
   229  115  236 1    
   230  116  237 1    
   231  116  238 1    
   232  116  239 1    
   233  117  118 2    
   234  117  119 am   BACKBONE|DICT|INTERRES
   235  119  120 1    
   236  119  240 1    
   237  120  121 1    
   238  120  124 1    
   239  120  241 1    
   240  121  122 am   BACKBONE|DICT|INTERRES
   241  121  123 2    
   242  122  242 1    
   243  122  243 1    
   244  124  125 1    
   245  124  244 1    
   246  124  245 1    
   247  125  126 1    
   248  126  246 1    
   249  126  247 1    
@<TRIPOS>SUBSTRUCTURE
     1 UNK         1 GROUP             0       ****    0 ROOT    
