@<TRIPOS>MOLECULE
3R540
247   249    1
SMALL
USER_CHARGES


@<TRIPOS>ATOM
      1 CA          3.8745  -16.4054  -47.5218 C.3       0 UNK        -0.1800 
      2 C           3.4511  -14.9715  -47.8014 C.2       0 UNK         0.5000 
      3 O           4.2768  -14.1603  -48.2188 O.2       0 UNK        -0.5000 
      4 N           2.1675  -14.6663  -47.5677 N.am      1 UNK        -0.5000 
      5 CA          1.5375  -13.3469  -47.7281 C.3       1 UNK         0.1400 
      6 C6          1.4283  -12.8847  -49.2067 C.3       23 UNK        -0.0398 
      7 S7          0.1674  -13.8568  -50.0951 S.3       23 UNK        -0.2404 
      8 C8          1.1632  -15.0345  -51.0684 C.3       23 UNK        -0.0205 
      9 C9          0.5563  -16.4340  -51.0726 C.ar      23 UNK        -0.0193 
     10 C10        -0.8039  -16.6278  -51.3451 C.ar      23 UNK        -0.1150 
     11 C11        -1.3620  -17.9081  -51.3133 C.ar      23 UNK        -0.0193 
     12 C12        -0.5459  -19.0042  -51.0260 C.ar      23 UNK        -0.1150 
     13 C13         0.8197  -18.8334  -50.7861 C.ar      23 UNK        -0.0193 
     14 C14         1.3645  -17.5453  -50.8111 C.ar      23 UNK        -0.1150 
     15 C15         1.6969  -20.0511  -50.5236 C.3       23 UNK        -0.0205 
     16 S16         2.6924  -19.9405  -48.9998 S.3       23 UNK        -0.2404 
     17 C17         1.4821  -19.4515  -47.7251 C.3       23 UNK        -0.0398 
     18 CA          0.7192  -20.6399  -47.0911 C.3       11 UNK         0.1400 
     19 N           0.4631  -20.4365  -45.6637 N.am      11 UNK        -0.5000 
     20 C           0.0422  -21.3957  -44.8276 C.2       10 UNK         0.5000 
     21 O          -0.1590  -22.5612  -45.1707 O.2       10 UNK        -0.5000 
     22 CA         -0.2412  -20.9731  -43.3750 C.3       10 UNK         0.1400 
     23 CB          1.0657  -20.8247  -42.5824 C.3       10 UNK        -0.1800 
     24 N          -1.0124  -19.7330  -43.2843 N.am      10 UNK        -0.5000 
     25 C          -2.2559  -19.5746  -43.7587 C.2       9 UNK         0.5000 
     26 O          -2.8896  -20.4587  -44.3329 O.2       9 UNK        -0.5000 
     27 CA         -2.8870  -18.1835  -43.5947 C.3       9 UNK         0.1400 
     28 CB         -3.4489  -17.9993  -42.1770 C.3       9 UNK        -0.1800 
     29 N          -1.9391  -17.1120  -43.8907 N.am      9 UNK        -0.5000 
     30 C          -1.4659  -16.8398  -45.1136 C.2       8 UNK         0.5000 
     31 O          -1.7727  -17.4664  -46.1281 O.2       8 UNK        -0.5000 
     32 CA         -0.4381  -15.6979  -45.2042 C.3       8 UNK         0.1400 
     33 CB         -1.1279  -14.3352  -45.0302 C.3       8 UNK        -0.1800 
     34 N           0.6471  -15.8224  -44.2277 N.am      8 UNK        -0.5000 
     35 C           1.4570  -16.8844  -44.1101 C.2       7 UNK         0.5000 
     36 O           1.4195  -17.8570  -44.8601 O.2       7 UNK        -0.5000 
     37 CA          2.4444  -16.8895  -42.9310 C.3       7 UNK         0.1400 
     38 CB          3.7373  -16.1545  -43.3116 C.3       7 UNK        -0.1800 
     39 N           1.8999  -16.3348  -41.6885 N.am      7 UNK        -0.5000 
     40 C           0.7812  -16.7554  -41.0747 C.2       6 UNK         0.5000 
     41 O           0.0451  -17.6336  -41.5300 O.2       6 UNK        -0.5000 
     42 CA          0.4315  -16.0813  -39.7297 C.3       6 UNK         0.1400 
     43 CB         -0.6174  -16.8668  -38.9157 C.3       6 UNK        -0.1800 
     44 N           1.6133  -15.7904  -38.9125 N.am      6 UNK        -0.5000 
     45 C           2.5343  -16.6634  -38.4699 C.2       5 UNK         0.5000 
     46 O           2.4381  -17.8842  -38.6058 O.2       5 UNK        -0.5000 
     47 CA          3.7796  -16.0734  -37.7653 C.3       5 UNK         0.1400 
     48 CB          5.0518  -16.9044  -38.0350 C.3       5 UNK        -0.1800 
     49 N           4.0245  -14.6546  -38.0628 N.am      5 UNK        -0.5000 
     50 C           4.2373  -14.1063  -39.2677 C.2       4 UNK         0.5000 
     51 O           4.2749  -14.7397  -40.3242 O.2       4 UNK        -0.5000 
     52 CA          4.3518  -12.5730  -39.3027 C.3       4 UNK         0.1400 
     53 CB          5.7172  -12.1376  -39.8571 C.3       4 UNK        -0.1800 
     54 N           3.2933  -11.9775  -40.1179 N.am      4 UNK        -0.5000 
     55 C           1.9727  -12.1303  -39.9348 C.2       3 UNK         0.5000 
     56 O           1.4779  -12.7772  -39.0101 O.2       3 UNK        -0.5000 
     57 CA          1.0473  -11.4519  -40.9629 C.3       3 UNK         0.1400 
     58 CB          0.5425  -10.1050  -40.4238 C.3       3 UNK        -0.1800 
     59 N           1.7036  -11.2354  -42.2551 N.am      3 UNK        -0.5000 
     60 C           1.9137  -12.2005  -43.1572 C.2       2 UNK         0.5000 
     61 O           1.5265  -13.3648  -43.0213 O.2       2 UNK        -0.5000 
     62 CA          2.7030  -11.7995  -44.4104 C.3       2 UNK         0.1400 
     63 CB          4.2171  -11.9289  -44.1752 C.3       2 UNK        -0.1800 
     64 N           2.3001  -12.6682  -45.5091 N.am      2 UNK        -0.5000 
     65 C           2.1576  -12.2910  -46.7848 C.2       1 UNK         0.5000 
     66 O           2.4709  -11.1757  -47.2056 O.2       1 UNK        -0.5000 
     67 C          -0.5813  -20.9560  -47.8543 C.2       11 UNK         0.5000 
     68 O          -0.5920  -21.8791  -48.6673 O.2       11 UNK        -0.5000 
     69 N          -1.6679  -20.2300  -47.5479 N.am      12 UNK        -0.5000 
     70 CA         -2.9918  -20.4660  -48.1257 C.3       12 UNK         0.1400 
     71 CB         -3.9521  -19.3411  -47.7157 C.3       12 UNK        -0.1800 
     72 C          -3.5681  -21.8469  -47.7653 C.2       12 UNK         0.5000 
     73 O          -4.1203  -22.5125  -48.6398 O.2       12 UNK        -0.5000 
     74 N          -3.3911  -22.2729  -46.5066 N.am      13 UNK        -0.5000 
     75 CA         -3.7754  -23.5978  -46.0173 C.3       13 UNK         0.1400 
     76 CB         -3.6274  -23.6480  -44.4893 C.3       13 UNK        -0.1800 
     77 C          -2.9782  -24.7368  -46.6792 C.2       13 UNK         0.5000 
     78 O          -3.5541  -25.7853  -46.9688 O.2       13 UNK        -0.5000 
     79 N          -1.6817  -24.5084  -46.9311 N.am      14 UNK        -0.5000 
     80 CA         -0.8114  -25.4330  -47.6585 C.3       14 UNK         0.1400 
     81 CB          0.6551  -25.0136  -47.4728 C.3       14 UNK        -0.1800 
     82 C          -1.1737  -25.5240  -49.1532 C.2       14 UNK         0.5000 
     83 O          -1.2015  -26.6232  -49.7081 O.2       14 UNK        -0.5000 
     84 N          -1.4618  -24.3709  -49.7718 N.am      15 UNK        -0.5000 
     85 CA         -1.8329  -24.2450  -51.1818 C.3       15 UNK         0.1400 
     86 CB         -1.7329  -22.7703  -51.6008 C.3       15 UNK        -0.1800 
     87 C          -3.2319  -24.7926  -51.5163 C.2       15 UNK         0.5000 
     88 O          -3.4735  -25.1138  -52.6777 O.2       15 UNK        -0.5000 
     89 N          -4.1201  -24.8883  -50.5150 N.am      16 UNK        -0.5000 
     90 CA         -5.5488  -25.2164  -50.6212 C.3       16 UNK         0.1400 
     91 CB         -6.1433  -25.3274  -49.2088 C.3       16 UNK        -0.1800 
     92 C          -5.9100  -26.4744  -51.4384 C.2       16 UNK         0.5000 
     93 O          -7.0119  -26.5373  -51.9847 O.2       16 UNK        -0.5000 
     94 N          -4.9843  -27.4390  -51.5273 N.am      17 UNK        -0.5000 
     95 CA         -5.1075  -28.6547  -52.3355 C.3       17 UNK         0.1400 
     96 CB         -3.9370  -29.5911  -51.9983 C.3       17 UNK        -0.1800 
     97 C          -5.1688  -28.3974  -53.8576 C.2       17 UNK         0.5000 
     98 O          -5.7143  -29.2286  -54.5848 O.2       17 UNK        -0.5000 
     99 N          -4.6216  -27.2641  -54.3131 N.am      18 UNK        -0.5000 
    100 CA        -4.6073  -26.8233  -55.7055 C.3       18 UNK         0.1400 
    101 CB        -3.4673  -27.5232  -56.4721 C.3       18 UNK        -0.1800 
    102 C         -4.4984  -25.2909  -55.7121 C.2       18 UNK         0.5000 
    103 O         -3.5112  -24.7407  -56.2030 O.2       18 UNK        -0.5000 
    104 N         -5.4939  -24.6434  -55.0874 N.am      19 UNK        -0.5000 
    105 CA        -5.4991  -23.2230  -54.7268 C.3       19 UNK         0.1400 
    106 CB        -6.8075  -22.8981  -53.9885 C.3       19 UNK        -0.1800 
    107 C         -5.2958  -22.2574  -55.9065 C.2       19 UNK         0.5000 
    108 O         -4.5250  -21.3057  -55.7771 O.2       19 UNK        -0.5000 
    109 N         -5.9880  -22.5223  -57.0256 N.am      20 UNK        -0.5000 
    110 CA        -5.9778  -21.7430  -58.2687 C.3       20 UNK         0.1400 
    111 CB        -4.6542  -21.9794  -59.0303 C.3       20 UNK        -0.1800 
    112 C         -6.2973  -20.2543  -58.0076 C.2       20 UNK         0.5000 
    113 O         -7.4306  -19.9387  -57.6394 O.2       20 UNK        -0.5000 
    114 N         -5.2910  -19.3791  -58.1424 N.am      21 UNK        -0.5000 
    115 CA        -5.3584  -17.9434  -57.8571 C.3       21 UNK         0.1400 
    116 CB        -4.0257  -17.2944  -58.2610 C.3       21 UNK        -0.1800 
    117 C         -5.7019  -17.6008  -56.3917 C.2       21 UNK         0.5000 
    118 O         -6.2463  -16.5241  -56.1425 O.2       21 UNK        -0.5000 
    119 N         -5.4073  -18.5152  -55.4575 N.am      22 UNK        -0.5000 
    120 CA        -5.8140  -18.4235  -54.0456 C.3       22 UNK         0.1400 
    121 C         -7.3144  -18.7684  -53.7980 C.2       22 UNK         0.5000 
    122 N         -8.0701  -19.2573  -54.7760 N.am      22 UNK        -0.7600 
    123 O         -7.8082  -18.5814  -52.6897 O.2       22 UNK        -0.5000 
    124 C124       -4.9014  -19.2663  -53.1161 C.3       23 UNK        -0.0398 
    125 S125       -3.1349  -18.8186  -53.2275 S.3       23 UNK        -0.2404 
    126 C126       -2.8453  -18.1148  -51.5753 C.3       23 UNK        -0.0205 
    127 H127        3.1694  -16.9060  -46.8598 H         1 UNK         0.0600 
    128 H128        4.8535  -16.4251  -47.0429 H         1 UNK         0.0600 
    129 H129        3.9357  -16.9693  -48.4525 H         1 UNK         0.0600 
    130 H130        1.5509  -15.4020  -47.2589 H         1 UNK         0.3000 
    131 H131        0.5172  -13.4616  -47.3609 H         1 UNK         0.0600 
    132 H132        2.3907  -12.9271  -49.7176 H         1 UNK         0.0800 
    133 H133        1.1028  -11.8449  -49.2665 H         1 UNK         0.0800 
    134 H134        2.1789  -15.0693  -50.6724 H         1 UNK         0.0800 
    135 H135        1.2419  -14.6742  -52.0947 H         1 UNK         0.0800 
    136 H136       -1.4329  -15.7771  -51.5663 H         1 UNK         0.1150 
    137 H137       -0.9775  -19.9944  -51.0041 H         1 UNK         0.1150 
    138 H138        2.4200  -17.4114  -50.6203 H         1 UNK         0.1150 
    139 H139        1.0967  -20.9602  -50.4807 H         1 UNK         0.0800 
    140 H140        2.3728  -20.1792  -51.3698 H         1 UNK         0.0800 
    141 H141        0.8135  -18.6668  -48.0828 H         1 UNK         0.0800 
    142 H142        2.0953  -18.9764  -46.9631 H         1 UNK         0.0800 
    143 H143        1.3545  -21.5258  -47.1601 H         1 UNK         0.0600 
    144 H144        0.6315  -19.5009  -45.3008 H         1 UNK         0.3000 
    145 H145       -0.8328  -21.7636  -42.9087 H         1 UNK         0.0600 
    146 H146        0.8705  -20.5575  -41.5436 H         1 UNK         0.0600 
    147 H147        1.7090  -20.0563  -43.0100 H         1 UNK         0.0600 
    148 H148        1.6280  -21.7592  -42.5799 H         1 UNK         0.0600 
    149 H149       -0.5762  -18.9541  -42.7977 H         1 UNK         0.3000 
    150 H150       -3.7170  -18.1076  -44.3005 H         1 UNK         0.0600 
    151 H151       -4.1892  -18.7675  -41.9500 H         1 UNK         0.0600 
    152 H152       -3.9403  -17.0323  -42.0694 H         1 UNK         0.0600 
    153 H153       -2.6670  -18.0652  -41.4201 H         1 UNK         0.0600 
    154 H154       -1.5671  -16.6038  -43.1016 H         1 UNK         0.3000 
    155 H155        0.0008  -15.7385  -46.2012 H         1 UNK         0.0600 
    156 H156       -1.9171  -14.1999  -45.7709 H         1 UNK         0.0600 
    157 H157       -0.4269  -13.5108  -45.1492 H         1 UNK         0.0600 
    158 H158       -1.5824  -14.2365  -44.0437 H         1 UNK         0.0600 
    159 H159        0.7780  -15.0504  -43.5788 H         1 UNK         0.3000 
    160 H160        2.7013  -17.9302  -42.7286 H         1 UNK         0.0600 
    161 H161        3.5697  -15.0854  -43.4346 H         1 UNK         0.0600 
    162 H162        4.1461  -16.5347  -44.2487 H         1 UNK         0.0600 
    163 H163        4.5038  -16.2872  -42.5483 H         1 UNK         0.0600 
    164 H164        2.4645  -15.6243  -41.2377 H         1 UNK         0.3000 
    165 H165       -0.0061  -15.1150  -39.9840 H         1 UNK         0.0600 
    166 H166       -0.8420  -16.3658  -37.9742 H         1 UNK         0.0600 
    167 H167       -1.5544  -16.9535  -39.4665 H         1 UNK         0.0600 
    168 H168       -0.2790  -17.8776  -38.6864 H         1 UNK         0.0600 
    169 H169        1.7817  -14.8029  -38.7498 H         1 UNK         0.3000 
    170 H170        3.5709  -16.1277  -36.6960 H         1 UNK         0.0600 
    171 H171        5.2812  -16.9583  -39.0997 H         1 UNK         0.0600 
    172 H172        5.9167  -16.4785  -37.5265 H         1 UNK         0.0600 
    173 H173        4.9376  -17.9271  -37.6738 H         1 UNK         0.0600 
    174 H174        3.9699  -14.0366  -37.2648 H         1 UNK         0.3000 
    175 H175        4.2522  -12.1811  -38.2885 H         1 UNK         0.0600 
    176 H176        5.8565  -12.4656  -40.8883 H         1 UNK         0.0600 
    177 H177        5.8268  -11.0533  -39.8319 H         1 UNK         0.0600 
    178 H178        6.5306  -12.5599  -39.2657 H         1 UNK         0.0600 
    179 H179        3.5966  -11.4486  -40.9206 H         1 UNK         0.3000 
    180 H180        0.1839  -12.1044  -41.1109 H         1 UNK         0.0600 
    181 H181       -0.1630   -9.6433  -41.1149 H         1 UNK         0.0600 
    182 H182        1.3611   -9.4032  -40.2595 H         1 UNK         0.0600 
    183 H183        0.0252  -10.2346  -39.4721 H         1 UNK         0.0600 
    184 H184        2.0351  -10.2998  -42.4426 H         1 UNK         0.3000 
    185 H185        2.4602  -10.7617  -44.6488 H         1 UNK         0.0600 
    186 H186        4.5008  -12.9487  -43.9143 H         1 UNK         0.0600 
    187 H187        4.7779  -11.6455  -45.0660 H         1 UNK         0.0600 
    188 H188        4.5464  -11.2786  -43.3641 H         1 UNK         0.0600 
    189 H189        2.0001  -13.5900  -45.2229 H         1 UNK         0.3000 
    190 H190       -1.5939  -19.4735  -46.8769 H         1 UNK         0.3000 
    191 H191       -2.8838  -20.4377  -49.2109 H         1 UNK         0.0600 
    192 H192       -4.0676  -19.2854  -46.6329 H         1 UNK         0.0600 
    193 H193       -4.9423  -19.4957  -48.1461 H         1 UNK         0.0600 
    194 H194       -3.5937  -18.3725  -48.0647 H         1 UNK         0.0600 
    195 H195       -2.9799  -21.6401  -45.8252 H         1 UNK         0.3000 
    196 H196       -4.8292  -23.7492  -46.2602 H         1 UNK         0.0600 
    197 H197       -4.2637  -22.9054  -44.0079 H         1 UNK         0.0600 
    198 H198       -2.5995  -23.4595  -44.1780 H         1 UNK         0.0600 
    199 H199       -3.9160  -24.6250  -44.0998 H         1 UNK         0.0600 
    200 H200       -1.2654  -23.6407  -46.6115 H         1 UNK         0.3000 
    201 H201       -0.9340  -26.4275  -47.2245 H         1 UNK         0.0600 
    202 H202        0.9311  -25.0043  -46.4182 H         1 UNK         0.0600 
    203 H203        0.8471  -24.0192  -47.8758 H         1 UNK         0.0600 
    204 H204        1.3263  -25.7081  -47.9794 H         1 UNK         0.0600 
    205 H205       -1.3513  -23.5010  -49.2561 H         1 UNK         0.3000 
    206 H206       -1.1125  -24.8143  -51.7728 H         1 UNK         0.0600 
    207 H207       -0.7183  -22.3947  -51.4707 H         1 UNK         0.0600 
    208 H208       -1.9943  -22.6392  -52.6519 H         1 UNK         0.0600 
    209 H209       -2.4038  -22.1409  -51.0151 H         1 UNK         0.0600 
    210 H210       -3.8221  -24.5445  -49.6110 H         1 UNK         0.3000 
    211 H211       -6.0224  -24.3683  -51.1166 H         1 UNK         0.0600 
    212 H212       -5.6820  -26.1387  -48.6448 H         1 UNK         0.0600 
    213 H213       -7.2155  -25.5241  -49.2480 H         1 UNK         0.0600 
    214 H214       -6.0071  -24.4056  -48.6442 H         1 UNK         0.0600 
    215 H215       -4.1024  -27.2928  -51.0572 H         1 UNK         0.3000 
    216 H216       -6.0369  -29.1523  -52.0513 H         1 UNK         0.0600 
    217 H217       -4.0062  -30.5229  -52.5611 H         1 UNK         0.0600 
    218 H218       -3.9319  -29.8518  -50.9397 H         1 UNK         0.0600 
    219 H219       -2.9759  -29.1335  -52.2367 H         1 UNK         0.0600 
    220 H220       -4.2145  -26.6073  -53.6494 H         1 UNK         0.3000 
    221 H221       -5.5564  -27.0810  -56.1800 H         1 UNK         0.0600 
    222 H222       -2.4961  -27.3192  -56.0197 H         1 UNK         0.0600 
    223 H223       -3.6068  -28.6041  -56.4903 H         1 UNK         0.0600 
    224 H224       -3.4278  -27.1848  -57.5081 H         1 UNK         0.0600 
    225 H225       -6.2467  -25.1979  -54.7057 H         1 UNK         0.3000 
    226 H226       -4.6711  -23.0637  -54.0332 H         1 UNK         0.0600 
    227 H227       -6.9295  -23.5209  -53.1035 H         1 UNK         0.0600 
    228 H228       -6.8275  -21.8596  -53.6580 H         1 UNK         0.0600 
    229 H229       -7.6787  -23.0533  -54.6260 H         1 UNK         0.0600 
    230 H230       -6.6073  -23.3199  -57.0142 H         1 UNK         0.3000 
    231 H231       -6.7897  -22.1261  -58.8884 H         1 UNK         0.0600 
    232 H232       -4.6370  -21.4303  -59.9727 H         1 UNK         0.0600 
    233 H233       -4.5329  -23.0351  -59.2734 H         1 UNK         0.0600 
    234 H234       -3.7816  -21.6784  -58.4495 H         1 UNK         0.0600 
    235 H235       -4.3852  -19.7396  -58.4047 H         1 UNK         0.3000 
    236 H236       -6.1481  -17.5212  -58.4819 H         1 UNK         0.0600 
    237 H237       -3.1923  -17.6987  -57.6850 H         1 UNK         0.0600 
    238 H238       -3.8130  -17.4522  -59.3185 H         1 UNK         0.0600 
    239 H239       -4.0485  -16.2168  -58.0929 H         1 UNK         0.0600 
    240 H240       -4.9651  -19.3869  -55.7342 H         1 UNK         0.3000 
    241 H241       -5.7003  -17.3821  -53.7388 H         1 UNK         0.0600 
    242 H242       -9.0384  -19.4631  -54.5888 H         1 UNK         0.3800 
    243 H243       -7.7032  -19.4067  -55.7093 H         1 UNK         0.3800 
    244 H244       -5.2266  -19.1705  -52.0788 H         1 UNK         0.0800 
    245 H245       -4.9899  -20.3259  -53.3537 H         1 UNK         0.0800 
    246 H246       -3.2515  -18.7818  -50.8153 H         1 UNK         0.0800 
    247 H247       -3.3899  -17.1737  -51.4840 H         1 UNK         0.0800 
@<TRIPOS>BOND
     1    1    2 1    
     2    1  127 1    
     3    1  128 1    
     4    1  129 1    
     5    2    3 2    
     6    2    4 am   BACKBONE|DICT|INTERRES
     7    4    5 1    
     8    4  130 1    
     9    5    6 1    
    10    5   65 1    
    11    5  131 1    
    12    6    7 1    
    13    6  132 1    
    14    6  133 1    
    15    7    8 1    
    16    8    9 1    
    17    8  134 1    
    18    8  135 1    
    19    9   10 ar   
    20    9   14 ar   
    21   10   11 ar   
    22   10  136 1    
    23   11   12 ar   
    24   11  126 1    
    25   12   13 ar   
    26   12  137 1    
    27   13   14 ar   
    28   13   15 1    
    29   14  138 1    
    30   15   16 1    
    31   15  139 1    
    32   15  140 1    
    33   16   17 1    
    34   17   18 1    
    35   17  141 1    
    36   17  142 1    
    37   18   19 1    
    38   18   67 1    
    39   18  143 1    
    40   19   20 am   BACKBONE|DICT|INTERRES
    41   19  144 1    
    42   20   21 2    
    43   20   22 1    
    44   22   23 1    
    45   22   24 1    
    46   22  145 1    
    47   23  146 1    
    48   23  147 1    
    49   23  148 1    
    50   24   25 am   BACKBONE|DICT|INTERRES
    51   24  149 1    
    52   25   26 2    
    53   25   27 1    
    54   27   28 1    
    55   27   29 1    
    56   27  150 1    
    57   28  151 1    
    58   28  152 1    
    59   28  153 1    
    60   29   30 am   BACKBONE|DICT|INTERRES
    61   29  154 1    
    62   30   31 2    
    63   30   32 1    
    64   32   33 1    
    65   32   34 1    
    66   32  155 1    
    67   33  156 1    
    68   33  157 1    
    69   33  158 1    
    70   34   35 am   BACKBONE|DICT|INTERRES
    71   34  159 1    
    72   35   36 2    
    73   35   37 1    
    74   37   38 1    
    75   37   39 1    
    76   37  160 1    
    77   38  161 1    
    78   38  162 1    
    79   38  163 1    
    80   39   40 am   BACKBONE|DICT|INTERRES
    81   39  164 1    
    82   40   41 2    
    83   40   42 1    
    84   42   43 1    
    85   42   44 1    
    86   42  165 1    
    87   43  166 1    
    88   43  167 1    
    89   43  168 1    
    90   44   45 am   BACKBONE|DICT|INTERRES
    91   44  169 1    
    92   45   46 2    
    93   45   47 1    
    94   47   48 1    
    95   47   49 1    
    96   47  170 1    
    97   48  171 1    
    98   48  172 1    
    99   48  173 1    
   100   49   50 am   BACKBONE|DICT|INTERRES
   101   49  174 1    
   102   50   51 2    
   103   50   52 1    
   104   52   53 1    
   105   52   54 1    
   106   52  175 1    
   107   53  176 1    
   108   53  177 1    
   109   53  178 1    
   110   54   55 am   BACKBONE|DICT|INTERRES
   111   54  179 1    
   112   55   56 2    
   113   55   57 1    
   114   57   58 1    
   115   57   59 1    
   116   57  180 1    
   117   58  181 1    
   118   58  182 1    
   119   58  183 1    
   120   59   60 am   BACKBONE|DICT|INTERRES
   121   59  184 1    
   122   60   61 2    
   123   60   62 1    
   124   62   63 1    
   125   62   64 1    
   126   62  185 1    
   127   63  186 1    
   128   63  187 1    
   129   63  188 1    
   130   64   65 am   BACKBONE|DICT|INTERRES
   131   64  189 1    
   132   65   66 2    
   133   67   68 2    
   134   67   69 am   BACKBONE|DICT|INTERRES
   135   69   70 1    
   136   69  190 1    
   137   70   71 1    
   138   70   72 1    
   139   70  191 1    
   140   71  192 1    
   141   71  193 1    
   142   71  194 1    
   143   72   73 2    
   144   72   74 am   BACKBONE|DICT|INTERRES
   145   74   75 1    
   146   74  195 1    
   147   75   76 1    
   148   75   77 1    
   149   75  196 1    
   150   76  197 1    
   151   76  198 1    
   152   76  199 1    
   153   77   78 2    
   154   77   79 am   BACKBONE|DICT|INTERRES
   155   79   80 1    
   156   79  200 1    
   157   80   81 1    
   158   80   82 1    
   159   80  201 1    
   160   81  202 1    
   161   81  203 1    
   162   81  204 1    
   163   82   83 2    
   164   82   84 am   BACKBONE|DICT|INTERRES
   165   84   85 1    
   166   84  205 1    
   167   85   86 1    
   168   85   87 1    
   169   85  206 1    
   170   86  207 1    
   171   86  208 1    
   172   86  209 1    
   173   87   88 2    
   174   87   89 am   BACKBONE|DICT|INTERRES
   175   89   90 1    
   176   89  210 1    
   177   90   91 1    
   178   90   92 1    
   179   90  211 1    
   180   91  212 1    
   181   91  213 1    
   182   91  214 1    
   183   92   93 2    
   184   92   94 am   BACKBONE|DICT|INTERRES
   185   94   95 1    
   186   94  215 1    
   187   95   96 1    
   188   95   97 1    
   189   95  216 1    
   190   96  217 1    
   191   96  218 1    
   192   96  219 1    
   193   97   98 2    
   194   97   99 am   BACKBONE|DICT|INTERRES
   195   99  100 1    
   196   99  220 1    
   197  100  101 1    
   198  100  102 1    
   199  100  221 1    
   200  101  222 1    
   201  101  223 1    
   202  101  224 1    
   203  102  103 2    
   204  102  104 am   BACKBONE|DICT|INTERRES
   205  104  105 1    
   206  104  225 1    
   207  105  106 1    
   208  105  107 1    
   209  105  226 1    
   210  106  227 1    
   211  106  228 1    
   212  106  229 1    
   213  107  108 2    
   214  107  109 am   BACKBONE|DICT|INTERRES
   215  109  110 1    
   216  109  230 1    
   217  110  111 1    
   218  110  112 1    
   219  110  231 1    
   220  111  232 1    
   221  111  233 1    
   222  111  234 1    
   223  112  113 2    
   224  112  114 am   BACKBONE|DICT|INTERRES
   225  114  115 1    
   226  114  235 1    
   227  115  116 1    
   228  115  117 1    
   229  115  236 1    
   230  116  237 1    
   231  116  238 1    
   232  116  239 1    
   233  117  118 2    
   234  117  119 am   BACKBONE|DICT|INTERRES
   235  119  120 1    
   236  119  240 1    
   237  120  121 1    
   238  120  124 1    
   239  120  241 1    
   240  121  122 am   BACKBONE|DICT|INTERRES
   241  121  123 2    
   242  122  242 1    
   243  122  243 1    
   244  124  125 1    
   245  124  244 1    
   246  124  245 1    
   247  125  126 1    
   248  126  246 1    
   249  126  247 1    
@<TRIPOS>SUBSTRUCTURE
     1 UNK         1 GROUP             0       ****    0 ROOT    
