@<TRIPOS>MOLECULE
3R540
247   249    1
SMALL
USER_CHARGES


@<TRIPOS>ATOM
      1 CA          0.3154  -11.4823  -46.9708 C.3       0 UNK        -0.1800 
      2 C           0.5181  -12.9886  -47.0182 C.2       0 UNK         0.5000 
      3 O          -0.2540  -13.7308  -46.4148 O.2       0 UNK        -0.5000 
      4 N           1.5308  -13.4540  -47.7579 N.am      1 UNK        -0.5000 
      5 CA          1.9574  -14.8584  -47.8873 C.3       1 UNK         0.1400 
      6 C6          3.3289  -14.9606  -48.6004 C.3       23 UNK        -0.0398 
      7 S7          3.3420  -14.1842  -50.2562 S.3       23 UNK        -0.2404 
      8 C8          4.5918  -15.1807  -51.1257 C.3       23 UNK        -0.0205 
      9 C9          4.1365  -16.6129  -51.3673 C.ar      23 UNK        -0.0193 
     10 C10         3.0578  -16.8749  -52.2167 C.ar      23 UNK        -0.1150 
     11 C11         2.6582  -18.1892  -52.4721 C.ar      23 UNK        -0.0193 
     12 C12         3.3718  -19.2438  -51.8964 C.ar      23 UNK        -0.1150 
     13 C13         4.4119  -18.9983  -50.9937 C.ar      23 UNK        -0.0193 
     14 C14         4.7986  -17.6775  -50.7482 C.ar      23 UNK        -0.1150 
     15 C15         5.1209  -20.1391  -50.2634 C.3       23 UNK        -0.0205 
     16 S16         4.0363  -21.5312  -49.7765 S.3       23 UNK        -0.2404 
     17 C17         2.6894  -20.6769  -48.8909 C.3       23 UNK        -0.0398 
     18 CA          1.6172  -21.6678  -48.3725 C.3       11 UNK         0.1400 
     19 N           2.0780  -22.3753  -47.1764 N.am      11 UNK        -0.5000 
     20 C           2.0945  -23.7042  -47.0232 C.2       10 UNK         0.5000 
     21 O           1.7072  -24.5010  -47.8780 O.2       10 UNK        -0.5000 
     22 CA          2.6477  -24.2487  -45.6903 C.3       10 UNK         0.1400 
     23 CB          4.1245  -24.6432  -45.8474 C.3       10 UNK        -0.1800 
     24 N           2.5263  -23.3151  -44.5685 N.am      10 UNK        -0.5000 
     25 C           1.3689  -22.9475  -44.0028 C.2       9 UNK         0.5000 
     26 O           0.2682  -23.3639  -44.3644 O.2       9 UNK        -0.5000 
     27 CA          1.4505  -21.9496  -42.8299 C.3       9 UNK         0.1400 
     28 CB          1.6451  -22.7346  -41.5214 C.3       9 UNK        -0.1800 
     29 N           2.4898  -20.9110  -42.9120 N.am      9 UNK        -0.5000 
     30 C           2.8165  -20.1541  -43.9692 C.2       8 UNK         0.5000 
     31 O           2.3562  -20.3155  -45.0997 O.2       8 UNK        -0.5000 
     32 CA          3.8299  -19.0296  -43.7097 C.3       8 UNK         0.1400 
     33 CB          4.0607  -18.1255  -44.9372 C.3       8 UNK        -0.1800 
     34 N           3.4125  -18.2038  -42.5748 N.am      8 UNK        -0.5000 
     35 C           4.2542  -17.7105  -41.6566 C.2       7 UNK         0.5000 
     36 O           5.4490  -18.0043  -41.5976 O.2       7 UNK        -0.5000 
     37 CA          3.6851  -16.7052  -40.6435 C.3       7 UNK         0.1400 
     38 CB          3.6348  -15.3005  -41.2661 C.3       7 UNK        -0.1800 
     39 N           2.3456  -17.0716  -40.1856 N.am      7 UNK        -0.5000 
     40 C           2.0775  -17.6483  -39.0053 C.2       6 UNK         0.5000 
     41 O           2.9462  -17.9977  -38.2048 O.2       6 UNK        -0.5000 
     42 CA          0.5945  -17.8479  -38.6284 C.3       6 UNK         0.1400 
     43 CB          0.1334  -16.7366  -37.6725 C.3       6 UNK        -0.1800 
     44 N          -0.2999  -17.8707  -39.7850 N.am      6 UNK        -0.5000 
     45 C          -0.4108  -18.9007  -40.6326 C.2       5 UNK         0.5000 
     46 O           0.1729  -19.9704  -40.4768 O.2       5 UNK        -0.5000 
     47 CA         -1.3024  -18.6998  -41.8727 C.3       5 UNK         0.1400 
     48 CB         -2.6987  -19.2904  -41.6243 C.3       5 UNK        -0.1800 
     49 N          -1.4441  -17.3044  -42.3002 N.am      5 UNK        -0.5000 
     50 C          -0.4520  -16.4765  -42.6499 C.2       4 UNK         0.5000 
     51 O           0.7404  -16.7912  -42.6028 O.2       4 UNK        -0.5000 
     52 CA         -0.8774  -15.0745  -43.1371 C.3       4 UNK         0.1400 
     53 CB          0.3197  -14.1150  -43.2576 C.3       4 UNK        -0.1800 
     54 N          -1.5759  -15.1263  -44.4244 N.am      4 UNK        -0.5000 
     55 C          -2.8204  -15.5819  -44.6220 C.2       3 UNK         0.5000 
     56 O          -3.5514  -15.9479  -43.6998 O.2       3 UNK        -0.5000 
     57 CA         -3.3591  -15.6613  -46.0628 C.3       3 UNK         0.1400 
     58 CB         -4.4023  -14.5608  -46.3199 C.3       3 UNK        -0.1800 
     59 N          -2.3371  -15.6116  -47.1179 N.am      3 UNK        -0.5000 
     60 C          -2.4154  -16.3299  -48.2508 C.2       2 UNK         0.5000 
     61 O          -3.2820  -17.1833  -48.4440 O.2       2 UNK        -0.5000 
     62 CA         -1.3981  -16.0664  -49.3806 C.3       2 UNK         0.1400 
     63 CB         -2.0736  -15.3037  -50.5306 C.3       2 UNK        -0.1800 
     64 N          -0.2391  -15.2995  -48.9372 N.am      2 UNK        -0.5000 
     65 C           0.9107  -15.8257  -48.4990 C.2       1 UNK         0.5000 
     66 O           1.1590  -17.0300  -48.5405 O.2       1 UNK        -0.5000 
     67 C           0.3175  -20.9063  -48.0674 C.2       11 UNK         0.5000 
     68 O          -0.6403  -20.9753  -48.8386 O.2       11 UNK        -0.5000 
     69 N           0.3117  -20.1774  -46.9484 N.am      12 UNK        -0.5000 
     70 CA         -0.6624  -19.1511  -46.6022 C.3       12 UNK         0.1400 
     71 CB          0.0420  -18.1390  -45.6888 C.3       12 UNK        -0.1800 
     72 C          -1.9459  -19.7058  -45.9592 C.2       12 UNK         0.5000 
     73 O          -2.5070  -19.0680  -45.0684 O.2       12 UNK        -0.5000 
     74 N          -2.4028  -20.8780  -46.4124 N.am      13 UNK        -0.5000 
     75 CA         -3.5336  -21.6390  -45.8743 C.3       13 UNK         0.1400 
     76 CB         -3.3766  -23.1059  -46.3150 C.3       13 UNK        -0.1800 
     77 C          -4.9182  -21.0462  -46.2325 C.2       13 UNK         0.5000 
     78 O          -5.8150  -21.7922  -46.6260 O.2       13 UNK        -0.5000 
     79 N          -5.0547  -19.7228  -46.0698 N.am      14 UNK        -0.5000 
     80 CA         -6.2007  -18.8536  -46.3506 C.3       14 UNK         0.1400 
     81 CB         -7.4484  -19.2835  -45.5558 C.3       14 UNK        -0.1800 
     82 C          -6.5079  -18.7286  -47.8547 C.2       14 UNK         0.5000 
     83 O          -6.8413  -19.7196  -48.5042 O.2       14 UNK        -0.5000 
     84 N          -6.4176  -17.4967  -48.3760 N.am      15 UNK        -0.5000 
     85 CA         -6.7661  -17.0894  -49.7439 C.3       15 UNK         0.1400 
     86 CB         -8.2995  -17.0912  -49.9174 C.3       15 UNK        -0.1800 
     87 C          -6.0456  -17.9087  -50.8361 C.2       15 UNK         0.5000 
     88 O          -6.6863  -18.3855  -51.7736 O.2       15 UNK        -0.5000 
     89 N          -4.7276  -18.0865  -50.6698 N.am      16 UNK        -0.5000 
     90 CA         -3.8331  -18.8758  -51.5235 C.3       16 UNK         0.1400 
     91 CB         -3.7058  -18.2481  -52.9284 C.3       16 UNK        -0.1800 
     92 C          -4.2417  -20.3612  -51.5627 C.2       16 UNK         0.5000 
     93 O          -4.3342  -20.9527  -52.6418 O.2       16 UNK        -0.5000 
     94 N          -4.4893  -20.9218  -50.3704 N.am      17 UNK        -0.5000 
     95 CA         -4.9504  -22.2901  -50.1162 C.3       17 UNK         0.1400 
     96 CB         -3.8712  -23.3163  -50.5211 C.3       17 UNK        -0.1800 
     97 C          -6.3325  -22.5633  -50.7439 C.2       17 UNK         0.5000 
     98 O          -6.5243  -23.5854  -51.4021 O.2       17 UNK        -0.5000 
     99 N          -7.2617  -21.6200  -50.5329 N.am      18 UNK        -0.5000 
    100 CA        -8.6133  -21.5557  -51.0943 C.3       18 UNK         0.1400 
    101 CB        -9.4982  -22.6850  -50.5266 C.3       18 UNK        -0.1800 
    102 C         -8.5995  -21.5009  -52.6364 C.2       18 UNK         0.5000 
    103 O         -9.2795  -22.2908  -53.2948 O.2       18 UNK        -0.5000 
    104 N         -7.8107  -20.5576  -53.1718 N.am      19 UNK        -0.5000 
    105 CA        -7.5854  -20.2771  -54.5917 C.3       19 UNK         0.1400 
    106 CB        -8.8634  -19.7077  -55.2421 C.3       19 UNK        -0.1800 
    107 C         -6.9918  -21.4771  -55.3595 C.2       19 UNK         0.5000 
    108 O         -7.4317  -21.7822  -56.4698 O.2       19 UNK        -0.5000 
    109 N         -5.9899  -22.1268  -54.7549 N.am      20 UNK        -0.5000 
    110 CA        -5.2676  -23.2742  -55.3089 C.3       20 UNK         0.1400 
    111 CB        -5.4265  -24.4758  -54.3627 C.3       20 UNK        -0.1800 
    112 C         -3.7874  -22.9265  -55.5534 C.2       20 UNK         0.5000 
    113 O         -2.9345  -23.8154  -55.5100 O.2       20 UNK        -0.5000 
    114 N         -3.5015  -21.6341  -55.7799 N.am      21 UNK        -0.5000 
    115 CA        -2.1809  -21.0481  -56.0452 C.3       21 UNK         0.1400 
    116 CB        -1.6869  -21.4580  -57.4481 C.3       21 UNK        -0.1800 
    117 C         -1.1482  -21.3435  -54.9358 C.2       21 UNK         0.5000 
    118 O          0.0316  -21.5475  -55.2266 O.2       21 UNK        -0.5000 
    119 N         -1.6296  -21.3760  -53.6861 N.am      22 UNK        -0.5000 
    120 CA        -0.8818  -21.7194  -52.4650 C.3       22 UNK         0.1400 
    121 C         -0.5472  -23.2362  -52.3241 C.2       22 UNK         0.5000 
    122 N         -1.0893  -24.1255  -53.1495 N.am      22 UNK        -0.7600 
    123 O          0.1998  -23.6239  -51.4312 O.2       22 UNK        -0.5000 
    124 C124        0.3609  -20.8212  -52.2125 C.3       23 UNK        -0.0398 
    125 S125        0.0228  -19.0271  -52.3372 S.3       23 UNK        -0.2404 
    126 C126        1.4395  -18.4664  -53.3416 C.3       23 UNK        -0.0205 
    127 H127        0.3871  -11.1293  -45.9422 H         1 UNK         0.0600 
    128 H128       -0.6726  -11.2252  -47.3525 H         1 UNK         0.0600 
    129 H129        1.0603  -10.9539  -47.5661 H         1 UNK         0.0600 
    130 H130        2.1008  -12.7959  -48.2710 H         1 UNK         0.3000 
    131 H131        2.1064  -15.2213  -46.8680 H         1 UNK         0.0600 
    132 H132        4.0905  -14.4663  -47.9960 H         1 UNK         0.0800 
    133 H133        3.6460  -16.0023  -48.6694 H         1 UNK         0.0800 
    134 H134        4.8051  -14.7131  -52.0879 H         1 UNK         0.0800 
    135 H135        5.5254  -15.1558  -50.5614 H         1 UNK         0.0800 
    136 H136        2.5240  -16.0507  -52.6690 H         1 UNK         0.1150 
    137 H137        3.0824  -20.2615  -52.1062 H         1 UNK         0.1150 
    138 H138        5.6168  -17.4769  -50.0708 H         1 UNK         0.1150 
    139 H139        5.9156  -20.5222  -50.9045 H         1 UNK         0.0800 
    140 H140        5.6062  -19.7615  -49.3620 H         1 UNK         0.0800 
    141 H141        2.2402  -19.9519  -49.5710 H         1 UNK         0.0800 
    142 H142        3.1128  -20.0925  -48.0716 H         1 UNK         0.0800 
    143 H143        1.3846  -22.3754  -49.1713 H         1 UNK         0.0600 
    144 H144        2.3722  -21.7962  -46.3970 H         1 UNK         0.3000 
    145 H145        2.0793  -25.1480  -45.4434 H         1 UNK         0.0600 
    146 H146        4.5097  -25.1047  -44.9379 H         1 UNK         0.0600 
    147 H147        4.2525  -25.3645  -46.6556 H         1 UNK         0.0600 
    148 H148        4.7486  -23.7788  -46.0779 H         1 UNK         0.0600 
    149 H149        3.3824  -22.9191  -44.2098 H         1 UNK         0.3000 
    150 H150        0.4912  -21.4318  -42.7836 H         1 UNK         0.0600 
    151 H151        0.8386  -23.4540  -41.3733 H         1 UNK         0.0600 
    152 H152        1.6544  -22.0785  -40.6521 H         1 UNK         0.0600 
    153 H153        2.5840  -23.2899  -41.5237 H         1 UNK         0.0600 
    154 H154        2.9303  -20.6789  -42.0335 H         1 UNK         0.3000 
    155 H155        4.7719  -19.5336  -43.4846 H         1 UNK         0.0600 
    156 H156        4.3543  -18.7084  -45.8112 H         1 UNK         0.0600 
    157 H157        4.8562  -17.4045  -44.7488 H         1 UNK         0.0600 
    158 H158        3.1620  -17.5665  -45.1975 H         1 UNK         0.0600 
    159 H159        2.4436  -17.8989  -42.5697 H         1 UNK         0.3000 
    160 H160        4.3728  -16.6632  -39.7961 H         1 UNK         0.0600 
    161 H161        2.9982  -15.2722  -42.1509 H         1 UNK         0.0600 
    162 H162        4.6299  -14.9734  -41.5699 H         1 UNK         0.0600 
    163 H163        3.2542  -14.5669  -40.5553 H         1 UNK         0.0600 
    164 H164        1.5843  -16.8715  -40.8250 H         1 UNK         0.3000 
    165 H165        0.5127  -18.8029  -38.1047 H         1 UNK         0.0600 
    166 H166       -0.8935  -16.8988  -37.3446 H         1 UNK         0.0600 
    167 H167        0.7574  -16.7061  -36.7783 H         1 UNK         0.0600 
    168 H168        0.1858  -15.7537  -38.1427 H         1 UNK         0.0600 
    169 H169       -0.8243  -17.0303  -39.9775 H         1 UNK         0.3000 
    170 H170       -0.8417  -19.2490  -42.6953 H         1 UNK         0.0600 
    171 H171       -2.6348  -20.3453  -41.3544 H         1 UNK         0.0600 
    172 H172       -3.2147  -18.7729  -40.8148 H         1 UNK         0.0600 
    173 H173       -3.3229  -19.2223  -42.5153 H         1 UNK         0.0600 
    174 H174       -2.3916  -16.9774  -42.4619 H         1 UNK         0.3000 
    175 H175       -1.5579  -14.6606  -42.3903 H         1 UNK         0.0600 
    176 H176        1.0472  -14.4679  -43.9899 H         1 UNK         0.0600 
    177 H177       -0.0027  -13.1189  -43.5611 H         1 UNK         0.0600 
    178 H178        0.8353  -14.0113  -42.3023 H         1 UNK         0.0600 
    179 H179       -1.0480  -14.7661  -45.2156 H         1 UNK         0.3000 
    180 H180       -3.8694  -16.6247  -46.1072 H         1 UNK         0.0600 
    181 H181       -3.9469  -13.5700  -46.2984 H         1 UNK         0.0600 
    182 H182       -5.1896  -14.5783  -45.5651 H         1 UNK         0.0600 
    183 H183       -4.8810  -14.6871  -47.2909 H         1 UNK         0.0600 
    184 H184       -1.5872  -14.9364  -47.0007 H         1 UNK         0.3000 
    185 H185       -1.0770  -17.0377  -49.7640 H         1 UNK         0.0600 
    186 H186       -2.9543  -15.8331  -50.8936 H         1 UNK         0.0600 
    187 H187       -2.3960  -14.3090  -50.2203 H         1 UNK         0.0600 
    188 H188       -1.3950  -15.1892  -51.3762 H         1 UNK         0.0600 
    189 H189       -0.3538  -14.2991  -48.8677 H         1 UNK         0.3000 
    190 H190        1.1154  -20.2273  -46.3249 H         1 UNK         0.3000 
    191 H191       -0.9526  -18.6399  -47.5199 H         1 UNK         0.0600 
    192 H192        1.0010  -17.8252  -46.0959 H         1 UNK         0.0600 
    193 H193       -0.5617  -17.2453  -45.5701 H         1 UNK         0.0600 
    194 H194        0.2297  -18.5558  -44.7002 H         1 UNK         0.0600 
    195 H195       -1.9093  -21.2902  -47.1953 H         1 UNK         0.3000 
    196 H196       -3.4631  -21.6172  -44.7848 H         1 UNK         0.0600 
    197 H197       -4.1607  -23.7336  -45.8898 H         1 UNK         0.0600 
    198 H198       -2.4225  -23.5153  -45.9814 H         1 UNK         0.0600 
    199 H199       -3.4222  -23.2074  -47.3994 H         1 UNK         0.0600 
    200 H200       -4.2288  -19.2453  -45.7164 H         1 UNK         0.3000 
    201 H201       -5.9151  -17.8680  -45.9813 H         1 UNK         0.0600 
    202 H202       -7.2334  -19.3510  -44.4894 H         1 UNK         0.0600 
    203 H203       -7.8303  -20.2506  -45.8839 H         1 UNK         0.0600 
    204 H204       -8.2544  -18.5595  -45.6809 H         1 UNK         0.0600 
    205 H205       -6.0946  -16.7500  -47.7788 H         1 UNK         0.3000 
    206 H206       -6.4207  -16.0612  -49.8596 H         1 UNK         0.0600 
    207 H207       -8.7822  -16.4699  -49.1631 H         1 UNK         0.0600 
    208 H208       -8.5848  -16.6953  -50.8929 H         1 UNK         0.0600 
    209 H209       -8.7141  -18.0967  -49.8380 H         1 UNK         0.0600 
    210 H210       -4.2983  -17.7011  -49.8293 H         1 UNK         0.3000 
    211 H211       -2.8484  -18.8395  -51.0550 H         1 UNK         0.0600 
    212 H212       -4.6400  -18.3031  -53.4877 H         1 UNK         0.0600 
    213 H213       -2.9446  -18.7608  -53.5165 H         1 UNK         0.0600 
    214 H214       -3.4123  -17.2007  -52.8688 H         1 UNK         0.0600 
    215 H215       -4.4443  -20.3247  -49.5572 H         1 UNK         0.3000 
    216 H216       -5.0897  -22.3753  -49.0402 H         1 UNK         0.0600 
    217 H217       -4.1688  -24.3268  -50.2399 H         1 UNK         0.0600 
    218 H218       -2.9240  -23.1076  -50.0234 H         1 UNK         0.0600 
    219 H219       -3.6908  -23.3173  -51.5958 H         1 UNK         0.0600 
    220 H220       -7.0149  -20.8458  -49.9173 H         1 UNK         0.3000 
    221 H221       -9.0359  -20.6079  -50.7576 H         1 UNK         0.0600 
    222 H222       -9.1601  -23.6698  -50.8498 H         1 UNK         0.0600 
    223 H223       -9.5003  -22.6720  -49.4366 H         1 UNK         0.0600 
    224 H224      -10.5320  -22.5710  -50.8547 H         1 UNK         0.0600 
    225 H225       -7.3165  -19.9315  -52.5381 H         1 UNK         0.3000 
    226 H226       -6.8266  -19.4939  -54.6240 H         1 UNK         0.0600 
    227 H227       -9.2345  -18.8447  -54.6893 H         1 UNK         0.0600 
    228 H228       -8.6689  -19.3780  -56.2633 H         1 UNK         0.0600 
    229 H229       -9.6624  -20.4484  -55.2841 H         1 UNK         0.0600 
    230 H230       -5.6491  -21.7839  -53.8603 H         1 UNK         0.3000 
    231 H231       -5.6821  -23.5570  -56.2782 H         1 UNK         0.0600 
    232 H232       -4.9133  -24.3087  -53.4160 H         1 UNK         0.0600 
    233 H233       -5.0119  -25.3824  -54.8047 H         1 UNK         0.0600 
    234 H234       -6.4767  -24.6712  -54.1446 H         1 UNK         0.0600 
    235 H235       -4.2726  -20.9829  -55.7547 H         1 UNK         0.3000 
    236 H236       -2.3191  -19.9660  -56.0464 H         1 UNK         0.0600 
    237 H237       -2.4268  -21.2192  -58.2120 H         1 UNK         0.0600 
    238 H238       -0.7696  -20.9300  -57.7111 H         1 UNK         0.0600 
    239 H239       -1.4780  -22.5267  -57.5059 H         1 UNK         0.0600 
    240 H240       -2.6255  -21.2322  -53.5516 H         1 UNK         0.3000 
    241 H241       -1.5722  -21.5235  -51.6455 H         1 UNK         0.0600 
    242 H242       -0.8644  -25.1002  -53.0325 H         1 UNK         0.3800 
    243 H243       -1.6941  -23.8436  -53.9132 H         1 UNK         0.3800 
    244 H244        0.7626  -21.0090  -51.2177 H         1 UNK         0.0800 
    245 H245        1.1522  -21.0981  -52.9086 H         1 UNK         0.0800 
    246 H246        1.6812  -19.2013  -54.1107 H         1 UNK         0.0800 
    247 H247        1.1438  -17.5613  -53.8738 H         1 UNK         0.0800 
@<TRIPOS>BOND
     1    1    2 1    
     2    1  127 1    
     3    1  128 1    
     4    1  129 1    
     5    2    3 2    
     6    2    4 am   BACKBONE|DICT|INTERRES
     7    4    5 1    
     8    4  130 1    
     9    5    6 1    
    10    5   65 1    
    11    5  131 1    
    12    6    7 1    
    13    6  132 1    
    14    6  133 1    
    15    7    8 1    
    16    8    9 1    
    17    8  134 1    
    18    8  135 1    
    19    9   10 ar   
    20    9   14 ar   
    21   10   11 ar   
    22   10  136 1    
    23   11   12 ar   
    24   11  126 1    
    25   12   13 ar   
    26   12  137 1    
    27   13   14 ar   
    28   13   15 1    
    29   14  138 1    
    30   15   16 1    
    31   15  139 1    
    32   15  140 1    
    33   16   17 1    
    34   17   18 1    
    35   17  141 1    
    36   17  142 1    
    37   18   19 1    
    38   18   67 1    
    39   18  143 1    
    40   19   20 am   BACKBONE|DICT|INTERRES
    41   19  144 1    
    42   20   21 2    
    43   20   22 1    
    44   22   23 1    
    45   22   24 1    
    46   22  145 1    
    47   23  146 1    
    48   23  147 1    
    49   23  148 1    
    50   24   25 am   BACKBONE|DICT|INTERRES
    51   24  149 1    
    52   25   26 2    
    53   25   27 1    
    54   27   28 1    
    55   27   29 1    
    56   27  150 1    
    57   28  151 1    
    58   28  152 1    
    59   28  153 1    
    60   29   30 am   BACKBONE|DICT|INTERRES
    61   29  154 1    
    62   30   31 2    
    63   30   32 1    
    64   32   33 1    
    65   32   34 1    
    66   32  155 1    
    67   33  156 1    
    68   33  157 1    
    69   33  158 1    
    70   34   35 am   BACKBONE|DICT|INTERRES
    71   34  159 1    
    72   35   36 2    
    73   35   37 1    
    74   37   38 1    
    75   37   39 1    
    76   37  160 1    
    77   38  161 1    
    78   38  162 1    
    79   38  163 1    
    80   39   40 am   BACKBONE|DICT|INTERRES
    81   39  164 1    
    82   40   41 2    
    83   40   42 1    
    84   42   43 1    
    85   42   44 1    
    86   42  165 1    
    87   43  166 1    
    88   43  167 1    
    89   43  168 1    
    90   44   45 am   BACKBONE|DICT|INTERRES
    91   44  169 1    
    92   45   46 2    
    93   45   47 1    
    94   47   48 1    
    95   47   49 1    
    96   47  170 1    
    97   48  171 1    
    98   48  172 1    
    99   48  173 1    
   100   49   50 am   BACKBONE|DICT|INTERRES
   101   49  174 1    
   102   50   51 2    
   103   50   52 1    
   104   52   53 1    
   105   52   54 1    
   106   52  175 1    
   107   53  176 1    
   108   53  177 1    
   109   53  178 1    
   110   54   55 am   BACKBONE|DICT|INTERRES
   111   54  179 1    
   112   55   56 2    
   113   55   57 1    
   114   57   58 1    
   115   57   59 1    
   116   57  180 1    
   117   58  181 1    
   118   58  182 1    
   119   58  183 1    
   120   59   60 am   BACKBONE|DICT|INTERRES
   121   59  184 1    
   122   60   61 2    
   123   60   62 1    
   124   62   63 1    
   125   62   64 1    
   126   62  185 1    
   127   63  186 1    
   128   63  187 1    
   129   63  188 1    
   130   64   65 am   BACKBONE|DICT|INTERRES
   131   64  189 1    
   132   65   66 2    
   133   67   68 2    
   134   67   69 am   BACKBONE|DICT|INTERRES
   135   69   70 1    
   136   69  190 1    
   137   70   71 1    
   138   70   72 1    
   139   70  191 1    
   140   71  192 1    
   141   71  193 1    
   142   71  194 1    
   143   72   73 2    
   144   72   74 am   BACKBONE|DICT|INTERRES
   145   74   75 1    
   146   74  195 1    
   147   75   76 1    
   148   75   77 1    
   149   75  196 1    
   150   76  197 1    
   151   76  198 1    
   152   76  199 1    
   153   77   78 2    
   154   77   79 am   BACKBONE|DICT|INTERRES
   155   79   80 1    
   156   79  200 1    
   157   80   81 1    
   158   80   82 1    
   159   80  201 1    
   160   81  202 1    
   161   81  203 1    
   162   81  204 1    
   163   82   83 2    
   164   82   84 am   BACKBONE|DICT|INTERRES
   165   84   85 1    
   166   84  205 1    
   167   85   86 1    
   168   85   87 1    
   169   85  206 1    
   170   86  207 1    
   171   86  208 1    
   172   86  209 1    
   173   87   88 2    
   174   87   89 am   BACKBONE|DICT|INTERRES
   175   89   90 1    
   176   89  210 1    
   177   90   91 1    
   178   90   92 1    
   179   90  211 1    
   180   91  212 1    
   181   91  213 1    
   182   91  214 1    
   183   92   93 2    
   184   92   94 am   BACKBONE|DICT|INTERRES
   185   94   95 1    
   186   94  215 1    
   187   95   96 1    
   188   95   97 1    
   189   95  216 1    
   190   96  217 1    
   191   96  218 1    
   192   96  219 1    
   193   97   98 2    
   194   97   99 am   BACKBONE|DICT|INTERRES
   195   99  100 1    
   196   99  220 1    
   197  100  101 1    
   198  100  102 1    
   199  100  221 1    
   200  101  222 1    
   201  101  223 1    
   202  101  224 1    
   203  102  103 2    
   204  102  104 am   BACKBONE|DICT|INTERRES
   205  104  105 1    
   206  104  225 1    
   207  105  106 1    
   208  105  107 1    
   209  105  226 1    
   210  106  227 1    
   211  106  228 1    
   212  106  229 1    
   213  107  108 2    
   214  107  109 am   BACKBONE|DICT|INTERRES
   215  109  110 1    
   216  109  230 1    
   217  110  111 1    
   218  110  112 1    
   219  110  231 1    
   220  111  232 1    
   221  111  233 1    
   222  111  234 1    
   223  112  113 2    
   224  112  114 am   BACKBONE|DICT|INTERRES
   225  114  115 1    
   226  114  235 1    
   227  115  116 1    
   228  115  117 1    
   229  115  236 1    
   230  116  237 1    
   231  116  238 1    
   232  116  239 1    
   233  117  118 2    
   234  117  119 am   BACKBONE|DICT|INTERRES
   235  119  120 1    
   236  119  240 1    
   237  120  121 1    
   238  120  124 1    
   239  120  241 1    
   240  121  122 am   BACKBONE|DICT|INTERRES
   241  121  123 2    
   242  122  242 1    
   243  122  243 1    
   244  124  125 1    
   245  124  244 1    
   246  124  245 1    
   247  125  126 1    
   248  126  246 1    
   249  126  247 1    
@<TRIPOS>SUBSTRUCTURE
     1 UNK         1 GROUP             0       ****    0 ROOT    
