@<TRIPOS>MOLECULE
3R540
247   249    1
SMALL
USER_CHARGES


@<TRIPOS>ATOM
      1 CA         -4.3776  -11.4143  -42.3221 C.3       0 UNK        -0.1800 
      2 C          -4.3556  -12.3489  -43.5229 C.2       0 UNK         0.5000 
      3 O          -4.1594  -13.5527  -43.3568 O.2       0 UNK        -0.5000 
      4 N          -4.5417  -11.7983  -44.7303 N.am      1 UNK        -0.5000 
      5 CA         -4.5710  -12.4723  -46.0380 C.3       1 UNK         0.1400 
      6 C6         -5.6459  -13.5872  -46.1286 C.3       23 UNK        -0.0398 
      7 S7         -6.1406  -13.9447  -47.8491 S.3       23 UNK        -0.2404 
      8 C8         -6.0570  -15.7629  -47.9001 C.3       23 UNK        -0.0205 
      9 C9         -4.6490  -16.3012  -47.6875 C.ar      23 UNK        -0.0193 
     10 C10        -3.6675  -16.1201  -48.6662 C.ar      23 UNK        -0.1150 
     11 C11        -2.3901  -16.6637  -48.4993 C.ar      23 UNK        -0.0193 
     12 C12        -2.0958  -17.3873  -47.3410 C.ar      23 UNK        -0.1150 
     13 C13        -3.0683  -17.5741  -46.3561 C.ar      23 UNK        -0.0193 
     14 C14        -4.3398  -17.0219  -46.5303 C.ar      23 UNK        -0.1150 
     15 C15        -2.7587  -18.3969  -45.1183 C.3       23 UNK        -0.0205 
     16 S16        -3.3383  -20.1084  -45.3328 S.3       23 UNK        -0.2404 
     17 C17        -1.8213  -21.0702  -45.0053 C.3       23 UNK        -0.0398 
     18 CA         -0.9414  -21.2726  -46.2640 C.3       11 UNK         0.1400 
     19 N           0.3786  -21.7865  -45.9014 N.am      11 UNK        -0.5000 
     20 C           1.4883  -21.6841  -46.6427 C.2       10 UNK         0.5000 
     21 O           1.5169  -21.1615  -47.7593 O.2       10 UNK        -0.5000 
     22 CA          2.7779  -22.2371  -46.0060 C.3       10 UNK         0.1400 
     23 CB          4.0020  -22.1009  -46.9294 C.3       10 UNK        -0.1800 
     24 N           3.0593  -21.5596  -44.7398 N.am      10 UNK        -0.5000 
     25 C           2.5715  -21.9198  -43.5455 C.2       9 UNK         0.5000 
     26 O           1.8221  -22.8838  -43.3822 O.2       9 UNK        -0.5000 
     27 CA          2.9461  -21.0306  -42.3463 C.3       9 UNK         0.1400 
     28 CB          4.4552  -21.0768  -42.0564 C.3       9 UNK        -0.1800 
     29 N           2.5288  -19.6471  -42.5603 N.am      9 UNK        -0.5000 
     30 C           1.2580  -19.2210  -42.5309 C.2       8 UNK         0.5000 
     31 O           0.3049  -19.9305  -42.2098 O.2       8 UNK        -0.5000 
     32 CA          1.0058  -17.7625  -42.9566 C.3       8 UNK         0.1400 
     33 CB          1.1610  -16.8022  -41.7686 C.3       8 UNK        -0.1800 
     34 N           1.8918  -17.3506  -44.0454 N.am      8 UNK        -0.5000 
     35 C           1.8029  -17.8131  -45.3000 C.2       7 UNK         0.5000 
     36 O           0.8999  -18.5497  -45.6861 O.2       7 UNK        -0.5000 
     37 CA          2.9079  -17.3965  -46.2863 C.3       7 UNK         0.1400 
     38 CB          2.4880  -16.1484  -47.0782 C.3       7 UNK        -0.1800 
     39 N           4.1875  -17.1467  -45.6200 N.am      7 UNK        -0.5000 
     40 C           4.9872  -18.1070  -45.1349 C.2       6 UNK         0.5000 
     41 O           4.7433  -19.3089  -45.2242 O.2       6 UNK        -0.5000 
     42 CA          6.2455  -17.6444  -44.3775 C.3       6 UNK         0.1400 
     43 CB          7.3690  -17.2823  -45.3602 C.3       6 UNK        -0.1800 
     44 N           5.9808  -16.5042  -43.4994 N.am      6 UNK        -0.5000 
     45 C           5.1757  -16.5428  -42.4280 C.2       5 UNK         0.5000 
     46 O           4.6216  -17.5672  -42.0302 O.2       5 UNK        -0.5000 
     47 CA          4.8996  -15.2021  -41.7171 C.3       5 UNK         0.1400 
     48 CB          5.9216  -14.9686  -40.5950 C.3       5 UNK        -0.1800 
     49 N           4.8994  -14.0465  -42.6217 N.am      5 UNK        -0.5000 
     50 C           4.0717  -13.8917  -43.6636 C.2       4 UNK         0.5000 
     51 O           3.2016  -14.7113  -43.9716 O.2       4 UNK        -0.5000 
     52 CA          4.2931  -12.6505  -44.5388 C.3       4 UNK         0.1400 
     53 CB          5.6449  -12.7379  -45.2765 C.3       4 UNK        -0.1800 
     54 N           3.2046  -12.5688  -45.5062 N.am      4 UNK        -0.5000 
     55 C           2.8764  -11.5036  -46.2441 C.2       3 UNK         0.5000 
     56 O           3.4508  -10.4168  -46.1667 O.2       3 UNK        -0.5000 
     57 CA          1.7257  -11.6785  -47.2551 C.3       3 UNK         0.1400 
     58 CB          2.2905  -11.9072  -48.6660 C.3       3 UNK        -0.1800 
     59 N           0.8120  -12.7790  -46.9358 N.am      3 UNK        -0.5000 
     60 C          -0.1086  -12.7411  -45.9652 C.2       2 UNK         0.5000 
     61 O          -0.2500  -11.7930  -45.1890 O.2       2 UNK        -0.5000 
     62 CA         -1.0196  -13.9770  -45.8382 C.3       2 UNK         0.1400 
     63 CB         -0.5678  -14.8596  -44.6673 C.3       2 UNK        -0.1800 
     64 N          -2.4141  -13.5961  -45.6330 N.am      2 UNK        -0.5000 
     65 C          -3.1759  -12.9392  -46.5158 C.2       1 UNK         0.5000 
     66 O          -2.8026  -12.6583  -47.6561 O.2       1 UNK        -0.5000 
     67 C          -1.5974  -22.1673  -47.3353 C.2       11 UNK         0.5000 
     68 O          -2.4851  -22.9629  -47.0238 O.2       11 UNK        -0.5000 
     69 N          -1.1503  -22.0161  -48.5884 N.am      12 UNK        -0.5000 
     70 CA         -1.6577  -22.7220  -49.7689 C.3       12 UNK         0.1400 
     71 CB         -0.7992  -22.3433  -50.9828 C.3       12 UNK        -0.1800 
     72 C          -3.1517  -22.4686  -50.0516 C.2       12 UNK         0.5000 
     73 O          -3.8137  -23.3235  -50.6386 O.2       12 UNK        -0.5000 
     74 N          -3.6692  -21.3183  -49.5988 N.am      13 UNK        -0.5000 
     75 CA         -5.0911  -20.9762  -49.6154 C.3       13 UNK         0.1400 
     76 CB         -5.2544  -19.5138  -49.1789 C.3       13 UNK        -0.1800 
     77 C          -5.9531  -21.9006  -48.7323 C.2       13 UNK         0.5000 
     78 O          -7.1184  -22.1239  -49.0611 O.2       13 UNK        -0.5000 
     79 N          -5.3721  -22.4233  -47.6439 N.am      14 UNK        -0.5000 
     80 CA         -6.0220  -23.3558  -46.7278 C.3       14 UNK         0.1400 
     81 CB         -5.6231  -23.0176  -45.2828 C.3       14 UNK        -0.1800 
     82 C          -5.6549  -24.8079  -47.0664 C.2       14 UNK         0.5000 
     83 O          -6.5516  -25.6463  -47.1618 O.2       14 UNK        -0.5000 
     84 N          -4.3524  -25.0800  -47.2397 N.am      15 UNK        -0.5000 
     85 CA         -3.7705  -26.4031  -47.4769 C.3       15 UNK         0.1400 
     86 CB         -2.2382  -26.2868  -47.4973 C.3       15 UNK        -0.1800 
     87 C          -4.3062  -27.0537  -48.7650 C.2       15 UNK         0.5000 
     88 O          -3.9025  -26.6692  -49.8641 O.2       15 UNK        -0.5000 
     89 N          -5.2621  -27.9797  -48.5924 N.am      16 UNK        -0.5000 
     90 CA         -6.0279  -28.6900  -49.6272 C.3       16 UNK         0.1400 
     91 CB         -5.1009  -29.6262  -50.4302 C.3       16 UNK        -0.1800 
     92 C          -6.8570  -27.7671  -50.5512 C.2       16 UNK         0.5000 
     93 O          -7.3119  -28.2182  -51.6036 O.2       16 UNK        -0.5000 
     94 N          -7.0192  -26.4935  -50.1550 N.am      17 UNK        -0.5000 
     95 CA         -7.5681  -25.3774  -50.9326 C.3       17 UNK         0.1400 
     96 CB         -9.0982  -25.5172  -51.0638 C.3       17 UNK        -0.1800 
     97 C          -6.8580  -25.1795  -52.2935 C.2       17 UNK         0.5000 
     98 O          -7.5100  -24.8463  -53.2850 O.2       17 UNK        -0.5000 
     99 N          -5.5385  -25.4241  -52.3259 N.am      18 UNK        -0.5000 
    100 CA        -4.7152  -25.4203  -53.5373 C.3       18 UNK         0.1400 
    101 CB        -3.3330  -26.0013  -53.2024 C.3       18 UNK        -0.1800 
    102 C         -4.5685  -24.0322  -54.1860 C.2       18 UNK         0.5000 
    103 O         -4.4818  -23.9423  -55.4120 O.2       18 UNK        -0.5000 
    104 N         -4.5374  -22.9883  -53.3473 N.am      19 UNK        -0.5000 
    105 CA        -4.3239  -21.5726  -53.6509 C.3       19 UNK         0.1400 
    106 CB        -5.4013  -21.0063  -54.5957 C.3       19 UNK        -0.1800 
    107 C         -2.8959  -21.2913  -54.1416 C.2       19 UNK         0.5000 
    108 O         -2.1305  -20.6596  -53.4156 O.2       19 UNK        -0.5000 
    109 N         -2.5530  -21.7778  -55.3421 N.am      20 UNK        -0.5000 
    110 CA        -1.2587  -21.6314  -56.0143 C.3       20 UNK         0.1400 
    111 CB        -0.2129  -22.5488  -55.3406 C.3       20 UNK        -0.1800 
    112 C         -0.8360  -20.1481  -56.1058 C.2       20 UNK         0.5000 
    113 O         -1.5385  -19.3616  -56.7447 O.2       20 UNK        -0.5000 
    114 N          0.2578  -19.7776  -55.4260 N.am      21 UNK        -0.5000 
    115 CA         0.7602  -18.4066  -55.3024 C.3       21 UNK         0.1400 
    116 CB         2.1124  -18.4390  -54.5736 C.3       21 UNK        -0.1800 
    117 C         -0.2107  -17.4401  -54.5908 C.2       21 UNK         0.5000 
    118 O         -0.1388  -16.2342  -54.8318 O.2       21 UNK        -0.5000 
    119 N         -1.1049  -17.9771  -53.7511 N.am      22 UNK        -0.5000 
    120 CA        -2.1917  -17.2381  -53.0912 C.3       22 UNK         0.1400 
    121 C         -3.4588  -17.0683  -53.9825 C.2       22 UNK         0.5000 
    122 N         -3.5124  -17.6077  -55.1962 N.am      22 UNK        -0.7600 
    123 O         -4.4148  -16.4187  -53.5689 O.2       22 UNK        -0.5000 
    124 C124       -2.5582  -17.8457  -51.7105 C.3       23 UNK        -0.0398 
    125 S125       -1.1269  -17.9775  -50.5835 S.3       23 UNK        -0.2404 
    126 C126       -1.3242  -16.4803  -49.5673 C.3       23 UNK        -0.0205 
    127 H127       -4.5624  -10.3805  -42.6151 H         1 UNK         0.0600 
    128 H128       -3.4221  -11.4541  -41.7992 H         1 UNK         0.0600 
    129 H129       -5.1610  -11.7159  -41.6268 H         1 UNK         0.0600 
    130 H130       -4.6632  -10.7961  -44.7794 H         1 UNK         0.3000 
    131 H131       -4.8722  -11.6820  -46.7279 H         1 UNK         0.0600 
    132 H132       -5.3112  -14.4939  -45.6241 H         1 UNK         0.0800 
    133 H133       -6.5475  -13.2728  -45.6014 H         1 UNK         0.0800 
    134 H134       -6.7453  -16.1720  -47.1587 H         1 UNK         0.0800 
    135 H135       -6.4208  -16.1034  -48.8706 H         1 UNK         0.0800 
    136 H136       -3.9048  -15.5618  -49.5607 H         1 UNK         0.1150 
    137 H137       -1.1124  -17.8177  -47.2155 H         1 UNK         0.1150 
    138 H138       -5.0960  -17.1792  -45.7742 H         1 UNK         0.1150 
    139 H139       -1.6877  -18.3741  -44.9173 H         1 UNK         0.0800 
    140 H140       -3.2439  -17.9581  -44.2455 H         1 UNK         0.0800 
    141 H141       -2.1034  -22.0298  -44.5689 H         1 UNK         0.0800 
    142 H142       -1.2520  -20.5545  -44.2325 H         1 UNK         0.0800 
    143 H143       -0.7988  -20.2890  -46.7158 H         1 UNK         0.0600 
    144 H144        0.4575  -22.2346  -44.9970 H         1 UNK         0.3000 
    145 H145        2.6220  -23.3024  -45.8234 H         1 UNK         0.0600 
    146 H146        4.8996  -22.4987  -46.4560 H         1 UNK         0.0600 
    147 H147        3.8525  -22.6518  -47.8587 H         1 UNK         0.0600 
    148 H148        4.1958  -21.0606  -47.1929 H         1 UNK         0.0600 
    149 H149        3.6410  -20.7267  -44.8074 H         1 UNK         0.3000 
    150 H150        2.4253  -21.4160  -41.4672 H         1 UNK         0.0600 
    151 H151        4.6985  -20.5075  -41.1591 H         1 UNK         0.0600 
    152 H152        4.7899  -22.1018  -41.8928 H         1 UNK         0.0600 
    153 H153        5.0428  -20.6657  -42.8773 H         1 UNK         0.0600 
    154 H154        3.2596  -18.9754  -42.7651 H         1 UNK         0.3000 
    155 H155       -0.0236  -17.6905  -43.3116 H         1 UNK         0.0600 
    156 H156        2.1416  -16.8901  -41.3029 H         1 UNK         0.0600 
    157 H157        0.4170  -17.0158  -41.0005 H         1 UNK         0.0600 
    158 H158        1.0251  -15.7649  -42.0757 H         1 UNK         0.0600 
    159 H159        2.6102  -16.6697  -43.8284 H         1 UNK         0.3000 
    160 H160        3.0408  -18.2181  -46.9941 H         1 UNK         0.0600 
    161 H161        2.3468  -15.2869  -46.4280 H         1 UNK         0.0600 
    162 H162        1.5481  -16.3218  -47.6026 H         1 UNK         0.0600 
    163 H163        3.2353  -15.8859  -47.8271 H         1 UNK         0.0600 
    164 H164        4.4262  -16.1816  -45.4472 H         1 UNK         0.3000 
    165 H165        6.5869  -18.4771  -43.7588 H         1 UNK         0.0600 
    166 H166        8.2882  -17.0293  -44.8315 H         1 UNK         0.0600 
    167 H167        7.5952  -18.1212  -46.0197 H         1 UNK         0.0600 
    168 H168        7.0988  -16.4332  -45.9893 H         1 UNK         0.0600 
    169 H169        6.4032  -15.6234  -43.7518 H         1 UNK         0.3000 
    170 H170        3.9081  -15.2668  -41.2657 H         1 UNK         0.0600 
    171 H171        5.9274  -15.8032  -39.8925 H         1 UNK         0.0600 
    172 H172        6.9338  -14.8623  -40.9871 H         1 UNK         0.0600 
    173 H173        5.6848  -14.0693  -40.0261 H         1 UNK         0.0600 
    174 H174        5.5897  -13.3332  -42.4356 H         1 UNK         0.3000 
    175 H175        4.2719  -11.7680  -43.8966 H         1 UNK         0.0600 
    176 H176        5.6918  -13.6142  -45.9244 H         1 UNK         0.0600 
    177 H177        5.8189  -11.8582  -45.8961 H         1 UNK         0.0600 
    178 H178        6.4786  -12.8004  -44.5765 H         1 UNK         0.0600 
    179 H179        2.6459  -13.4097  -45.5654 H         1 UNK         0.3000 
    180 H180        1.1542  -10.7478  -47.2646 H         1 UNK         0.0600 
    181 H181        2.8627  -12.8341  -48.7250 H         1 UNK         0.0600 
    182 H182        2.9547  -11.0928  -48.9585 H         1 UNK         0.0600 
    183 H183        1.4932  -11.9556  -49.4079 H         1 UNK         0.0600 
    184 H184        0.8566  -13.5844  -47.5421 H         1 UNK         0.3000 
    185 H185       -0.9597  -14.5615  -46.7584 H         1 UNK         0.0600 
    186 H186        0.4895  -15.1054  -44.7531 H         1 UNK         0.0600 
    187 H187       -0.7073  -14.3599  -43.7079 H         1 UNK         0.0600 
    188 H188       -1.1226  -15.7971  -44.6430 H         1 UNK         0.0600 
    189 H189       -2.8050  -13.7542  -44.7094 H         1 UNK         0.3000 
    190 H190       -0.3564  -21.4013  -48.7313 H         1 UNK         0.3000 
    191 H191       -1.5407  -23.7918  -49.5946 H         1 UNK         0.0600 
    192 H192        0.2412  -22.6337  -50.8364 H         1 UNK         0.0600 
    193 H193       -1.1524  -22.8443  -51.8852 H         1 UNK         0.0600 
    194 H194       -0.8229  -21.2689  -51.1692 H         1 UNK         0.0600 
    195 H195       -3.0504  -20.6639  -49.1430 H         1 UNK         0.3000 
    196 H196       -5.4555  -21.0718  -50.6390 H         1 UNK         0.0600 
    197 H197       -6.3017  -19.2103  -49.2027 H         1 UNK         0.0600 
    198 H198       -4.7063  -18.8388  -49.8352 H         1 UNK         0.0600 
    199 H199       -4.8914  -19.3598  -48.1623 H         1 UNK         0.0600 
    200 H200       -4.3929  -22.2332  -47.4686 H         1 UNK         0.3000 
    201 H201       -7.1074  -23.2588  -46.8004 H         1 UNK         0.0600 
    202 H202       -5.9315  -22.0061  -45.0181 H         1 UNK         0.0600 
    203 H203       -4.5456  -23.0875  -45.1301 H         1 UNK         0.0600 
    204 H204       -6.0999  -23.6983  -44.5765 H         1 UNK         0.0600 
    205 H205       -3.6862  -24.3145  -47.1617 H         1 UNK         0.3000 
    206 H206       -4.0399  -27.0363  -46.6292 H         1 UNK         0.0600 
    207 H207       -1.8605  -25.8733  -46.5620 H         1 UNK         0.0600 
    208 H208       -1.7748  -27.2646  -47.6334 H         1 UNK         0.0600 
    209 H209       -1.8936  -25.6461  -48.3078 H         1 UNK         0.0600 
    210 H210       -5.5615  -28.1659  -47.6448 H         1 UNK         0.3000 
    211 H211       -6.7503  -29.3122  -49.0974 H         1 UNK         0.0600 
    212 H212       -4.3972  -29.0666  -51.0474 H         1 UNK         0.0600 
    213 H213       -5.6749  -30.2724  -51.0953 H         1 UNK         0.0600 
    214 H214       -4.5259  -30.2746  -49.7692 H         1 UNK         0.0600 
    215 H215       -6.6448  -26.2460  -49.2464 H         1 UNK         0.3000 
    216 H216       -7.3660  -24.4761  -50.3537 H         1 UNK         0.0600 
    217 H217       -9.5340  -24.6321  -51.5287 H         1 UNK         0.0600 
    218 H218       -9.5677  -25.6324  -50.0869 H         1 UNK         0.0600 
    219 H219       -9.3746  -26.3782  -51.6731 H         1 UNK         0.0600 
    220 H220       -5.0665  -25.6809  -51.4653 H         1 UNK         0.3000 
    221 H221       -5.1933  -26.0763  -54.2675 H         1 UNK         0.0600 
    222 H222       -2.8208  -25.4057  -52.4451 H         1 UNK         0.0600 
    223 H223       -3.4155  -27.0206  -52.8241 H         1 UNK         0.0600 
    224 H224       -2.6944  -26.0314  -54.0862 H         1 UNK         0.0600 
    225 H225       -4.5233  -23.2130  -52.3543 H         1 UNK         0.3000 
    226 H226       -4.4280  -21.0471  -52.7020 H         1 UNK         0.0600 
    227 H227       -6.3999  -21.1643  -54.1882 H         1 UNK         0.0600 
    228 H228       -5.2713  -19.9318  -54.7281 H         1 UNK         0.0600 
    229 H229       -5.3705  -21.4606  -55.5859 H         1 UNK         0.0600 
    230 H230       -3.2486  -22.3341  -55.8270 H         1 UNK         0.3000 
    231 H231       -1.3953  -21.9769  -57.0399 H         1 UNK         0.0600 
    232 H232       -0.0446  -22.2876  -54.2950 H         1 UNK         0.0600 
    233 H233        0.7461  -22.5023  -55.8582 H         1 UNK         0.0600 
    234 H234       -0.5386  -23.5888  -55.3669 H         1 UNK         0.0600 
    235 H235        0.7506  -20.4836  -54.8992 H         1 UNK         0.3000 
    236 H236        0.9228  -18.0208  -56.3108 H         1 UNK         0.0600 
    237 H237        2.8366  -19.0524  -55.1099 H         1 UNK         0.0600 
    238 H238        2.5357  -17.4371  -54.4901 H         1 UNK         0.0600 
    239 H239        2.0137  -18.8385  -53.5633 H         1 UNK         0.0600 
    240 H240       -1.1336  -18.9848  -53.6281 H         1 UNK         0.3000 
    241 H241       -1.8376  -16.2234  -52.9004 H         1 UNK         0.0600 
    242 H242       -2.7343  -18.1335  -55.5766 H         1 UNK         0.3800 
    243 H243       -4.3369  -17.4677  -55.7578 H         1 UNK         0.3800 
    244 H244       -3.3356  -17.2520  -51.2299 H         1 UNK         0.0800 
    245 H245       -2.9844  -18.8417  -51.8293 H         1 UNK         0.0800 
    246 H246       -0.3711  -16.2538  -49.0890 H         1 UNK         0.0800 
    247 H247       -1.5540  -15.6258  -50.2057 H         1 UNK         0.0800 
@<TRIPOS>BOND
     1    1    2 1    
     2    1  127 1    
     3    1  128 1    
     4    1  129 1    
     5    2    3 2    
     6    2    4 am   BACKBONE|DICT|INTERRES
     7    4    5 1    
     8    4  130 1    
     9    5    6 1    
    10    5   65 1    
    11    5  131 1    
    12    6    7 1    
    13    6  132 1    
    14    6  133 1    
    15    7    8 1    
    16    8    9 1    
    17    8  134 1    
    18    8  135 1    
    19    9   10 ar   
    20    9   14 ar   
    21   10   11 ar   
    22   10  136 1    
    23   11   12 ar   
    24   11  126 1    
    25   12   13 ar   
    26   12  137 1    
    27   13   14 ar   
    28   13   15 1    
    29   14  138 1    
    30   15   16 1    
    31   15  139 1    
    32   15  140 1    
    33   16   17 1    
    34   17   18 1    
    35   17  141 1    
    36   17  142 1    
    37   18   19 1    
    38   18   67 1    
    39   18  143 1    
    40   19   20 am   BACKBONE|DICT|INTERRES
    41   19  144 1    
    42   20   21 2    
    43   20   22 1    
    44   22   23 1    
    45   22   24 1    
    46   22  145 1    
    47   23  146 1    
    48   23  147 1    
    49   23  148 1    
    50   24   25 am   BACKBONE|DICT|INTERRES
    51   24  149 1    
    52   25   26 2    
    53   25   27 1    
    54   27   28 1    
    55   27   29 1    
    56   27  150 1    
    57   28  151 1    
    58   28  152 1    
    59   28  153 1    
    60   29   30 am   BACKBONE|DICT|INTERRES
    61   29  154 1    
    62   30   31 2    
    63   30   32 1    
    64   32   33 1    
    65   32   34 1    
    66   32  155 1    
    67   33  156 1    
    68   33  157 1    
    69   33  158 1    
    70   34   35 am   BACKBONE|DICT|INTERRES
    71   34  159 1    
    72   35   36 2    
    73   35   37 1    
    74   37   38 1    
    75   37   39 1    
    76   37  160 1    
    77   38  161 1    
    78   38  162 1    
    79   38  163 1    
    80   39   40 am   BACKBONE|DICT|INTERRES
    81   39  164 1    
    82   40   41 2    
    83   40   42 1    
    84   42   43 1    
    85   42   44 1    
    86   42  165 1    
    87   43  166 1    
    88   43  167 1    
    89   43  168 1    
    90   44   45 am   BACKBONE|DICT|INTERRES
    91   44  169 1    
    92   45   46 2    
    93   45   47 1    
    94   47   48 1    
    95   47   49 1    
    96   47  170 1    
    97   48  171 1    
    98   48  172 1    
    99   48  173 1    
   100   49   50 am   BACKBONE|DICT|INTERRES
   101   49  174 1    
   102   50   51 2    
   103   50   52 1    
   104   52   53 1    
   105   52   54 1    
   106   52  175 1    
   107   53  176 1    
   108   53  177 1    
   109   53  178 1    
   110   54   55 am   BACKBONE|DICT|INTERRES
   111   54  179 1    
   112   55   56 2    
   113   55   57 1    
   114   57   58 1    
   115   57   59 1    
   116   57  180 1    
   117   58  181 1    
   118   58  182 1    
   119   58  183 1    
   120   59   60 am   BACKBONE|DICT|INTERRES
   121   59  184 1    
   122   60   61 2    
   123   60   62 1    
   124   62   63 1    
   125   62   64 1    
   126   62  185 1    
   127   63  186 1    
   128   63  187 1    
   129   63  188 1    
   130   64   65 am   BACKBONE|DICT|INTERRES
   131   64  189 1    
   132   65   66 2    
   133   67   68 2    
   134   67   69 am   BACKBONE|DICT|INTERRES
   135   69   70 1    
   136   69  190 1    
   137   70   71 1    
   138   70   72 1    
   139   70  191 1    
   140   71  192 1    
   141   71  193 1    
   142   71  194 1    
   143   72   73 2    
   144   72   74 am   BACKBONE|DICT|INTERRES
   145   74   75 1    
   146   74  195 1    
   147   75   76 1    
   148   75   77 1    
   149   75  196 1    
   150   76  197 1    
   151   76  198 1    
   152   76  199 1    
   153   77   78 2    
   154   77   79 am   BACKBONE|DICT|INTERRES
   155   79   80 1    
   156   79  200 1    
   157   80   81 1    
   158   80   82 1    
   159   80  201 1    
   160   81  202 1    
   161   81  203 1    
   162   81  204 1    
   163   82   83 2    
   164   82   84 am   BACKBONE|DICT|INTERRES
   165   84   85 1    
   166   84  205 1    
   167   85   86 1    
   168   85   87 1    
   169   85  206 1    
   170   86  207 1    
   171   86  208 1    
   172   86  209 1    
   173   87   88 2    
   174   87   89 am   BACKBONE|DICT|INTERRES
   175   89   90 1    
   176   89  210 1    
   177   90   91 1    
   178   90   92 1    
   179   90  211 1    
   180   91  212 1    
   181   91  213 1    
   182   91  214 1    
   183   92   93 2    
   184   92   94 am   BACKBONE|DICT|INTERRES
   185   94   95 1    
   186   94  215 1    
   187   95   96 1    
   188   95   97 1    
   189   95  216 1    
   190   96  217 1    
   191   96  218 1    
   192   96  219 1    
   193   97   98 2    
   194   97   99 am   BACKBONE|DICT|INTERRES
   195   99  100 1    
   196   99  220 1    
   197  100  101 1    
   198  100  102 1    
   199  100  221 1    
   200  101  222 1    
   201  101  223 1    
   202  101  224 1    
   203  102  103 2    
   204  102  104 am   BACKBONE|DICT|INTERRES
   205  104  105 1    
   206  104  225 1    
   207  105  106 1    
   208  105  107 1    
   209  105  226 1    
   210  106  227 1    
   211  106  228 1    
   212  106  229 1    
   213  107  108 2    
   214  107  109 am   BACKBONE|DICT|INTERRES
   215  109  110 1    
   216  109  230 1    
   217  110  111 1    
   218  110  112 1    
   219  110  231 1    
   220  111  232 1    
   221  111  233 1    
   222  111  234 1    
   223  112  113 2    
   224  112  114 am   BACKBONE|DICT|INTERRES
   225  114  115 1    
   226  114  235 1    
   227  115  116 1    
   228  115  117 1    
   229  115  236 1    
   230  116  237 1    
   231  116  238 1    
   232  116  239 1    
   233  117  118 2    
   234  117  119 am   BACKBONE|DICT|INTERRES
   235  119  120 1    
   236  119  240 1    
   237  120  121 1    
   238  120  124 1    
   239  120  241 1    
   240  121  122 am   BACKBONE|DICT|INTERRES
   241  121  123 2    
   242  122  242 1    
   243  122  243 1    
   244  124  125 1    
   245  124  244 1    
   246  124  245 1    
   247  125  126 1    
   248  126  246 1    
   249  126  247 1    
@<TRIPOS>SUBSTRUCTURE
     1 UNK         1 GROUP             0       ****    0 ROOT    
