@<TRIPOS>MOLECULE
3R540
247   249    1
SMALL
USER_CHARGES


@<TRIPOS>ATOM
      1 CA          0.3241   -7.4589  -47.0028 C.3       0 UNK        -0.1800 
      2 C           0.9372   -8.8236  -46.7255 C.2       0 UNK         0.5000 
      3 O           1.9024   -8.9198  -45.9671 O.2       0 UNK        -0.5000 
      4 N           0.3707   -9.8828  -47.3212 N.am      1 UNK        -0.5000 
      5 CA          0.8459  -11.2734  -47.2250 C.3       1 UNK         0.1400 
      6 C6          0.0964  -12.2244  -48.1903 C.3       23 UNK        -0.0398 
      7 S7          0.2288  -11.6854  -49.9300 S.3       23 UNK        -0.2404 
      8 C8         -1.4611  -11.9742  -50.5420 C.3       23 UNK        -0.0205 
      9 C9         -1.7179  -13.4505  -50.8062 C.ar      23 UNK        -0.0193 
     10 C10        -1.2545  -14.0376  -51.9863 C.ar      23 UNK        -0.1150 
     11 C11        -1.4823  -15.3901  -52.2569 C.ar      23 UNK        -0.0193 
     12 C12        -2.1851  -16.1577  -51.3173 C.ar      23 UNK        -0.1150 
     13 C13        -2.6679  -15.5806  -50.1388 C.ar      23 UNK        -0.0193 
     14 C14        -2.4265  -14.2270  -49.8862 C.ar      23 UNK        -0.1150 
     15 C15        -3.4637  -16.4112  -49.1427 C.3       23 UNK        -0.0205 
     16 S16        -2.3715  -17.3806  -48.0595 S.3       23 UNK        -0.2404 
     17 C17        -2.1741  -18.9316  -49.0035 C.3       23 UNK        -0.0398 
     18 CA         -2.5679  -20.2249  -48.2471 C.3       11 UNK         0.1400 
     19 N          -1.5985  -20.6179  -47.2182 N.am      11 UNK        -0.5000 
     20 C          -1.5320  -21.8564  -46.7073 C.2       10 UNK         0.5000 
     21 O          -2.2949  -22.7645  -47.0342 O.2       10 UNK        -0.5000 
     22 CA         -0.4728  -22.1318  -45.6279 C.3       10 UNK         0.1400 
     23 CB          0.9301  -22.2406  -46.2431 C.3       10 UNK        -0.1800 
     24 N          -0.4852  -21.1365  -44.5581 N.am      10 UNK        -0.5000 
     25 C          -1.5182  -20.9388  -43.7258 C.2       9 UNK         0.5000 
     26 O          -2.5609  -21.5922  -43.7614 O.2       9 UNK        -0.5000 
     27 CA         -1.3790  -19.7969  -42.7036 C.3       9 UNK         0.1400 
     28 CB         -0.5591  -20.2517  -41.4871 C.3       9 UNK        -0.1800 
     29 N          -0.7778  -18.5962  -43.2832 N.am      9 UNK        -0.5000 
     30 C          -1.3333  -17.8730  -44.2663 C.2       8 UNK         0.5000 
     31 O          -2.4422  -18.1108  -44.7425 O.2       8 UNK        -0.5000 
     32 CA         -0.4854  -16.7277  -44.8476 C.3       8 UNK         0.1400 
     33 CB         -0.5109  -15.4987  -43.9294 C.3       8 UNK        -0.1800 
     34 N           0.8985  -17.1299  -45.0920 N.am      8 UNK        -0.5000 
     35 C           1.2814  -18.1009  -45.9333 C.2       7 UNK         0.5000 
     36 O           0.5095  -18.7456  -46.6422 O.2       7 UNK        -0.5000 
     37 CA          2.7788  -18.4468  -45.9415 C.3       7 UNK         0.1400 
     38 CB          3.5603  -17.4887  -46.8533 C.3       7 UNK        -0.1800 
     39 N           3.3433  -18.4222  -44.5920 N.am      7 UNK        -0.5000 
     40 C           3.0871  -19.3421  -43.6515 C.2       6 UNK         0.5000 
     41 O           2.3762  -20.3297  -43.8383 O.2       6 UNK        -0.5000 
     42 CA          3.6993  -19.0976  -42.2594 C.3       6 UNK         0.1400 
     43 CB          5.1609  -19.5679  -42.2188 C.3       6 UNK        -0.1800 
     44 N           3.6280  -17.6943  -41.8475 N.am      6 UNK        -0.5000 
     45 C           2.4861  -17.0504  -41.5693 C.2       5 UNK         0.5000 
     46 O           1.3780  -17.5839  -41.6042 O.2       5 UNK        -0.5000 
     47 CA          2.5901  -15.5495  -41.2355 C.3       5 UNK         0.1400 
     48 CB          2.8553  -15.3484  -39.7364 C.3       5 UNK        -0.1800 
     49 N           3.5939  -14.8078  -42.0058 N.am      5 UNK        -0.5000 
     50 C           3.6856  -14.7719  -43.3420 C.2       4 UNK         0.5000 
     51 O           3.0078  -15.4732  -44.0926 O.2       4 UNK        -0.5000 
     52 CA          4.6592  -13.7348  -43.9218 C.3       4 UNK         0.1400 
     53 CB          4.9509  -13.9637  -45.4157 C.3       4 UNK        -0.1800 
     54 N           4.0512  -12.4199  -43.7535 N.am      4 UNK        -0.5000 
     55 C           4.3045  -11.5736  -42.7464 C.2       3 UNK         0.5000 
     56 O           5.1768  -11.7665  -41.8986 O.2       3 UNK        -0.5000 
     57 CA          3.4138  -10.3182  -42.6439 C.3       3 UNK         0.1400 
     58 CB          4.0816   -9.1268  -43.3460 C.3       3 UNK        -0.1800 
     59 N           2.0746  -10.5182  -43.2027 N.am      3 UNK        -0.5000 
     60 C           1.1495  -11.3422  -42.6848 C.2       2 UNK         0.5000 
     61 O           1.2963  -11.9451  -41.6213 O.2       2 UNK        -0.5000 
     62 CA         -0.1494  -11.5537  -43.4916 C.3       2 UNK         0.1400 
     63 CB         -1.2891  -10.7093  -42.9020 C.3       2 UNK        -0.1800 
     64 N          -0.0335  -11.2547  -44.9217 N.am      2 UNK        -0.5000 
     65 C           0.8139  -11.8335  -45.7864 C.2       1 UNK         0.5000 
     66 O           1.5883  -12.7370  -45.4767 O.2       1 UNK        -0.5000 
     67 C          -4.0210  -20.2194  -47.7196 C.2       11 UNK         0.5000 
     68 O          -4.9273  -20.5920  -48.4646 O.2       11 UNK        -0.5000 
     69 N          -4.2192  -19.8766  -46.4355 N.am      12 UNK        -0.5000 
     70 CA         -5.5071  -19.9731  -45.7390 C.3       12 UNK         0.1400 
     71 CB         -5.4150  -19.2759  -44.3743 C.3       12 UNK        -0.1800 
     72 C          -5.9941  -21.4265  -45.5727 C.2       12 UNK         0.5000 
     73 O          -7.1986  -21.6738  -45.6293 O.2       12 UNK        -0.5000 
     74 N          -5.0499  -22.3660  -45.4273 N.am      13 UNK        -0.5000 
     75 CA         -5.2777  -23.8139  -45.4334 C.3       13 UNK         0.1400 
     76 CB         -4.1766  -24.4876  -44.5967 C.3       13 UNK        -0.1800 
     77 C          -5.3389  -24.4065  -46.8605 C.2       13 UNK         0.5000 
     78 O          -5.3194  -25.6299  -47.0110 O.2       13 UNK        -0.5000 
     79 N          -5.3770  -23.5394  -47.8845 N.am      14 UNK        -0.5000 
     80 CA         -5.4147  -23.8323  -49.3196 C.3       14 UNK         0.1400 
     81 CB         -6.7328  -24.5373  -49.7011 C.3       14 UNK        -0.1800 
     82 C          -4.1735  -24.5886  -49.8332 C.2       14 UNK         0.5000 
     83 O          -4.2576  -25.2622  -50.8604 O.2       14 UNK        -0.5000 
     84 N          -3.0544  -24.4949  -49.0999 N.am      15 UNK        -0.5000 
     85 CA         -1.7767  -25.1712  -49.3354 C.3       15 UNK         0.1400 
     86 CB         -1.0635  -24.5270  -50.5371 C.3       15 UNK        -0.1800 
     87 C          -1.9058  -26.7075  -49.4415 C.2       15 UNK         0.5000 
     88 O          -1.1840  -27.3351  -50.2168 O.2       15 UNK        -0.5000 
     89 N          -2.8457  -27.2733  -48.6660 N.am      16 UNK        -0.5000 
     90 CA         -3.2855  -28.6732  -48.6887 C.3       16 UNK         0.1400 
     91 CB         -2.1546  -29.6247  -48.2432 C.3       16 UNK        -0.1800 
     92 C          -3.9257  -29.0656  -50.0397 C.2       16 UNK         0.5000 
     93 O          -3.6806  -30.1609  -50.5480 O.2       16 UNK        -0.5000 
     94 N          -4.7424  -28.1478  -50.5787 N.am      17 UNK        -0.5000 
     95 CA         -5.4421  -28.1962  -51.8648 C.3       17 UNK         0.1400 
     96 CB         -6.4369  -29.3752  -51.9239 C.3       17 UNK        -0.1800 
     97 C          -4.4579  -28.1555  -53.0495 C.2       17 UNK         0.5000 
     98 O          -4.4161  -29.0845  -53.8594 O.2       17 UNK        -0.5000 
     99 N          -3.6799  -27.0700  -53.1196 N.am      18 UNK        -0.5000 
    100 CA        -2.7230  -26.7853  -54.1870 C.3       18 UNK         0.1400 
    101 CB        -1.2981  -27.0452  -53.6702 C.3       18 UNK        -0.1800 
    102 C         -2.8872  -25.3361  -54.6731 C.2       18 UNK         0.5000 
    103 O         -3.5803  -24.5385  -54.0375 O.2       18 UNK        -0.5000 
    104 N         -2.2269  -25.0121  -55.7942 N.am      19 UNK        -0.5000 
    105 CA        -2.2891  -23.7151  -56.4823 C.3       19 UNK         0.1400 
    106 CB        -1.4553  -23.7918  -57.7700 C.3       19 UNK        -0.1800 
    107 C         -1.8484  -22.5077  -55.6300 C.2       19 UNK         0.5000 
    108 O         -2.3178  -21.3944  -55.8687 O.2       19 UNK        -0.5000 
    109 N         -1.0040  -22.7551  -54.6186 N.am      20 UNK        -0.5000 
    110 CA        -0.5524  -21.7820  -53.6194 C.3       20 UNK         0.1400 
    111 CB         0.6590  -22.3603  -52.8709 C.3       20 UNK        -0.1800 
    112 C         -1.6556  -21.2811  -52.6565 C.2       20 UNK         0.5000 
    113 O         -1.3835  -20.4012  -51.8403 O.2       20 UNK        -0.5000 
    114 N         -2.8874  -21.7983  -52.7878 N.am      21 UNK        -0.5000 
    115 CA        -4.1081  -21.1857  -52.2583 C.3       21 UNK         0.1400 
    116 CB        -5.2971  -22.1133  -52.5552 C.3       21 UNK        -0.1800 
    117 C         -4.3885  -19.7966  -52.8718 C.2       21 UNK         0.5000 
    118 O         -4.9376  -18.9330  -52.1881 O.2       21 UNK        -0.5000 
    119 N         -4.0086  -19.6217  -54.1474 N.am      22 UNK        -0.5000 
    120 CA        -4.1419  -18.3954  -54.9555 C.3       22 UNK         0.1400 
    121 C         -5.6064  -18.0107  -55.3303 C.2       22 UNK         0.5000 
    122 N         -6.5835  -18.8977  -55.1853 N.am      22 UNK        -0.7600 
    123 O         -5.8628  -16.9022  -55.7931 O.2       22 UNK        -0.5000 
    124 C124       -3.3408  -17.1907  -54.3871 C.3       23 UNK        -0.0398 
    125 S125       -1.5848  -17.5891  -54.0787 S.3       23 UNK        -0.2404 
    126 C126       -0.9313  -15.9636  -53.5654 C.3       23 UNK        -0.0205 
    127 H127        1.0671   -6.7989  -47.4503 H         1 UNK         0.0600 
    128 H128       -0.0195   -7.0064  -46.0726 H         1 UNK         0.0600 
    129 H129       -0.5252   -7.5264  -47.6832 H         1 UNK         0.0600 
    130 H130       -0.4123   -9.7364  -47.9423 H         1 UNK         0.3000 
    131 H131        1.8968  -11.2652  -47.5225 H         1 UNK         0.0600 
    132 H132        0.5018  -13.2362  -48.1268 H         1 UNK         0.0800 
    133 H133       -0.9543  -12.2986  -47.9056 H         1 UNK         0.0800 
    134 H134       -2.1903  -11.5699  -49.8382 H         1 UNK         0.0800 
    135 H135       -1.5968  -11.4150  -51.4690 H         1 UNK         0.0800 
    136 H136       -0.7062  -13.4348  -52.6972 H         1 UNK         0.1150 
    137 H137       -2.3671  -17.2069  -51.4964 H         1 UNK         0.1150 
    138 H138       -2.7938  -13.7775  -48.9744 H         1 UNK         0.1150 
    139 H139       -4.0737  -15.7575  -48.5176 H         1 UNK         0.0800 
    140 H140       -4.1661  -17.0626  -49.6655 H         1 UNK         0.0800 
    141 H141       -1.1347  -18.9977  -49.3278 H         1 UNK         0.0800 
    142 H142       -2.7570  -18.8739  -49.9233 H         1 UNK         0.0800 
    143 H143       -2.5346  -21.0173  -48.9993 H         1 UNK         0.0600 
    144 H144       -0.9337  -19.9082  -46.9152 H         1 UNK         0.3000 
    145 H145       -0.7107  -23.0976  -45.1769 H         1 UNK         0.0600 
    146 H146        1.6700  -22.5137  -45.4906 H         1 UNK         0.0600 
    147 H147        0.9563  -23.0077  -47.0181 H         1 UNK         0.0600 
    148 H148        1.2480  -21.3042  -46.6999 H         1 UNK         0.0600 
    149 H149        0.3537  -20.5795  -44.4425 H         1 UNK         0.3000 
    150 H150       -2.3816  -19.5358  -42.3591 H         1 UNK         0.0600 
    151 H151       -0.9907  -21.1464  -41.0367 H         1 UNK         0.0600 
    152 H152       -0.5356  -19.4795  -40.7181 H         1 UNK         0.0600 
    153 H153        0.4712  -20.4833  -41.7591 H         1 UNK         0.0600 
    154 H154        0.1166  -18.3043  -42.9001 H         1 UNK         0.3000 
    155 H155       -0.9139  -16.4347  -45.8057 H         1 UNK         0.0600 
    156 H156       -1.5232  -15.1046  -43.8349 H         1 UNK         0.0600 
    157 H157        0.1169  -14.7034  -44.3291 H         1 UNK         0.0600 
    158 H158       -0.1550  -15.7339  -42.9272 H         1 UNK         0.0600 
    159 H159        1.6206  -16.6155  -44.5930 H         1 UNK         0.3000 
    160 H160        2.8899  -19.4570  -46.3407 H         1 UNK         0.0600 
    161 H161        3.1925  -17.5448  -47.8785 H         1 UNK         0.0600 
    162 H162        3.4651  -16.4519  -46.5306 H         1 UNK         0.0600 
    163 H163        4.6211  -17.7386  -46.8737 H         1 UNK         0.0600 
    164 H164        3.8542  -17.5899  -44.3328 H         1 UNK         0.3000 
    165 H165        3.1317  -19.6916  -41.5396 H         1 UNK         0.0600 
    166 H166        5.5772  -19.4745  -41.2156 H         1 UNK         0.0600 
    167 H167        5.2408  -20.6171  -42.5063 H         1 UNK         0.0600 
    168 H168        5.7900  -18.9922  -42.8989 H         1 UNK         0.0600 
    169 H169        4.4958  -17.1808  -41.8026 H         1 UNK         0.3000 
    170 H170        1.6228  -15.0997  -41.4658 H         1 UNK         0.0600 
    171 H171        2.1112  -15.8711  -39.1337 H         1 UNK         0.0600 
    172 H172        3.8371  -15.7252  -39.4472 H         1 UNK         0.0600 
    173 H173        2.8062  -14.2932  -39.4664 H         1 UNK         0.0600 
    174 H174        4.1782  -14.1749  -41.4773 H         1 UNK         0.3000 
    175 H175        5.6030  -13.8041  -43.3772 H         1 UNK         0.0600 
    176 H176        4.0455  -13.9045  -46.0211 H         1 UNK         0.0600 
    177 H177        5.6540  -13.2226  -45.7958 H         1 UNK         0.0600 
    178 H178        5.3932  -14.9470  -45.5798 H         1 UNK         0.0600 
    179 H179        3.2557  -12.2361  -44.3556 H         1 UNK         0.3000 
    180 H180        3.3057  -10.0743  -41.5850 H         1 UNK         0.0600 
    181 H181        3.4847   -8.2206  -43.2406 H         1 UNK         0.0600 
    182 H182        4.2196   -9.3148  -44.4115 H         1 UNK         0.0600 
    183 H183        5.0638   -8.9216  -42.9184 H         1 UNK         0.0600 
    184 H184        1.8798  -10.0543  -44.0826 H         1 UNK         0.3000 
    185 H185       -0.4213  -12.6051  -43.3937 H         1 UNK         0.0600 
    186 H186       -1.0879   -9.6414  -42.9967 H         1 UNK         0.0600 
    187 H187       -2.2356  -10.9196  -43.4003 H         1 UNK         0.0600 
    188 H188       -1.4278  -10.9245  -41.8415 H         1 UNK         0.0600 
    189 H189       -0.6140  -10.5053  -45.2688 H         1 UNK         0.3000 
    190 H190       -3.4370  -19.5205  -45.8947 H         1 UNK         0.3000 
    191 H191       -6.2506  -19.4443  -46.3389 H         1 UNK         0.0600 
    192 H192       -4.6510  -19.7288  -43.7419 H         1 UNK         0.0600 
    193 H193       -5.1734  -18.2191  -44.4883 H         1 UNK         0.0600 
    194 H194       -6.3633  -19.3352  -43.8388 H         1 UNK         0.0600 
    195 H195       -4.0831  -22.0711  -45.3544 H         1 UNK         0.3000 
    196 H196       -6.2373  -24.0249  -44.9578 H         1 UNK         0.0600 
    197 H197       -4.1465  -24.0806  -43.5858 H         1 UNK         0.0600 
    198 H198       -3.1906  -24.3482  -45.0406 H         1 UNK         0.0600 
    199 H199       -4.3484  -25.5609  -44.5075 H         1 UNK         0.0600 
    200 H200       -5.3468  -22.5523  -47.6613 H         1 UNK         0.3000 
    201 H201       -5.4039  -22.8634  -49.8167 H         1 UNK         0.0600 
    202 H202       -6.8361  -24.6170  -50.7840 H         1 UNK         0.0600 
    203 H203       -7.5963  -23.9815  -49.3359 H         1 UNK         0.0600 
    204 H204       -6.7862  -25.5471  -49.2935 H         1 UNK         0.0600 
    205 H205       -3.0652  -23.8967  -48.2761 H         1 UNK         0.3000 
    206 H206       -1.1634  -24.9859  -48.4525 H         1 UNK         0.0600 
    207 H207       -0.8974  -23.4641  -50.3604 H         1 UNK         0.0600 
    208 H208       -1.6474  -24.6226  -51.4526 H         1 UNK         0.0600 
    209 H209       -0.0886  -24.9834  -50.7110 H         1 UNK         0.0600 
    210 H210       -3.3920  -26.6596  -48.0740 H         1 UNK         0.3000 
    211 H211       -4.0823  -28.7487  -47.9474 H         1 UNK         0.0600 
    212 H212       -1.7320  -29.3147  -47.2876 H         1 UNK         0.0600 
    213 H213       -2.5294  -30.6410  -48.1170 H         1 UNK         0.0600 
    214 H214       -1.3445  -29.6661  -48.9715 H         1 UNK         0.0600 
    215 H215       -4.7834  -27.2462  -50.1219 H         1 UNK         0.3000 
    216 H216       -6.0295  -27.2784  -51.9238 H         1 UNK         0.0600 
    217 H217       -7.0328  -29.3319  -52.8362 H         1 UNK         0.0600 
    218 H218       -5.9324  -30.3414  -51.9129 H         1 UNK         0.0600 
    219 H219       -7.1292  -29.3485  -51.0825 H         1 UNK         0.0600 
    220 H220       -3.8133  -26.3226  -52.4406 H         1 UNK         0.3000 
    221 H221       -2.9113  -27.4346  -55.0444 H         1 UNK         0.0600 
    222 H222       -1.0359  -26.3748  -52.8531 H         1 UNK         0.0600 
    223 H223       -1.1947  -28.0668  -53.3037 H         1 UNK         0.0600 
    224 H224       -0.5573  -26.9083  -54.4584 H         1 UNK         0.0600 
    225 H225       -1.6712  -25.7232  -56.2477 H         1 UNK         0.3000 
    226 H226       -3.3311  -23.5450  -56.7609 H         1 UNK         0.0600 
    227 H227       -1.8240  -24.5738  -58.4340 H         1 UNK         0.0600 
    228 H228       -1.5004  -22.8520  -58.3223 H         1 UNK         0.0600 
    229 H229       -0.4054  -23.9974  -57.5573 H         1 UNK         0.0600 
    230 H230       -0.6861  -23.7048  -54.4953 H         1 UNK         0.3000 
    231 H231       -0.2101  -20.8954  -54.1573 H         1 UNK         0.0600 
    232 H232        0.9700  -21.7133  -52.0496 H         1 UNK         0.0600 
    233 H233        1.5139  -22.4636  -53.5393 H         1 UNK         0.0600 
    234 H234        0.4471  -23.3441  -52.4574 H         1 UNK         0.0600 
    235 H235       -3.0203  -22.5822  -53.4169 H         1 UNK         0.3000 
    236 H236       -3.9990  -21.0764  -51.1777 H         1 UNK         0.0600 
    237 H237       -6.2051  -21.7532  -52.0699 H         1 UNK         0.0600 
    238 H238       -5.4984  -22.1796  -53.6252 H         1 UNK         0.0600 
    239 H239       -5.1150  -23.1261  -52.2030 H         1 UNK         0.0600 
    240 H240       -3.5351  -20.3847  -54.6201 H         1 UNK         0.3000 
    241 H241       -3.6837  -18.6487  -55.9121 H         1 UNK         0.0600 
    242 H242       -7.5253  -18.6451  -55.4406 H         1 UNK         0.3800 
    243 H243       -6.3908  -19.8156  -54.8191 H         1 UNK         0.3800 
    244 H244       -3.3711  -16.3522  -55.0847 H         1 UNK         0.0800 
    245 H245       -3.8008  -16.8345  -53.4653 H         1 UNK         0.0800 
    246 H246        0.1513  -16.0518  -53.4665 H         1 UNK         0.0800 
    247 H247       -1.1084  -15.2543  -54.3754 H         1 UNK         0.0800 
@<TRIPOS>BOND
     1    1    2 1    
     2    1  127 1    
     3    1  128 1    
     4    1  129 1    
     5    2    3 2    
     6    2    4 am   BACKBONE|DICT|INTERRES
     7    4    5 1    
     8    4  130 1    
     9    5    6 1    
    10    5   65 1    
    11    5  131 1    
    12    6    7 1    
    13    6  132 1    
    14    6  133 1    
    15    7    8 1    
    16    8    9 1    
    17    8  134 1    
    18    8  135 1    
    19    9   10 ar   
    20    9   14 ar   
    21   10   11 ar   
    22   10  136 1    
    23   11   12 ar   
    24   11  126 1    
    25   12   13 ar   
    26   12  137 1    
    27   13   14 ar   
    28   13   15 1    
    29   14  138 1    
    30   15   16 1    
    31   15  139 1    
    32   15  140 1    
    33   16   17 1    
    34   17   18 1    
    35   17  141 1    
    36   17  142 1    
    37   18   19 1    
    38   18   67 1    
    39   18  143 1    
    40   19   20 am   BACKBONE|DICT|INTERRES
    41   19  144 1    
    42   20   21 2    
    43   20   22 1    
    44   22   23 1    
    45   22   24 1    
    46   22  145 1    
    47   23  146 1    
    48   23  147 1    
    49   23  148 1    
    50   24   25 am   BACKBONE|DICT|INTERRES
    51   24  149 1    
    52   25   26 2    
    53   25   27 1    
    54   27   28 1    
    55   27   29 1    
    56   27  150 1    
    57   28  151 1    
    58   28  152 1    
    59   28  153 1    
    60   29   30 am   BACKBONE|DICT|INTERRES
    61   29  154 1    
    62   30   31 2    
    63   30   32 1    
    64   32   33 1    
    65   32   34 1    
    66   32  155 1    
    67   33  156 1    
    68   33  157 1    
    69   33  158 1    
    70   34   35 am   BACKBONE|DICT|INTERRES
    71   34  159 1    
    72   35   36 2    
    73   35   37 1    
    74   37   38 1    
    75   37   39 1    
    76   37  160 1    
    77   38  161 1    
    78   38  162 1    
    79   38  163 1    
    80   39   40 am   BACKBONE|DICT|INTERRES
    81   39  164 1    
    82   40   41 2    
    83   40   42 1    
    84   42   43 1    
    85   42   44 1    
    86   42  165 1    
    87   43  166 1    
    88   43  167 1    
    89   43  168 1    
    90   44   45 am   BACKBONE|DICT|INTERRES
    91   44  169 1    
    92   45   46 2    
    93   45   47 1    
    94   47   48 1    
    95   47   49 1    
    96   47  170 1    
    97   48  171 1    
    98   48  172 1    
    99   48  173 1    
   100   49   50 am   BACKBONE|DICT|INTERRES
   101   49  174 1    
   102   50   51 2    
   103   50   52 1    
   104   52   53 1    
   105   52   54 1    
   106   52  175 1    
   107   53  176 1    
   108   53  177 1    
   109   53  178 1    
   110   54   55 am   BACKBONE|DICT|INTERRES
   111   54  179 1    
   112   55   56 2    
   113   55   57 1    
   114   57   58 1    
   115   57   59 1    
   116   57  180 1    
   117   58  181 1    
   118   58  182 1    
   119   58  183 1    
   120   59   60 am   BACKBONE|DICT|INTERRES
   121   59  184 1    
   122   60   61 2    
   123   60   62 1    
   124   62   63 1    
   125   62   64 1    
   126   62  185 1    
   127   63  186 1    
   128   63  187 1    
   129   63  188 1    
   130   64   65 am   BACKBONE|DICT|INTERRES
   131   64  189 1    
   132   65   66 2    
   133   67   68 2    
   134   67   69 am   BACKBONE|DICT|INTERRES
   135   69   70 1    
   136   69  190 1    
   137   70   71 1    
   138   70   72 1    
   139   70  191 1    
   140   71  192 1    
   141   71  193 1    
   142   71  194 1    
   143   72   73 2    
   144   72   74 am   BACKBONE|DICT|INTERRES
   145   74   75 1    
   146   74  195 1    
   147   75   76 1    
   148   75   77 1    
   149   75  196 1    
   150   76  197 1    
   151   76  198 1    
   152   76  199 1    
   153   77   78 2    
   154   77   79 am   BACKBONE|DICT|INTERRES
   155   79   80 1    
   156   79  200 1    
   157   80   81 1    
   158   80   82 1    
   159   80  201 1    
   160   81  202 1    
   161   81  203 1    
   162   81  204 1    
   163   82   83 2    
   164   82   84 am   BACKBONE|DICT|INTERRES
   165   84   85 1    
   166   84  205 1    
   167   85   86 1    
   168   85   87 1    
   169   85  206 1    
   170   86  207 1    
   171   86  208 1    
   172   86  209 1    
   173   87   88 2    
   174   87   89 am   BACKBONE|DICT|INTERRES
   175   89   90 1    
   176   89  210 1    
   177   90   91 1    
   178   90   92 1    
   179   90  211 1    
   180   91  212 1    
   181   91  213 1    
   182   91  214 1    
   183   92   93 2    
   184   92   94 am   BACKBONE|DICT|INTERRES
   185   94   95 1    
   186   94  215 1    
   187   95   96 1    
   188   95   97 1    
   189   95  216 1    
   190   96  217 1    
   191   96  218 1    
   192   96  219 1    
   193   97   98 2    
   194   97   99 am   BACKBONE|DICT|INTERRES
   195   99  100 1    
   196   99  220 1    
   197  100  101 1    
   198  100  102 1    
   199  100  221 1    
   200  101  222 1    
   201  101  223 1    
   202  101  224 1    
   203  102  103 2    
   204  102  104 am   BACKBONE|DICT|INTERRES
   205  104  105 1    
   206  104  225 1    
   207  105  106 1    
   208  105  107 1    
   209  105  226 1    
   210  106  227 1    
   211  106  228 1    
   212  106  229 1    
   213  107  108 2    
   214  107  109 am   BACKBONE|DICT|INTERRES
   215  109  110 1    
   216  109  230 1    
   217  110  111 1    
   218  110  112 1    
   219  110  231 1    
   220  111  232 1    
   221  111  233 1    
   222  111  234 1    
   223  112  113 2    
   224  112  114 am   BACKBONE|DICT|INTERRES
   225  114  115 1    
   226  114  235 1    
   227  115  116 1    
   228  115  117 1    
   229  115  236 1    
   230  116  237 1    
   231  116  238 1    
   232  116  239 1    
   233  117  118 2    
   234  117  119 am   BACKBONE|DICT|INTERRES
   235  119  120 1    
   236  119  240 1    
   237  120  121 1    
   238  120  124 1    
   239  120  241 1    
   240  121  122 am   BACKBONE|DICT|INTERRES
   241  121  123 2    
   242  122  242 1    
   243  122  243 1    
   244  124  125 1    
   245  124  244 1    
   246  124  245 1    
   247  125  126 1    
   248  126  246 1    
   249  126  247 1    
@<TRIPOS>SUBSTRUCTURE
     1 UNK         1 GROUP             0       ****    0 ROOT    
