@<TRIPOS>MOLECULE
3R540
247   249    1
SMALL
USER_CHARGES


@<TRIPOS>ATOM
      1 CA         -3.8639  -10.2707  -42.4155 C.3       0 UNK        -0.1800 
      2 C          -2.8901  -11.2825  -43.0016 C.2       0 UNK         0.5000 
      3 O          -2.4762  -11.1422  -44.1523 O.2       0 UNK        -0.5000 
      4 N          -2.5012  -12.2913  -42.2115 N.am      1 UNK        -0.5000 
      5 CA         -1.5879  -13.3822  -42.5832 C.3       1 UNK         0.1400 
      6 C6         -1.8895  -14.6581  -41.7483 C.3       23 UNK        -0.0398 
      7 S7         -1.5310  -16.1992  -42.6564 S.3       23 UNK        -0.2404 
      8 C8         -3.2020  -16.6734  -43.1955 C.3       23 UNK        -0.0205 
      9 C9         -3.1813  -17.8917  -44.1061 C.ar      23 UNK        -0.0193 
     10 C10        -2.7510  -17.7634  -45.4293 C.ar      23 UNK        -0.1150 
     11 C11        -2.7690  -18.8609  -46.2947 C.ar      23 UNK        -0.0193 
     12 C12        -3.2268  -20.0951  -45.8260 C.ar      23 UNK        -0.1150 
     13 C13        -3.6525  -20.2405  -44.5028 C.ar      23 UNK        -0.0193 
     14 C14        -3.6254  -19.1356  -43.6456 C.ar      23 UNK        -0.1150 
     15 C15        -4.1669  -21.5870  -44.0141 C.3       23 UNK        -0.0205 
     16 S16        -2.9803  -22.4594  -42.9398 S.3       23 UNK        -0.2404 
     17 C17        -1.4741  -22.5537  -43.9686 C.3       23 UNK        -0.0398 
     18 CA         -1.5586  -23.4681  -45.2107 C.3       11 UNK         0.1400 
     19 N          -0.4214  -23.2291  -46.1109 N.am      11 UNK        -0.5000 
     20 C          -0.3043  -23.7212  -47.3534 C.2       10 UNK         0.5000 
     21 O          -1.1397  -24.4796  -47.8493 O.2       10 UNK        -0.5000 
     22 CA          0.9380  -23.3176  -48.1693 C.3       10 UNK         0.1400 
     23 CB          0.6207  -23.1305  -49.6634 C.3       10 UNK        -0.1800 
     24 N           1.5470  -22.0926  -47.6470 N.am      10 UNK        -0.5000 
     25 C           2.8344  -21.9600  -47.3056 C.2       9 UNK         0.5000 
     26 O           3.6726  -22.8525  -47.4390 O.2       9 UNK        -0.5000 
     27 CA          3.2695  -20.6126  -46.6942 C.3       9 UNK         0.1400 
     28 CB          3.9061  -19.7133  -47.7649 C.3       9 UNK        -0.1800 
     29 N           2.2145  -19.8628  -46.0036 N.am      9 UNK        -0.5000 
     30 C           1.5245  -20.2776  -44.9329 C.2       8 UNK         0.5000 
     31 O           1.5759  -21.4350  -44.5130 O.2       8 UNK        -0.5000 
     32 CA          0.6377  -19.2388  -44.2045 C.3       8 UNK         0.1400 
     33 CB          0.4199  -19.5999  -42.7220 C.3       8 UNK        -0.1800 
     34 N           1.1519  -17.8672  -44.2491 N.am      8 UNK        -0.5000 
     35 C           1.1053  -17.0325  -45.2924 C.2       7 UNK         0.5000 
     36 O           0.6941  -17.3679  -46.4029 O.2       7 UNK        -0.5000 
     37 CA          1.5809  -15.5880  -45.0328 C.3       7 UNK         0.1400 
     38 CB          2.9424  -15.5326  -44.3053 C.3       7 UNK        -0.1800 
     39 N           1.5723  -14.7687  -46.2504 N.am      7 UNK        -0.5000 
     40 C           2.3490  -14.9002  -47.3367 C.2       6 UNK         0.5000 
     41 O           3.3299  -15.6411  -47.4075 O.2       6 UNK        -0.5000 
     42 CA          1.9402  -14.0748  -48.5669 C.3       6 UNK         0.1400 
     43 CB          0.9308  -14.9007  -49.3955 C.3       6 UNK        -0.1800 
     44 N           1.4021  -12.7652  -48.1760 N.am      6 UNK        -0.5000 
     45 C           0.9319  -11.8189  -49.0026 C.2       5 UNK         0.5000 
     46 O           0.8530  -11.9372  -50.2255 O.2       5 UNK        -0.5000 
     47 CA          0.5271  -10.4847  -48.3553 C.3       5 UNK         0.1400 
     48 CB         -0.6922  -10.6426  -47.4298 C.3       5 UNK        -0.1800 
     49 N           1.6564   -9.9320  -47.6123 N.am      5 UNK        -0.5000 
     50 C           2.6244   -9.1818  -48.1604 C.2       4 UNK         0.5000 
     51 O           2.5958   -8.7685  -49.3203 O.2       4 UNK        -0.5000 
     52 CA          3.8397   -8.8412  -47.2738 C.3       4 UNK         0.1400 
     53 CB          3.6371   -7.4844  -46.5823 C.3       4 UNK        -0.1800 
     54 N           4.1084   -9.8568  -46.2561 N.am      4 UNK        -0.5000 
     55 C           4.5180  -11.1094  -46.5037 C.2       3 UNK         0.5000 
     56 O           4.8250  -11.5223  -47.6219 O.2       3 UNK        -0.5000 
     57 CA          4.5473  -12.0752  -45.3025 C.3       3 UNK         0.1400 
     58 CB          5.9692  -12.1932  -44.7349 C.3       3 UNK        -0.1800 
     59 N           3.6271  -11.6995  -44.2209 N.am      3 UNK        -0.5000 
     60 C           2.2936  -11.6498  -44.3354 C.2       2 UNK         0.5000 
     61 O           1.6897  -11.9066  -45.3799 O.2       2 UNK        -0.5000 
     62 CA          1.5182  -11.1462  -43.1103 C.3       2 UNK         0.1400 
     63 CB          1.3615   -9.6193  -43.1838 C.3       2 UNK        -0.1800 
     64 N           0.1890  -11.7457  -43.0531 N.am      2 UNK        -0.5000 
     65 C          -0.1007  -12.9420  -42.5298 C.2       1 UNK         0.5000 
     66 O           0.7477  -13.6642  -42.0037 O.2       1 UNK        -0.5000 
     67 C          -1.7341  -24.9584  -44.8418 C.2       11 UNK         0.5000 
     68 O          -2.8664  -25.4114  -44.6737 O.2       11 UNK        -0.5000 
     69 N          -0.6284  -25.7176  -44.8210 N.am      12 UNK        -0.5000 
     70 CA         -0.6090  -27.1740  -44.6458 C.3       12 UNK         0.1400 
     71 CB          0.8503  -27.6389  -44.5271 C.3       12 UNK        -0.1800 
     72 C          -1.3316  -27.9510  -45.7692 C.2       12 UNK         0.5000 
     73 O          -1.7790  -29.0736  -45.5335 O.2       12 UNK        -0.5000 
     74 N          -1.4507  -27.3354  -46.9533 N.am      13 UNK        -0.5000 
     75 CA         -2.1887  -27.8413  -48.1105 C.3       13 UNK         0.1400 
     76 CB         -1.2766  -27.7379  -49.3463 C.3       13 UNK        -0.1800 
     77 C          -3.5038  -27.0637  -48.3275 C.2       13 UNK         0.5000 
     78 O          -4.0933  -27.1694  -49.4040 O.2       13 UNK        -0.5000 
     79 N          -3.9225  -26.2578  -47.3375 N.am      14 UNK        -0.5000 
     80 CA         -5.0734  -25.3473  -47.3648 C.3       14 UNK         0.1400 
     81 CB         -6.3961  -26.1412  -47.3936 C.3       14 UNK        -0.1800 
     82 C          -4.9715  -24.3046  -48.4979 C.2       14 UNK         0.5000 
     83 O          -5.9559  -24.0429  -49.1896 O.2       14 UNK        -0.5000 
     84 N          -3.7579  -23.7690  -48.6999 N.am      15 UNK        -0.5000 
     85 CA         -3.3656  -22.8558  -49.7785 C.3       15 UNK         0.1400 
     86 CB         -4.1144  -21.5167  -49.6655 C.3       15 UNK        -0.1800 
     87 C          -3.4765  -23.5118  -51.1713 C.2       15 UNK         0.5000 
     88 O          -3.8773  -22.8581  -52.1381 O.2       15 UNK        -0.5000 
     89 N          -3.1394  -24.8104  -51.2179 N.am      16 UNK        -0.5000 
     90 CA         -3.3166  -25.7532  -52.3271 C.3       16 UNK         0.1400 
     91 CB         -2.4237  -25.3769  -53.5249 C.3       16 UNK        -0.1800 
     92 C          -4.8042  -25.8925  -52.7016 C.2       16 UNK         0.5000 
     93 O          -5.1729  -25.6950  -53.8587 O.2       16 UNK        -0.5000 
     94 N          -5.6408  -26.1616  -51.6881 N.am      17 UNK        -0.5000 
     95 CA         -7.1096  -26.1717  -51.7410 C.3       17 UNK         0.1400 
     96 CB         -7.6118  -27.4091  -52.5124 C.3       17 UNK        -0.1800 
     97 C          -7.6852  -24.8429  -52.2845 C.2       17 UNK         0.5000 
     98 O          -8.5706  -24.8460  -53.1414 O.2       17 UNK        -0.5000 
     99 N          -7.1165  -23.7326  -51.7947 N.am      18 UNK        -0.5000 
    100 CA        -7.3544  -22.3352  -52.1679 C.3       18 UNK         0.1400 
    101 CB        -8.8096  -21.9273  -51.8595 C.3       18 UNK        -0.1800 
    102 C         -6.9346  -21.9469  -53.6040 C.2       18 UNK         0.5000 
    103 O         -7.1911  -20.8098  -54.0033 O.2       18 UNK        -0.5000 
    104 N         -6.2964  -22.8519  -54.3613 N.am      19 UNK        -0.5000 
    105 CA        -5.9110  -22.6117  -55.7534 C.3       19 UNK         0.1400 
    106 CB        -5.7421  -23.9505  -56.4868 C.3       19 UNK        -0.1800 
    107 C         -4.6351  -21.7638  -55.8934 C.2       19 UNK         0.5000 
    108 O         -4.5292  -21.0035  -56.8572 O.2       19 UNK        -0.5000 
    109 N         -3.6875  -21.9093  -54.9562 N.am      20 UNK        -0.5000 
    110 CA        -2.4067  -21.1977  -54.9869 C.3       20 UNK         0.1400 
    111 CB        -1.2971  -22.0986  -54.4215 C.3       20 UNK        -0.1800 
    112 C         -2.4522  -19.8756  -54.2084 C.2       20 UNK         0.5000 
    113 O         -1.6497  -18.9860  -54.4947 O.2       20 UNK        -0.5000 
    114 N         -3.3440  -19.7842  -53.2079 N.am      21 UNK        -0.5000 
    115 CA        -3.5177  -18.6476  -52.2882 C.3       21 UNK         0.1400 
    116 CB        -4.0825  -17.4269  -53.0434 C.3       21 UNK        -0.1800 
    117 C         -2.2389  -18.3078  -51.4824 C.2       21 UNK         0.5000 
    118 O         -2.0604  -17.1627  -51.0661 O.2       21 UNK        -0.5000 
    119 N         -1.3677  -19.3126  -51.3047 N.am      22 UNK        -0.5000 
    120 CA        -0.0028  -19.2142  -50.7572 C.3       22 UNK         0.1400 
    121 C          1.0045  -18.4373  -51.6624 C.2       22 UNK         0.5000 
    122 N          0.7007  -18.1644  -52.9264 N.am      22 UNK        -0.7600 
    123 O          2.1043  -18.1087  -51.2273 O.2       22 UNK        -0.5000 
    124 C124        0.0446  -18.7422  -49.2787 C.3       23 UNK        -0.0398 
    125 S125       -0.9195  -19.7985  -48.1423 S.3       23 UNK        -0.2404 
    126 C126       -2.3163  -18.7000  -47.7376 C.3       23 UNK        -0.0205 
    127 H127       -4.7752  -10.2387  -43.0126 H         1 UNK         0.0600 
    128 H128       -3.4179   -9.2761  -42.4184 H         1 UNK         0.0600 
    129 H129       -4.1378  -10.5182  -41.3896 H         1 UNK         0.0600 
    130 H130       -2.8434  -12.3203  -41.2614 H         1 UNK         0.3000 
    131 H131       -1.7912  -13.6198  -43.6300 H         1 UNK         0.0600 
    132 H132       -1.3416  -14.6618  -40.8044 H         1 UNK         0.0800 
    133 H133       -2.9421  -14.6819  -41.4623 H         1 UNK         0.0800 
    134 H134       -3.8226  -16.8638  -42.3184 H         1 UNK         0.0800 
    135 H135       -3.6622  -15.8378  -43.7252 H         1 UNK         0.0800 
    136 H136       -2.4037  -16.8031  -45.7842 H         1 UNK         0.1150 
    137 H137       -3.2458  -20.9440  -46.4936 H         1 UNK         0.1150 
    138 H138       -3.9617  -19.2444  -42.6240 H         1 UNK         0.1150 
    139 H139       -5.0918  -21.4334  -43.4563 H         1 UNK         0.0800 
    140 H140       -4.4316  -22.2284  -44.8557 H         1 UNK         0.0800 
    141 H141       -0.6433  -22.8600  -43.3307 H         1 UNK         0.0800 
    142 H142       -1.2424  -21.5399  -44.2899 H         1 UNK         0.0800 
    143 H143       -2.4498  -23.1847  -45.7729 H         1 UNK         0.0600 
    144 H144        0.3302  -22.6566  -45.7427 H         1 UNK         0.3000 
    145 H145        1.6300  -24.1567  -48.0775 H         1 UNK         0.0600 
    146 H146        1.5265  -22.9170  -50.2309 H         1 UNK         0.0600 
    147 H147        0.1753  -24.0286  -50.0936 H         1 UNK         0.0600 
    148 H148       -0.0722  -22.3070  -49.8237 H         1 UNK         0.0600 
    149 H149        0.9264  -21.3041  -47.5131 H         1 UNK         0.3000 
    150 H150        4.0349  -20.8366  -45.9485 H         1 UNK         0.0600 
    151 H151        4.7670  -20.2027  -48.2221 H         1 UNK         0.0600 
    152 H152        4.2570  -18.7733  -47.3378 H         1 UNK         0.0600 
    153 H153        3.2058  -19.4768  -48.5652 H         1 UNK         0.0600 
    154 H154        2.0359  -18.9184  -46.3267 H         1 UNK         0.3000 
    155 H155       -0.3332  -19.2560  -44.7018 H         1 UNK         0.0600 
    156 H156        0.0156  -20.6024  -42.5951 H         1 UNK         0.0600 
    157 H157       -0.2866  -18.9169  -42.2511 H         1 UNK         0.0600 
    158 H158        1.3534  -19.5565  -42.1600 H         1 UNK         0.0600 
    159 H159        1.5183  -17.5151  -43.3773 H         1 UNK         0.3000 
    160 H160        0.8365  -15.1402  -44.3753 H         1 UNK         0.0600 
    161 H161        3.7294  -16.0405  -44.8627 H         1 UNK         0.0600 
    162 H162        2.8866  -16.0004  -43.3223 H         1 UNK         0.0600 
    163 H163        3.2563  -14.5053  -44.1367 H         1 UNK         0.0600 
    164 H164        0.7859  -14.1404  -46.3238 H         1 UNK         0.3000 
    165 H165        2.8371  -13.9038  -49.1653 H         1 UNK         0.0600 
    166 H166        0.7485  -14.4689  -50.3783 H         1 UNK         0.0600 
    167 H167        1.3093  -15.9084  -49.5703 H         1 UNK         0.0600 
    168 H168       -0.0279  -14.9965  -48.8845 H         1 UNK         0.0600 
    169 H169        1.4927  -12.5314  -47.1900 H         1 UNK         0.3000 
    170 H170        0.2434   -9.7933  -49.1519 H         1 UNK         0.0600 
    171 H171       -1.5522  -11.0182  -47.9852 H         1 UNK         0.0600 
    172 H172       -0.5095  -11.3363  -46.6098 H         1 UNK         0.0600 
    173 H173       -0.9808   -9.6859  -46.9944 H         1 UNK         0.0600 
    174 H174        1.7813  -10.2814  -46.6707 H         1 UNK         0.3000 
    175 H175        4.7151   -8.7702  -47.9229 H         1 UNK         0.0600 
    176 H176        2.7837   -7.5018  -45.9031 H         1 UNK         0.0600 
    177 H177        4.5185   -7.1981  -46.0082 H         1 UNK         0.0600 
    178 H178        3.4578   -6.6960  -47.3147 H         1 UNK         0.0600 
    179 H179        3.9003   -9.6056  -45.3015 H         1 UNK         0.3000 
    180 H180        4.2478  -13.0554  -45.6773 H         1 UNK         0.0600 
    181 H181        6.3182  -11.2456  -44.3228 H         1 UNK         0.0600 
    182 H182        6.6755  -12.4948  -45.5097 H         1 UNK         0.0600 
    183 H183        6.0171  -12.9429  -43.9449 H         1 UNK         0.0600 
    184 H184        4.0526  -11.4564  -43.3375 H         1 UNK         0.3000 
    185 H185        2.0714  -11.4018  -42.2040 H         1 UNK         0.0600 
    186 H186        0.8212   -9.3118  -44.0806 H         1 UNK         0.0600 
    187 H187        0.8171   -9.2382  -42.3196 H         1 UNK         0.0600 
    188 H188        2.3328   -9.1233  -43.1982 H         1 UNK         0.0600 
    189 H189       -0.5576  -11.2504  -43.5285 H         1 UNK         0.3000 
    190 H190        0.2626  -25.2715  -44.9832 H         1 UNK         0.3000 
    191 H191       -1.1207  -27.4043  -43.7090 H         1 UNK         0.0600 
    192 H192        1.4190  -27.4129  -45.4300 H         1 UNK         0.0600 
    193 H193        1.3505  -27.1601  -43.6851 H         1 UNK         0.0600 
    194 H194        0.9057  -28.7164  -44.3654 H         1 UNK         0.0600 
    195 H195       -1.0800  -26.3978  -47.0561 H         1 UNK         0.3000 
    196 H196       -2.4557  -28.8901  -47.9688 H         1 UNK         0.0600 
    197 H197       -0.3439  -28.2805  -49.1916 H         1 UNK         0.0600 
    198 H198       -1.0251  -26.7020  -49.5776 H         1 UNK         0.0600 
    199 H199       -1.7546  -28.1673  -50.2274 H         1 UNK         0.0600 
    200 H200       -3.3821  -26.2333  -46.4798 H         1 UNK         0.3000 
    201 H201       -5.0457  -24.7845  -46.4307 H         1 UNK         0.0600 
    202 H202       -7.2542  -25.4746  -47.3006 H         1 UNK         0.0600 
    203 H203       -6.4464  -26.8502  -46.5673 H         1 UNK         0.0600 
    204 H204       -6.5164  -26.7001  -48.3218 H         1 UNK         0.0600 
    205 H205       -2.9840  -24.1042  -48.1333 H         1 UNK         0.3000 
    206 H206       -2.3091  -22.6439  -49.6269 H         1 UNK         0.0600 
    207 H207       -4.0248  -21.1025  -48.6635 H         1 UNK         0.0600 
    208 H208       -5.1753  -21.6166  -49.8841 H         1 UNK         0.0600 
    209 H209       -3.6977  -20.7885  -50.3556 H         1 UNK         0.0600 
    210 H210       -2.8610  -25.2364  -50.3458 H         1 UNK         0.3000 
    211 H211       -2.9904  -26.7288  -51.9647 H         1 UNK         0.0600 
    212 H212       -1.3919  -25.2097  -53.2164 H         1 UNK         0.0600 
    213 H213       -2.4189  -26.1744  -54.2684 H         1 UNK         0.0600 
    214 H214       -2.7802  -24.4769  -54.0228 H         1 UNK         0.0600 
    215 H215       -5.2286  -26.3384  -50.7761 H         1 UNK         0.3000 
    216 H216       -7.4561  -26.2577  -50.7103 H         1 UNK         0.0600 
    217 H217       -8.6988  -27.4838  -52.4661 H         1 UNK         0.0600 
    218 H218       -7.3305  -27.3717  -53.5654 H         1 UNK         0.0600 
    219 H219       -7.2054  -28.3277  -52.0893 H         1 UNK         0.0600 
    220 H220       -6.4433  -23.8599  -51.0433 H         1 UNK         0.3000 
    221 H221       -6.7125  -21.7459  -51.5153 H         1 UNK         0.0600 
    222 H222       -9.5192  -22.4201  -52.5244 H         1 UNK         0.0600 
    223 H223       -9.0797  -22.1775  -50.8335 H         1 UNK         0.0600 
    224 H224       -8.9491  -20.8519  -51.9757 H         1 UNK         0.0600 
    225 H225       -6.0859  -23.7672  -53.9796 H         1 UNK         0.3000 
    226 H226       -6.7235  -22.0718  -56.2449 H         1 UNK         0.0600 
    227 H227       -6.6145  -24.5906  -56.3537 H         1 UNK         0.0600 
    228 H228       -5.6142  -23.7909  -57.5580 H         1 UNK         0.0600 
    229 H229       -4.8659  -24.4960  -56.1355 H         1 UNK         0.0600 
    230 H230       -3.8620  -22.5120  -54.1583 H         1 UNK         0.3000 
    231 H231       -2.1390  -20.9589  -56.0184 H         1 UNK         0.0600 
    232 H232       -0.3349  -21.5845  -54.4282 H         1 UNK         0.0600 
    233 H233       -1.1805  -23.0004  -55.0222 H         1 UNK         0.0600 
    234 H234       -1.4982  -22.3984  -53.3931 H         1 UNK         0.0600 
    235 H235       -3.9338  -20.5880  -53.0371 H         1 UNK         0.3000 
    236 H236       -4.2710  -18.9472  -51.5596 H         1 UNK         0.0600 
    237 H237       -4.9799  -17.6914  -53.6030 H         1 UNK         0.0600 
    238 H238       -4.3570  -16.6301  -52.3512 H         1 UNK         0.0600 
    239 H239       -3.3584  -17.0134  -53.7460 H         1 UNK         0.0600 
    240 H240       -1.6113  -20.2090  -51.6964 H         1 UNK         0.3000 
    241 H241        0.3794  -20.2340  -50.7719 H         1 UNK         0.0600 
    242 H242        1.3732  -17.6744  -53.4940 H         1 UNK         0.3800 
    243 H243       -0.1880  -18.4367  -53.3351 H         1 UNK         0.3800 
    244 H244        1.0694  -18.7516  -48.9098 H         1 UNK         0.0800 
    245 H245       -0.2719  -17.7031  -49.2002 H         1 UNK         0.0800 
    246 H246       -3.1488  -18.9091  -48.4089 H         1 UNK         0.0800 
    247 H247       -2.0402  -17.6605  -47.9166 H         1 UNK         0.0800 
@<TRIPOS>BOND
     1    1    2 1    
     2    1  127 1    
     3    1  128 1    
     4    1  129 1    
     5    2    3 2    
     6    2    4 am   BACKBONE|DICT|INTERRES
     7    4    5 1    
     8    4  130 1    
     9    5    6 1    
    10    5   65 1    
    11    5  131 1    
    12    6    7 1    
    13    6  132 1    
    14    6  133 1    
    15    7    8 1    
    16    8    9 1    
    17    8  134 1    
    18    8  135 1    
    19    9   10 ar   
    20    9   14 ar   
    21   10   11 ar   
    22   10  136 1    
    23   11   12 ar   
    24   11  126 1    
    25   12   13 ar   
    26   12  137 1    
    27   13   14 ar   
    28   13   15 1    
    29   14  138 1    
    30   15   16 1    
    31   15  139 1    
    32   15  140 1    
    33   16   17 1    
    34   17   18 1    
    35   17  141 1    
    36   17  142 1    
    37   18   19 1    
    38   18   67 1    
    39   18  143 1    
    40   19   20 am   BACKBONE|DICT|INTERRES
    41   19  144 1    
    42   20   21 2    
    43   20   22 1    
    44   22   23 1    
    45   22   24 1    
    46   22  145 1    
    47   23  146 1    
    48   23  147 1    
    49   23  148 1    
    50   24   25 am   BACKBONE|DICT|INTERRES
    51   24  149 1    
    52   25   26 2    
    53   25   27 1    
    54   27   28 1    
    55   27   29 1    
    56   27  150 1    
    57   28  151 1    
    58   28  152 1    
    59   28  153 1    
    60   29   30 am   BACKBONE|DICT|INTERRES
    61   29  154 1    
    62   30   31 2    
    63   30   32 1    
    64   32   33 1    
    65   32   34 1    
    66   32  155 1    
    67   33  156 1    
    68   33  157 1    
    69   33  158 1    
    70   34   35 am   BACKBONE|DICT|INTERRES
    71   34  159 1    
    72   35   36 2    
    73   35   37 1    
    74   37   38 1    
    75   37   39 1    
    76   37  160 1    
    77   38  161 1    
    78   38  162 1    
    79   38  163 1    
    80   39   40 am   BACKBONE|DICT|INTERRES
    81   39  164 1    
    82   40   41 2    
    83   40   42 1    
    84   42   43 1    
    85   42   44 1    
    86   42  165 1    
    87   43  166 1    
    88   43  167 1    
    89   43  168 1    
    90   44   45 am   BACKBONE|DICT|INTERRES
    91   44  169 1    
    92   45   46 2    
    93   45   47 1    
    94   47   48 1    
    95   47   49 1    
    96   47  170 1    
    97   48  171 1    
    98   48  172 1    
    99   48  173 1    
   100   49   50 am   BACKBONE|DICT|INTERRES
   101   49  174 1    
   102   50   51 2    
   103   50   52 1    
   104   52   53 1    
   105   52   54 1    
   106   52  175 1    
   107   53  176 1    
   108   53  177 1    
   109   53  178 1    
   110   54   55 am   BACKBONE|DICT|INTERRES
   111   54  179 1    
   112   55   56 2    
   113   55   57 1    
   114   57   58 1    
   115   57   59 1    
   116   57  180 1    
   117   58  181 1    
   118   58  182 1    
   119   58  183 1    
   120   59   60 am   BACKBONE|DICT|INTERRES
   121   59  184 1    
   122   60   61 2    
   123   60   62 1    
   124   62   63 1    
   125   62   64 1    
   126   62  185 1    
   127   63  186 1    
   128   63  187 1    
   129   63  188 1    
   130   64   65 am   BACKBONE|DICT|INTERRES
   131   64  189 1    
   132   65   66 2    
   133   67   68 2    
   134   67   69 am   BACKBONE|DICT|INTERRES
   135   69   70 1    
   136   69  190 1    
   137   70   71 1    
   138   70   72 1    
   139   70  191 1    
   140   71  192 1    
   141   71  193 1    
   142   71  194 1    
   143   72   73 2    
   144   72   74 am   BACKBONE|DICT|INTERRES
   145   74   75 1    
   146   74  195 1    
   147   75   76 1    
   148   75   77 1    
   149   75  196 1    
   150   76  197 1    
   151   76  198 1    
   152   76  199 1    
   153   77   78 2    
   154   77   79 am   BACKBONE|DICT|INTERRES
   155   79   80 1    
   156   79  200 1    
   157   80   81 1    
   158   80   82 1    
   159   80  201 1    
   160   81  202 1    
   161   81  203 1    
   162   81  204 1    
   163   82   83 2    
   164   82   84 am   BACKBONE|DICT|INTERRES
   165   84   85 1    
   166   84  205 1    
   167   85   86 1    
   168   85   87 1    
   169   85  206 1    
   170   86  207 1    
   171   86  208 1    
   172   86  209 1    
   173   87   88 2    
   174   87   89 am   BACKBONE|DICT|INTERRES
   175   89   90 1    
   176   89  210 1    
   177   90   91 1    
   178   90   92 1    
   179   90  211 1    
   180   91  212 1    
   181   91  213 1    
   182   91  214 1    
   183   92   93 2    
   184   92   94 am   BACKBONE|DICT|INTERRES
   185   94   95 1    
   186   94  215 1    
   187   95   96 1    
   188   95   97 1    
   189   95  216 1    
   190   96  217 1    
   191   96  218 1    
   192   96  219 1    
   193   97   98 2    
   194   97   99 am   BACKBONE|DICT|INTERRES
   195   99  100 1    
   196   99  220 1    
   197  100  101 1    
   198  100  102 1    
   199  100  221 1    
   200  101  222 1    
   201  101  223 1    
   202  101  224 1    
   203  102  103 2    
   204  102  104 am   BACKBONE|DICT|INTERRES
   205  104  105 1    
   206  104  225 1    
   207  105  106 1    
   208  105  107 1    
   209  105  226 1    
   210  106  227 1    
   211  106  228 1    
   212  106  229 1    
   213  107  108 2    
   214  107  109 am   BACKBONE|DICT|INTERRES
   215  109  110 1    
   216  109  230 1    
   217  110  111 1    
   218  110  112 1    
   219  110  231 1    
   220  111  232 1    
   221  111  233 1    
   222  111  234 1    
   223  112  113 2    
   224  112  114 am   BACKBONE|DICT|INTERRES
   225  114  115 1    
   226  114  235 1    
   227  115  116 1    
   228  115  117 1    
   229  115  236 1    
   230  116  237 1    
   231  116  238 1    
   232  116  239 1    
   233  117  118 2    
   234  117  119 am   BACKBONE|DICT|INTERRES
   235  119  120 1    
   236  119  240 1    
   237  120  121 1    
   238  120  124 1    
   239  120  241 1    
   240  121  122 am   BACKBONE|DICT|INTERRES
   241  121  123 2    
   242  122  242 1    
   243  122  243 1    
   244  124  125 1    
   245  124  244 1    
   246  124  245 1    
   247  125  126 1    
   248  126  246 1    
   249  126  247 1    
@<TRIPOS>SUBSTRUCTURE
     1 UNK         1 GROUP             0       ****    0 ROOT    
