@<TRIPOS>MOLECULE
3R540
247   249    1
SMALL
USER_CHARGES


@<TRIPOS>ATOM
      1 CA          0.4063   -7.9341  -46.8968 C.3       0 UNK        -0.1800 
      2 C           0.5212   -9.4481  -46.7953 C.2       0 UNK         0.5000 
      3 O           1.6207   -9.9702  -46.6064 O.2       0 UNK        -0.5000 
      4 N          -0.6084  -10.1582  -46.9059 N.am      1 UNK        -0.5000 
      5 CA         -0.7126  -11.6230  -46.8575 C.3       1 UNK         0.1400 
      6 C6         -1.9657  -12.1391  -47.6107 C.3       23 UNK        -0.0398 
      7 S7         -2.0293  -11.6003  -49.3549 S.3       23 UNK        -0.2404 
      8 C8         -3.5923  -12.3548  -49.9103 C.3       23 UNK        -0.0205 
      9 C9         -3.4106  -13.8218  -50.2689 C.ar      23 UNK        -0.0193 
     10 C10        -3.1175  -14.1962  -51.5834 C.ar      23 UNK        -0.1150 
     11 C11        -2.9267  -15.5417  -51.9133 C.ar      23 UNK        -0.0193 
     12 C12        -3.0155  -16.5165  -50.9136 C.ar      23 UNK        -0.1150 
     13 C13        -3.3074  -16.1510  -49.5961 C.ar      23 UNK        -0.0193 
     14 C14        -3.5243  -14.8066  -49.2853 C.ar      23 UNK        -0.1150 
     15 C15        -3.3326  -17.1888  -48.4887 C.3       23 UNK        -0.0205 
     16 S16        -4.9488  -17.9911  -48.3180 S.3       23 UNK        -0.2404 
     17 C17        -4.8029  -18.7139  -46.6461 C.3       23 UNK        -0.0398 
     18 CA         -4.3178  -20.1856  -46.6753 C.3       11 UNK         0.1400 
     19 N          -2.8528  -20.3124  -46.6056 N.am      11 UNK        -0.5000 
     20 C          -2.1845  -21.4686  -46.7401 C.2       10 UNK         0.5000 
     21 O          -2.7351  -22.5466  -46.9574 O.2       10 UNK        -0.5000 
     22 CA         -0.6602  -21.4408  -46.5516 C.3       10 UNK         0.1400 
     23 CB          0.0427  -20.8659  -47.7907 C.3       10 UNK        -0.1800 
     24 N          -0.2766  -20.7029  -45.3494 N.am      10 UNK        -0.5000 
     25 C          -0.5331  -21.1207  -44.1003 C.2       9 UNK         0.5000 
     26 O          -1.0502  -22.2063  -43.8379 O.2       9 UNK        -0.5000 
     27 CA         -0.1945  -20.1521  -42.9512 C.3       9 UNK         0.1400 
     28 CB          1.2831  -20.2722  -42.5481 C.3       9 UNK        -0.1800 
     29 N          -0.4965  -18.7598  -43.2808 N.am      9 UNK        -0.5000 
     30 C          -1.7276  -18.2725  -43.4939 C.2       8 UNK         0.5000 
     31 O          -2.7586  -18.9357  -43.3874 O.2       8 UNK        -0.5000 
     32 CA         -1.8104  -16.8115  -43.9766 C.3       8 UNK         0.1400 
     33 CB         -1.8903  -15.8484  -42.7854 C.3       8 UNK        -0.1800 
     34 N          -0.6949  -16.4423  -44.8563 N.am      8 UNK        -0.5000 
     35 C          -0.4752  -17.0293  -46.0420 C.2       7 UNK         0.5000 
     36 O          -1.1664  -17.9467  -46.4811 O.2       7 UNK        -0.5000 
     37 CA          0.7555  -16.5717  -46.8326 C.3       7 UNK         0.1400 
     38 CB          0.5581  -15.1679  -47.4190 C.3       7 UNK        -0.1800 
     39 N           1.9556  -16.5973  -46.0033 N.am      7 UNK        -0.5000 
     40 C           2.5717  -17.7146  -45.5950 C.2       6 UNK         0.5000 
     41 O           2.1471  -18.8434  -45.8434 O.2       6 UNK        -0.5000 
     42 CA          3.8456  -17.5605  -44.7383 C.3       6 UNK         0.1400 
     43 CB          4.9862  -18.4778  -45.2227 C.3       6 UNK        -0.1800 
     44 N           4.3031  -16.1741  -44.5790 N.am      6 UNK        -0.5000 
     45 C           4.8109  -15.3429  -45.5046 C.2       5 UNK         0.5000 
     46 O           5.0204  -15.6666  -46.6735 O.2       5 UNK        -0.5000 
     47 CA          5.0935  -13.8889  -45.0680 C.3       5 UNK         0.1400 
     48 CB          4.2230  -12.9043  -45.8688 C.3       5 UNK        -0.1800 
     49 N           4.8404  -13.6732  -43.6426 N.am      5 UNK        -0.5000 
     50 C           5.7180  -13.9031  -42.6562 C.2       4 UNK         0.5000 
     51 O           6.8873  -14.2389  -42.8433 O.2       4 UNK        -0.5000 
     52 CA          5.1827  -13.7681  -41.2157 C.3       4 UNK         0.1400 
     53 CB          5.4728  -12.3635  -40.6654 C.3       4 UNK        -0.1800 
     54 N           3.7439  -14.0332  -41.1096 N.am      4 UNK        -0.5000 
     55 C           3.1599  -15.2211  -41.3293 C.2       3 UNK         0.5000 
     56 O           3.7823  -16.2460  -41.6015 O.2       3 UNK        -0.5000 
     57 CA          1.6208  -15.2524  -41.3165 C.3       3 UNK         0.1400 
     58 CB          1.0952  -15.5658  -39.9082 C.3       3 UNK        -0.1800 
     59 N           1.0418  -13.9909  -41.7876 N.am      3 UNK        -0.5000 
     60 C           1.0803  -13.5710  -43.0589 C.2       2 UNK         0.5000 
     61 O           1.4874  -14.2672  -43.9940 O.2       2 UNK        -0.5000 
     62 CA          0.6641  -12.1067  -43.2875 C.3       2 UNK         0.1400 
     63 CB          1.7614  -11.1590  -42.7738 C.3       2 UNK        -0.1800 
     64 N           0.4244  -11.7937  -44.6930 N.am      2 UNK        -0.5000 
     65 C          -0.6588  -12.1353  -45.3973 C.2       1 UNK         0.5000 
     66 O          -1.5921  -12.7891  -44.9293 O.2       1 UNK        -0.5000 
     67 C          -5.0325  -21.0389  -45.6041 C.2       11 UNK         0.5000 
     68 O          -6.0251  -21.6932  -45.9267 O.2       11 UNK        -0.5000 
     69 N          -4.4821  -21.0854  -44.3816 N.am      12 UNK        -0.5000 
     70 CA         -4.9460  -21.9478  -43.2887 C.3       12 UNK         0.1400 
     71 CB         -4.1977  -21.5786  -41.9991 C.3       12 UNK        -0.1800 
     72 C          -4.8097  -23.4584  -43.5801 C.2       12 UNK         0.5000 
     73 O          -5.5536  -24.2528  -43.0046 O.2       12 UNK        -0.5000 
     74 N          -3.8979  -23.8247  -44.4896 N.am      13 UNK        -0.5000 
     75 CA         -3.6810  -25.1791  -44.9974 C.3       13 UNK         0.1400 
     76 CB         -2.1652  -25.4201  -45.1210 C.3       13 UNK        -0.1800 
     77 C          -4.4159  -25.4116  -46.3363 C.2       13 UNK         0.5000 
     78 O          -3.9588  -26.2177  -47.1481 O.2       13 UNK        -0.5000 
     79 N          -5.5280  -24.6930  -46.5597 N.am      14 UNK        -0.5000 
     80 CA         -6.3844  -24.7263  -47.7520 C.3       14 UNK         0.1400 
     81 CB         -7.0804  -26.0967  -47.8918 C.3       14 UNK        -0.1800 
     82 C          -5.6270  -24.3008  -49.0253 C.2       14 UNK         0.5000 
     83 O          -5.6854  -24.9870  -50.0469 O.2       14 UNK        -0.5000 
     84 N          -4.8877  -23.1887  -48.9110 N.am      15 UNK        -0.5000 
     85 CA         -3.9692  -22.6304  -49.9101 C.3       15 UNK         0.1400 
     86 CB         -4.7392  -22.1078  -51.1373 C.3       15 UNK        -0.1800 
     87 C          -2.8462  -23.6251  -50.2642 C.2       15 UNK         0.5000 
     88 O          -2.5615  -23.8462  -51.4408 O.2       15 UNK        -0.5000 
     89 N          -2.2655  -24.2339  -49.2196 N.am      16 UNK        -0.5000 
     90 CA         -1.2732  -25.3130  -49.2453 C.3       16 UNK         0.1400 
     91 CB          0.0861  -24.7781  -49.7393 C.3       16 UNK        -0.1800 
     92 C          -1.7692  -26.5318  -50.0508 C.2       16 UNK         0.5000 
     93 O          -1.0858  -26.9873  -50.9673 O.2       16 UNK        -0.5000 
     94 N          -2.9866  -26.9953  -49.7314 N.am      17 UNK        -0.5000 
     95 CA         -3.7537  -28.0199  -50.4524 C.3       17 UNK         0.1400 
     96 CB         -3.1272  -29.4136  -50.2425 C.3       17 UNK        -0.1800 
     97 C          -3.9527  -27.6599  -51.9431 C.2       17 UNK         0.5000 
     98 O          -3.7422  -28.4941  -52.8251 O.2       17 UNK        -0.5000 
     99 N          -4.3178  -26.3929  -52.1784 N.am      18 UNK        -0.5000 
    100 CA        -4.5047  -25.7098  -53.4613 C.3       18 UNK         0.1400 
    101 CB        -5.6339  -26.3688  -54.2790 C.3       18 UNK        -0.1800 
    102 C         -3.2238  -25.5004  -54.3018 C.2       18 UNK         0.5000 
    103 O         -3.3286  -24.9947  -55.4204 O.2       18 UNK        -0.5000 
    104 N         -2.0385  -25.8457  -53.7770 N.am      19 UNK        -0.5000 
    105 CA        -0.7576  -25.6688  -54.4690 C.3       19 UNK         0.1400 
    106 CB         0.3062  -26.5706  -53.8263 C.3       19 UNK        -0.1800 
    107 C         -0.2719  -24.2063  -54.4914 C.2       19 UNK         0.5000 
    108 O          0.5014  -23.8456  -55.3795 O.2       19 UNK        -0.5000 
    109 N         -0.7275  -23.3945  -53.5294 N.am      20 UNK        -0.5000 
    110 CA        -0.3814  -21.9828  -53.3661 C.3       20 UNK         0.1400 
    111 CB         0.2539  -21.7787  -51.9784 C.3       20 UNK        -0.1800 
    112 C         -1.6132  -21.0819  -53.5749 C.2       20 UNK         0.5000 
    113 O         -1.6627  -19.9773  -53.0309 O.2       20 UNK        -0.5000 
    114 N         -2.5870  -21.5456  -54.3724 N.am      21 UNK        -0.5000 
    115 CA        -3.8399  -20.8557  -54.7041 C.3       21 UNK         0.1400 
    116 CB        -4.8679  -21.8984  -55.1774 C.3       21 UNK        -0.1800 
    117 C         -3.6619  -19.6896  -55.7042 C.2       21 UNK         0.5000 
    118 O         -4.4102  -19.5841  -56.6774 O.2       21 UNK        -0.5000 
    119 N         -2.6731  -18.8308  -55.4332 N.am      22 UNK        -0.5000 
    120 CA        -2.3614  -17.5722  -56.1326 C.3       22 UNK         0.1400 
    121 C         -1.8669  -17.7264  -57.6041 C.2       22 UNK         0.5000 
    122 N         -1.4688  -18.9119  -58.0487 N.am      22 UNK        -0.7600 
    123 O         -1.8081  -16.7511  -58.3484 O.2       22 UNK        -0.5000 
    124 C124       -3.4880  -16.5060  -55.9921 C.3       23 UNK        -0.0398 
    125 S125       -4.1259  -16.2549  -54.2939 S.3       23 UNK        -0.2404 
    126 C126       -2.6057  -15.9363  -53.3455 C.3       23 UNK        -0.0205 
    127 H127       -0.6230   -7.6158  -47.0638 H         1 UNK         0.0600 
    128 H128        1.0142   -7.5670  -47.7237 H         1 UNK         0.0600 
    129 H129        0.7620   -7.4688  -45.9776 H         1 UNK         0.0600 
    130 H130       -1.4814   -9.6700  -47.0463 H         1 UNK         0.3000 
    131 H131        0.1595  -12.0411  -47.3651 H         1 UNK         0.0600 
    132 H132       -1.9778  -13.2285  -47.5893 H         1 UNK         0.0800 
    133 H133       -2.8785  -11.8069  -47.1127 H         1 UNK         0.0800 
    134 H134       -4.3575  -12.2415  -49.1407 H         1 UNK         0.0800 
    135 H135       -3.9556  -11.8055  -50.7802 H         1 UNK         0.0800 
    136 H136       -3.0339  -13.4394  -52.3508 H         1 UNK         0.1150 
    137 H137       -2.8502  -17.5567  -51.1592 H         1 UNK         0.1150 
    138 H138       -3.7580  -14.5249  -48.2685 H         1 UNK         0.1150 
    139 H139       -2.5710  -17.9483  -48.6708 H         1 UNK         0.0800 
    140 H140       -3.0810  -16.7000  -47.5479 H         1 UNK         0.0800 
    141 H141       -5.7999  -18.6338  -46.2077 H         1 UNK         0.0800 
    142 H142       -4.1612  -18.1011  -46.0122 H         1 UNK         0.0800 
    143 H143       -4.6203  -20.6151  -47.6314 H         1 UNK         0.0600 
    144 H144       -2.3182  -19.4615  -46.4478 H         1 UNK         0.3000 
    145 H145       -0.3241  -22.4731  -46.4321 H         1 UNK         0.0600 
    146 H146        1.1263  -20.8916  -47.6747 H         1 UNK         0.0600 
    147 H147       -0.2031  -21.4473  -48.6800 H         1 UNK         0.0600 
    148 H148       -0.2462  -19.8342  -47.9873 H         1 UNK         0.0600 
    149 H149        0.1751  -19.8078  -45.4921 H         1 UNK         0.3000 
    150 H150       -0.8056  -20.4319  -42.0904 H         1 UNK         0.0600 
    151 H151        1.5208  -21.2930  -42.2465 H         1 UNK         0.0600 
    152 H152        1.5177  -19.6218  -41.7052 H         1 UNK         0.0600 
    153 H153        1.9502  -20.0116  -43.3699 H         1 UNK         0.0600 
    154 H154        0.2895  -18.1473  -43.4316 H         1 UNK         0.3000 
    155 H155       -2.7312  -16.7050  -44.5534 H         1 UNK         0.0600 
    156 H156       -2.7839  -16.0429  -42.1910 H         1 UNK         0.0600 
    157 H157       -1.9396  -14.8105  -43.1139 H         1 UNK         0.0600 
    158 H158       -1.0339  -15.9549  -42.1235 H         1 UNK         0.0600 
    159 H159       -0.0740  -15.7028  -44.5499 H         1 UNK         0.3000 
    160 H160        0.8943  -17.2668  -47.6637 H         1 UNK         0.0600 
    161 H161        0.4919  -14.4181  -46.6333 H         1 UNK         0.0600 
    162 H162       -0.3549  -15.1145  -48.0138 H         1 UNK         0.0600 
    163 H163        1.3884  -14.8942  -48.0702 H         1 UNK         0.0600 
    164 H164        2.3147  -15.7064  -45.6891 H         1 UNK         0.3000 
    165 H165        3.5665  -17.8957  -43.7389 H         1 UNK         0.0600 
    166 H166        5.2692  -18.2672  -46.2542 H         1 UNK         0.0600 
    167 H167        5.8736  -18.3662  -44.5998 H         1 UNK         0.0600 
    168 H168        4.6891  -19.5262  -45.1769 H         1 UNK         0.0600 
    169 H169        4.1901  -15.8114  -43.6407 H         1 UNK         0.3000 
    170 H170        6.1417  -13.6761  -45.2880 H         1 UNK         0.0600 
    171 H171        4.4271  -12.9803  -46.9375 H         1 UNK         0.0600 
    172 H172        3.1586  -13.0931  -45.7272 H         1 UNK         0.0600 
    173 H173        4.4206  -11.8728  -45.5763 H         1 UNK         0.0600 
    174 H174        3.8965  -13.4185  -43.3941 H         1 UNK         0.3000 
    175 H175        5.7095  -14.4974  -40.5968 H         1 UNK         0.0600 
    176 H176        4.9539  -11.5919  -41.2357 H         1 UNK         0.0600 
    177 H177        5.1646  -12.2764  -39.6234 H         1 UNK         0.0600 
    178 H178        6.5399  -12.1406  -40.7067 H         1 UNK         0.0600 
    179 H179        3.1580  -13.2463  -40.8750 H         1 UNK         0.3000 
    180 H180        1.3064  -16.0544  -41.9874 H         1 UNK         0.0600 
    181 H181        1.3834  -14.7979  -39.1893 H         1 UNK         0.0600 
    182 H182        1.4893  -16.5172  -39.5483 H         1 UNK         0.0600 
    183 H183        0.0079  -15.6421  -39.8984 H         1 UNK         0.0600 
    184 H184        0.6759  -13.3727  -41.0772 H         1 UNK         0.3000 
    185 H185       -0.2551  -11.9200  -42.7283 H         1 UNK         0.0600 
    186 H186        1.9482  -11.3008  -41.7089 H         1 UNK         0.0600 
    187 H187        2.7055  -11.3123  -43.2985 H         1 UNK         0.0600 
    188 H188        1.4733  -10.1163  -42.9099 H         1 UNK         0.0600 
    189 H189        1.1352  -11.2481  -45.1699 H         1 UNK         0.3000 
    190 H190       -3.6943  -20.4790  -44.1715 H         1 UNK         0.3000 
    191 H191       -6.0073  -21.7432  -43.1342 H         1 UNK         0.0600 
    192 H192       -3.1230  -21.7303  -42.1011 H         1 UNK         0.0600 
    193 H193       -4.3649  -20.5353  -41.7309 H         1 UNK         0.0600 
    194 H194       -4.5375  -22.1873  -41.1602 H         1 UNK         0.0600 
    195 H195       -3.3448  -23.1026  -44.9347 H         1 UNK         0.3000 
    196 H196       -4.0768  -25.9085  -44.2884 H         1 UNK         0.0600 
    197 H197       -1.6626  -25.2517  -44.1683 H         1 UNK         0.0600 
    198 H198       -1.7089  -24.7581  -45.8569 H         1 UNK         0.0600 
    199 H199       -1.9508  -26.4461  -45.4223 H         1 UNK         0.0600 
    200 H200       -5.7909  -24.0101  -45.8611 H         1 UNK         0.3000 
    201 H201       -7.1612  -23.9769  -47.5939 H         1 UNK         0.0600 
    202 H202       -7.8039  -26.0840  -48.7077 H         1 UNK         0.0600 
    203 H203       -7.6219  -26.3579  -46.9826 H         1 UNK         0.0600 
    204 H204       -6.3698  -26.8969  -48.1004 H         1 UNK         0.0600 
    205 H205       -4.8465  -22.7595  -47.9967 H         1 UNK         0.3000 
    206 H206       -3.4792  -21.7712  -49.4524 H         1 UNK         0.0600 
    207 H207       -5.4977  -21.3813  -50.8462 H         1 UNK         0.0600 
    208 H208       -5.2337  -22.9087  -51.6858 H         1 UNK         0.0600 
    209 H209       -4.0598  -21.6079  -51.8249 H         1 UNK         0.0600 
    210 H210       -2.5709  -23.9412  -48.2964 H         1 UNK         0.3000 
    211 H211       -1.1478  -25.6486  -48.2150 H         1 UNK         0.0600 
    212 H212        0.4077  -23.9151  -49.1568 H         1 UNK         0.0600 
    213 H213        0.8604  -25.5404  -49.6474 H         1 UNK         0.0600 
    214 H214        0.0458  -24.4815  -50.7873 H         1 UNK         0.0600 
    215 H215       -3.4552  -26.5798  -48.9289 H         1 UNK         0.3000 
    216 H216       -4.7479  -28.0311  -50.0034 H         1 UNK         0.0600 
    217 H217       -3.7514  -30.1922  -50.6823 H         1 UNK         0.0600 
    218 H218       -2.1402  -29.4881  -50.6999 H         1 UNK         0.0600 
    219 H219       -3.0233  -29.6419  -49.1817 H         1 UNK         0.0600 
    220 H220       -4.5012  -25.8097  -51.3661 H         1 UNK         0.3000 
    221 H221       -4.8422  -24.7083  -53.1970 H         1 UNK         0.0600 
    222 H222       -5.3493  -27.3568  -54.6413 H         1 UNK         0.0600 
    223 H223       -6.5406  -26.4761  -53.6836 H         1 UNK         0.0600 
    224 H224       -5.8903  -25.7649  -55.1502 H         1 UNK         0.0600 
    225 H225       -2.0028  -26.2243  -52.8377 H         1 UNK         0.3000 
    226 H226       -0.8835  -25.9911  -55.5048 H         1 UNK         0.0600 
    227 H227       -0.0379  -27.6024  -53.7515 H         1 UNK         0.0600 
    228 H228        1.2213  -26.5734  -54.4195 H         1 UNK         0.0600 
    229 H229        0.5713  -26.2290  -52.8254 H         1 UNK         0.0600 
    230 H230       -1.3923  -23.7589  -52.8476 H         1 UNK         0.3000 
    231 H231        0.3517  -21.6801  -54.1157 H         1 UNK         0.0600 
    232 H232        0.6008  -20.7528  -51.8502 H         1 UNK         0.0600 
    233 H233        1.1175  -22.4294  -51.8410 H         1 UNK         0.0600 
    234 H234       -0.4547  -21.9870  -51.1771 H         1 UNK         0.0600 
    235 H235       -2.4559  -22.4547  -54.7933 H         1 UNK         0.3000 
    236 H236       -4.2333  -20.4038  -53.7920 H         1 UNK         0.0600 
    237 H237       -5.0384  -22.6556  -54.4132 H         1 UNK         0.0600 
    238 H238       -5.8326  -21.4354  -55.3887 H         1 UNK         0.0600 
    239 H239       -4.5375  -22.4051  -56.0849 H         1 UNK         0.0600 
    240 H240       -2.1304  -19.0177  -54.5951 H         1 UNK         0.3000 
    241 H241       -1.4854  -17.1788  -55.6178 H         1 UNK         0.0600 
    242 H242       -1.1401  -19.0028  -58.9973 H         1 UNK         0.3800 
    243 H243       -1.5134  -19.7221  -57.4521 H         1 UNK         0.3800 
    244 H244       -3.1385  -15.5391  -56.3577 H         1 UNK         0.0800 
    245 H245       -4.3351  -16.7757  -56.6247 H         1 UNK         0.0800 
    246 H246       -2.0287  -15.1480  -53.8317 H         1 UNK         0.0800 
    247 H247       -1.9783  -16.8285  -53.3428 H         1 UNK         0.0800 
@<TRIPOS>BOND
     1    1    2 1    
     2    1  127 1    
     3    1  128 1    
     4    1  129 1    
     5    2    3 2    
     6    2    4 am   BACKBONE|DICT|INTERRES
     7    4    5 1    
     8    4  130 1    
     9    5    6 1    
    10    5   65 1    
    11    5  131 1    
    12    6    7 1    
    13    6  132 1    
    14    6  133 1    
    15    7    8 1    
    16    8    9 1    
    17    8  134 1    
    18    8  135 1    
    19    9   10 ar   
    20    9   14 ar   
    21   10   11 ar   
    22   10  136 1    
    23   11   12 ar   
    24   11  126 1    
    25   12   13 ar   
    26   12  137 1    
    27   13   14 ar   
    28   13   15 1    
    29   14  138 1    
    30   15   16 1    
    31   15  139 1    
    32   15  140 1    
    33   16   17 1    
    34   17   18 1    
    35   17  141 1    
    36   17  142 1    
    37   18   19 1    
    38   18   67 1    
    39   18  143 1    
    40   19   20 am   BACKBONE|DICT|INTERRES
    41   19  144 1    
    42   20   21 2    
    43   20   22 1    
    44   22   23 1    
    45   22   24 1    
    46   22  145 1    
    47   23  146 1    
    48   23  147 1    
    49   23  148 1    
    50   24   25 am   BACKBONE|DICT|INTERRES
    51   24  149 1    
    52   25   26 2    
    53   25   27 1    
    54   27   28 1    
    55   27   29 1    
    56   27  150 1    
    57   28  151 1    
    58   28  152 1    
    59   28  153 1    
    60   29   30 am   BACKBONE|DICT|INTERRES
    61   29  154 1    
    62   30   31 2    
    63   30   32 1    
    64   32   33 1    
    65   32   34 1    
    66   32  155 1    
    67   33  156 1    
    68   33  157 1    
    69   33  158 1    
    70   34   35 am   BACKBONE|DICT|INTERRES
    71   34  159 1    
    72   35   36 2    
    73   35   37 1    
    74   37   38 1    
    75   37   39 1    
    76   37  160 1    
    77   38  161 1    
    78   38  162 1    
    79   38  163 1    
    80   39   40 am   BACKBONE|DICT|INTERRES
    81   39  164 1    
    82   40   41 2    
    83   40   42 1    
    84   42   43 1    
    85   42   44 1    
    86   42  165 1    
    87   43  166 1    
    88   43  167 1    
    89   43  168 1    
    90   44   45 am   BACKBONE|DICT|INTERRES
    91   44  169 1    
    92   45   46 2    
    93   45   47 1    
    94   47   48 1    
    95   47   49 1    
    96   47  170 1    
    97   48  171 1    
    98   48  172 1    
    99   48  173 1    
   100   49   50 am   BACKBONE|DICT|INTERRES
   101   49  174 1    
   102   50   51 2    
   103   50   52 1    
   104   52   53 1    
   105   52   54 1    
   106   52  175 1    
   107   53  176 1    
   108   53  177 1    
   109   53  178 1    
   110   54   55 am   BACKBONE|DICT|INTERRES
   111   54  179 1    
   112   55   56 2    
   113   55   57 1    
   114   57   58 1    
   115   57   59 1    
   116   57  180 1    
   117   58  181 1    
   118   58  182 1    
   119   58  183 1    
   120   59   60 am   BACKBONE|DICT|INTERRES
   121   59  184 1    
   122   60   61 2    
   123   60   62 1    
   124   62   63 1    
   125   62   64 1    
   126   62  185 1    
   127   63  186 1    
   128   63  187 1    
   129   63  188 1    
   130   64   65 am   BACKBONE|DICT|INTERRES
   131   64  189 1    
   132   65   66 2    
   133   67   68 2    
   134   67   69 am   BACKBONE|DICT|INTERRES
   135   69   70 1    
   136   69  190 1    
   137   70   71 1    
   138   70   72 1    
   139   70  191 1    
   140   71  192 1    
   141   71  193 1    
   142   71  194 1    
   143   72   73 2    
   144   72   74 am   BACKBONE|DICT|INTERRES
   145   74   75 1    
   146   74  195 1    
   147   75   76 1    
   148   75   77 1    
   149   75  196 1    
   150   76  197 1    
   151   76  198 1    
   152   76  199 1    
   153   77   78 2    
   154   77   79 am   BACKBONE|DICT|INTERRES
   155   79   80 1    
   156   79  200 1    
   157   80   81 1    
   158   80   82 1    
   159   80  201 1    
   160   81  202 1    
   161   81  203 1    
   162   81  204 1    
   163   82   83 2    
   164   82   84 am   BACKBONE|DICT|INTERRES
   165   84   85 1    
   166   84  205 1    
   167   85   86 1    
   168   85   87 1    
   169   85  206 1    
   170   86  207 1    
   171   86  208 1    
   172   86  209 1    
   173   87   88 2    
   174   87   89 am   BACKBONE|DICT|INTERRES
   175   89   90 1    
   176   89  210 1    
   177   90   91 1    
   178   90   92 1    
   179   90  211 1    
   180   91  212 1    
   181   91  213 1    
   182   91  214 1    
   183   92   93 2    
   184   92   94 am   BACKBONE|DICT|INTERRES
   185   94   95 1    
   186   94  215 1    
   187   95   96 1    
   188   95   97 1    
   189   95  216 1    
   190   96  217 1    
   191   96  218 1    
   192   96  219 1    
   193   97   98 2    
   194   97   99 am   BACKBONE|DICT|INTERRES
   195   99  100 1    
   196   99  220 1    
   197  100  101 1    
   198  100  102 1    
   199  100  221 1    
   200  101  222 1    
   201  101  223 1    
   202  101  224 1    
   203  102  103 2    
   204  102  104 am   BACKBONE|DICT|INTERRES
   205  104  105 1    
   206  104  225 1    
   207  105  106 1    
   208  105  107 1    
   209  105  226 1    
   210  106  227 1    
   211  106  228 1    
   212  106  229 1    
   213  107  108 2    
   214  107  109 am   BACKBONE|DICT|INTERRES
   215  109  110 1    
   216  109  230 1    
   217  110  111 1    
   218  110  112 1    
   219  110  231 1    
   220  111  232 1    
   221  111  233 1    
   222  111  234 1    
   223  112  113 2    
   224  112  114 am   BACKBONE|DICT|INTERRES
   225  114  115 1    
   226  114  235 1    
   227  115  116 1    
   228  115  117 1    
   229  115  236 1    
   230  116  237 1    
   231  116  238 1    
   232  116  239 1    
   233  117  118 2    
   234  117  119 am   BACKBONE|DICT|INTERRES
   235  119  120 1    
   236  119  240 1    
   237  120  121 1    
   238  120  124 1    
   239  120  241 1    
   240  121  122 am   BACKBONE|DICT|INTERRES
   241  121  123 2    
   242  122  242 1    
   243  122  243 1    
   244  124  125 1    
   245  124  244 1    
   246  124  245 1    
   247  125  126 1    
   248  126  246 1    
   249  126  247 1    
@<TRIPOS>SUBSTRUCTURE
     1 UNK         1 GROUP             0       ****    0 ROOT    
