@<TRIPOS>MOLECULE
3R540
247   249    1
SMALL
USER_CHARGES


@<TRIPOS>ATOM
      1 CA         -2.7370  -15.5194  -44.3551 C.3       0 UNK        -0.1800 
      2 C          -3.0521  -14.4864  -45.4256 C.2       0 UNK         0.5000 
      3 O          -3.6633  -13.4601  -45.1296 O.2       0 UNK        -0.5000 
      4 N          -2.6377  -14.7562  -46.6707 N.am      1 UNK        -0.5000 
      5 CA         -2.8316  -13.8731  -47.8291 C.3       1 UNK         0.1400 
      6 C6         -2.7688  -14.6563  -49.1647 C.3       23 UNK        -0.0398 
      7 S7         -1.1420  -15.3988  -49.5534 S.3       23 UNK        -0.2404 
      8 C8         -1.4176  -17.1517  -49.1579 C.3       23 UNK        -0.0205 
      9 C9         -0.3903  -18.0284  -49.8524 C.ar      23 UNK        -0.0193 
     10 C10        -0.6232  -18.4762  -51.1561 C.ar      23 UNK        -0.1150 
     11 C11         0.3320  -19.2502  -51.8200 C.ar      23 UNK        -0.0193 
     12 C12         1.5159  -19.5939  -51.1643 C.ar      23 UNK        -0.1150 
     13 C13         1.7555  -19.1615  -49.8576 C.ar      23 UNK        -0.0193 
     14 C14         0.7993  -18.3760  -49.2052 C.ar      23 UNK        -0.1150 
     15 C15         3.0633  -19.5279  -49.1749 C.3       23 UNK        -0.0205 
     16 S16         2.9981  -21.1923  -48.4435 S.3       23 UNK        -0.2404 
     17 C17         2.1410  -20.8424  -46.8755 C.3       23 UNK        -0.0398 
     18 CA          1.1592  -21.9532  -46.4407 C.3       11 UNK         0.1400 
     19 N           0.8670  -21.8546  -45.0100 N.am      11 UNK        -0.5000 
     20 C           0.2054  -22.7671  -44.2871 C.2       10 UNK         0.5000 
     21 O          -0.1937  -23.8390  -44.7386 O.2       10 UNK        -0.5000 
     22 CA         -0.1089  -22.3903  -42.8275 C.3       10 UNK         0.1400 
     23 CB          1.1012  -22.6491  -41.9179 C.3       10 UNK        -0.1800 
     24 N          -0.5295  -20.9948  -42.6971 N.am      10 UNK        -0.5000 
     25 C          -1.6403  -20.4828  -43.2438 C.2       9 UNK         0.5000 
     26 O          -2.4703  -21.1535  -43.8553 O.2       9 UNK        -0.5000 
     27 CA         -1.8265  -18.9604  -43.1427 C.3       9 UNK         0.1400 
     28 CB         -2.4174  -18.5552  -41.7838 C.3       9 UNK        -0.1800 
     29 N          -0.5742  -18.2397  -43.3748 N.am      9 UNK        -0.5000 
     30 C           0.0217  -18.1238  -44.5698 C.2       8 UNK         0.5000 
     31 O          -0.4381  -18.5903  -45.6113 O.2       8 UNK        -0.5000 
     32 CA          1.3673  -17.3769  -44.6058 C.3       8 UNK         0.1400 
     33 CB          1.1319  -15.8678  -44.7739 C.3       8 UNK        -0.1800 
     34 N           2.1946  -17.6230  -43.4210 N.am      8 UNK        -0.5000 
     35 C           2.6874  -18.8220  -43.0803 C.2       7 UNK         0.5000 
     36 O           2.5152  -19.8423  -43.7457 O.2       7 UNK        -0.5000 
     37 CA          3.4365  -18.9146  -41.7381 C.3       7 UNK         0.1400 
     38 CB          4.8726  -18.3852  -41.8668 C.3       7 UNK        -0.1800 
     39 N           2.7475  -18.2327  -40.6371 N.am      7 UNK        -0.5000 
     40 C           1.5103  -18.5301  -40.2128 C.2       6 UNK         0.5000 
     41 O           0.8041  -19.3850  -40.7446 O.2       6 UNK        -0.5000 
     42 CA          0.9435  -17.7523  -39.0090 C.3       6 UNK         0.1400 
     43 CB          0.7245  -18.7041  -37.8227 C.3       6 UNK        -0.1800 
     44 N           1.7946  -16.6456  -38.5624 N.am      6 UNK        -0.5000 
     45 C           1.8624  -15.4014  -39.0562 C.2       5 UNK         0.5000 
     46 O           2.6157  -14.5651  -38.5555 O.2       5 UNK        -0.5000 
     47 CA          0.9726  -14.9852  -40.2531 C.3       5 UNK         0.1400 
     48 CB         -0.3723  -14.4220  -39.7681 C.3       5 UNK        -0.1800 
     49 N           1.6385  -13.9688  -41.0664 N.am      5 UNK        -0.5000 
     50 C           2.7162  -14.1988  -41.8270 C.2       4 UNK         0.5000 
     51 O           3.1621  -15.3280  -42.0329 O.2       4 UNK        -0.5000 
     52 CA          3.3746  -12.9684  -42.4731 C.3       4 UNK         0.1400 
     53 CB          4.3158  -13.3191  -43.6409 C.3       4 UNK        -0.1800 
     54 N           2.3435  -12.0424  -42.9300 N.am      4 UNK        -0.5000 
     55 C           2.4011  -10.7092  -42.8933 C.2       3 UNK         0.5000 
     56 O           3.3695  -10.0804  -42.4622 O.2       3 UNK        -0.5000 
     57 CA          1.1645   -9.9667  -43.4493 C.3       3 UNK         0.1400 
     58 CB          1.3005   -8.4357  -43.3593 C.3       3 UNK        -0.1800 
     59 N           0.8685  -10.3299  -44.8387 N.am      3 UNK        -0.5000 
     60 C           0.3223  -11.4804  -45.2506 C.2       2 UNK         0.5000 
     61 O           0.0074  -12.4018  -44.4896 O.2       2 UNK        -0.5000 
     62 CA          0.1354  -11.6400  -46.7651 C.3       2 UNK         0.1400 
     63 CB          1.4618  -12.0284  -47.4385 C.3       2 UNK        -0.1800 
     64 N          -0.8370  -12.6985  -46.9978 N.am      2 UNK        -0.5000 
     65 C          -1.8850  -12.6487  -47.8264 C.2       1 UNK         0.5000 
     66 O          -2.1267  -11.6935  -48.5662 O.2       1 UNK        -0.5000 
     67 C          -0.1323  -21.9768  -47.2896 C.2       11 UNK         0.5000 
     68 O          -0.2667  -22.8348  -48.1636 O.2       11 UNK        -0.5000 
     69 N          -1.0894  -21.0901  -46.9722 N.am      12 UNK        -0.5000 
     70 CA         -2.4221  -21.0619  -47.5788 C.3       12 UNK         0.1400 
     71 CB         -3.2068  -19.8405  -47.0770 C.3       12 UNK        -0.1800 
     72 C          -3.2197  -22.3513  -47.3155 C.2       12 UNK         0.5000 
     73 O          -3.8271  -22.8828  -48.2422 O.2       12 UNK        -0.5000 
     74 N          -3.1786  -22.8524  -46.0732 N.am      13 UNK        -0.5000 
     75 CA         -3.8168  -24.1047  -45.6637 C.3       13 UNK         0.1400 
     76 CB         -3.7464  -24.2451  -44.1358 C.3       13 UNK        -0.1800 
     77 C          -3.2179  -25.3435  -46.3561 C.2       13 UNK         0.5000 
     78 O          -3.9656  -26.2563  -46.7070 O.2       13 UNK        -0.5000 
     79 N          -1.8930  -25.3452  -46.5599 N.am      14 UNK        -0.5000 
     80 CA         -1.1657  -26.3828  -47.2908 C.3       14 UNK         0.1400 
     81 CB          0.3443  -26.2175  -47.0596 C.3       14 UNK        -0.1800 
     82 C          -1.4951  -26.3873  -48.7951 C.2       14 UNK         0.5000 
     83 O          -1.6667  -27.4624  -49.3714 O.2       14 UNK        -0.5000 
     84 N          -1.5941  -25.1940  -49.3991 N.am      15 UNK        -0.5000 
     85 CA         -2.0087  -25.0066  -50.7916 C.3       15 UNK         0.1400 
     86 CB         -1.6622  -23.5787  -51.2388 C.3       15 UNK        -0.1800 
     87 C          -3.5022  -25.3198  -51.0159 C.2       15 UNK         0.5000 
     88 O          -3.8591  -25.8546  -52.0666 O.2       15 UNK        -0.5000 
     89 N          -4.3394  -25.0081  -50.0165 N.am      16 UNK        -0.5000 
     90 CA         -5.7774  -25.2670  -49.9401 C.3       16 UNK         0.1400 
     91 CB         -6.0412  -26.7814  -49.7822 C.3       16 UNK        -0.1800 
     92 C          -6.5303  -24.6094  -51.1132 C.2       16 UNK         0.5000 
     93 O          -6.4894  -23.3859  -51.2432 O.2       16 UNK        -0.5000 
     94 N          -7.1741  -25.4151  -51.9677 N.am      17 UNK        -0.5000 
     95 CA         -7.8938  -24.9668  -53.1625 C.3       17 UNK         0.1400 
     96 CB         -8.6291  -26.1659  -53.7802 C.3       17 UNK        -0.1800 
     97 C          -6.9960  -24.2841  -54.2152 C.2       17 UNK         0.5000 
     98 O          -7.4954  -23.4724  -54.9951 O.2       17 UNK        -0.5000 
     99 N          -5.6935  -24.6023  -54.2120 N.am      18 UNK        -0.5000 
    100 CA        -4.7002  -24.0153  -55.1097 C.3       18 UNK         0.1400 
    101 CB        -3.5671  -25.0280  -55.3423 C.3       18 UNK        -0.1800 
    102 C         -4.1337  -22.6770  -54.5985 C.2       18 UNK         0.5000 
    103 O         -3.3659  -22.0531  -55.3303 O.2       18 UNK        -0.5000 
    104 N         -4.4902  -22.2487  -53.3751 N.am      19 UNK        -0.5000 
    105 CA        -3.9867  -21.0168  -52.7553 C.3       19 UNK         0.1400 
    106 CB        -4.4601  -20.9324  -51.2967 C.3       19 UNK        -0.1800 
    107 C         -4.3844  -19.7361  -53.5124 C.2       19 UNK         0.5000 
    108 O         -3.6218  -18.7698  -53.5045 O.2       19 UNK        -0.5000 
    109 N         -5.5575  -19.7611  -54.1608 N.am      20 UNK        -0.5000 
    110 CA        -6.1123  -18.6849  -54.9799 C.3       20 UNK         0.1400 
    111 CB        -7.5372  -19.0734  -55.4089 C.3       20 UNK        -0.1800 
    112 C         -5.2160  -18.3763  -56.1950 C.2       20 UNK         0.5000 
    113 O         -5.2550  -19.1068  -57.1863 O.2       20 UNK        -0.5000 
    114 N         -4.3999  -17.3208  -56.0625 N.am      21 UNK        -0.5000 
    115 CA        -3.3935  -16.8353  -57.0165 C.3       21 UNK         0.1400 
    116 CB        -4.0556  -16.3777  -58.3336 C.3       21 UNK        -0.1800 
    117 C         -2.2146  -17.8084  -57.2511 C.2       21 UNK         0.5000 
    118 O         -1.4770  -17.6346  -58.2224 O.2       21 UNK        -0.5000 
    119 N         -2.0406  -18.7831  -56.3473 N.am      22 UNK        -0.5000 
    120 CA        -1.0032  -19.8274  -56.3543 C.3       22 UNK         0.1400 
    121 C         -1.0279  -20.7022  -57.6404 C.2       22 UNK         0.5000 
    122 N         -1.9915  -21.6046  -57.7516 N.am      22 UNK        -0.7600 
    123 O         -0.1826  -20.5835  -58.5244 O.2       22 UNK        -0.5000 
    124 C124        0.4144  -19.2869  -56.0211 C.3       23 UNK        -0.0398 
    125 S125        0.5082  -18.3876  -54.4342 S.3       23 UNK        -0.2404 
    126 C126        0.0930  -19.7045  -53.2485 C.3       23 UNK        -0.0205 
    127 H127       -2.4078  -16.4563  -44.8012 H         1 UNK         0.0600 
    128 H128       -3.6219  -15.7255  -43.7531 H         1 UNK         0.0600 
    129 H129       -1.9498  -15.1533  -43.6958 H         1 UNK         0.0600 
    130 H130       -2.1369  -15.6123  -46.8564 H         1 UNK         0.3000 
    131 H131       -3.8423  -13.4651  -47.7573 H         1 UNK         0.0600 
    132 H132       -3.0334  -13.9945  -49.9913 H         1 UNK         0.0800 
    133 H133       -3.5359  -15.4314  -49.1682 H         1 UNK         0.0800 
    134 H134       -2.4204  -17.4590  -49.4587 H         1 UNK         0.0800 
    135 H135       -1.3529  -17.2825  -48.0777 H         1 UNK         0.0800 
    136 H136       -1.5370  -18.2012  -51.6653 H         1 UNK         0.1150 
    137 H137        2.2580  -20.1923  -51.6741 H         1 UNK         0.1150 
    138 H138        0.9819  -18.0227  -48.2003 H         1 UNK         0.1150 
    139 H139        3.8731  -19.4993  -49.9056 H         1 UNK         0.0800 
    140 H140        3.3220  -18.7928  -48.4110 H         1 UNK         0.0800 
    141 H141        1.6367  -19.8775  -46.9140 H         1 UNK         0.0800 
    142 H142        2.9288  -20.7350  -46.1297 H         1 UNK         0.0800 
    143 H143        1.6569  -22.9146  -46.5857 H         1 UNK         0.0600 
    144 H144        1.2173  -21.0275  -44.5349 H         1 UNK         0.3000 
    145 H145       -0.9319  -23.0223  -42.4883 H         1 UNK         0.0600 
    146 H146        0.8626  -22.4352  -40.8759 H         1 UNK         0.0600 
    147 H147        1.9559  -22.0324  -42.1967 H         1 UNK         0.0600 
    148 H148        1.4153  -23.6920  -41.9740 H         1 UNK         0.0600 
    149 H149        0.0765  -20.3819  -42.1573 H         1 UNK         0.3000 
    150 H150       -2.5391  -18.6677  -43.9163 H         1 UNK         0.0600 
    151 H151       -3.3811  -19.0395  -41.6218 H         1 UNK         0.0600 
    152 H152       -2.5823  -17.4789  -41.7309 H         1 UNK         0.0600 
    153 H153       -1.7688  -18.8369  -40.9547 H         1 UNK         0.0600 
    154 H154       -0.0960  -17.8837  -42.5618 H         1 UNK         0.3000 
    155 H155        1.9180  -17.7341  -45.4784 H         1 UNK         0.0600 
    156 H156        0.5137  -15.6610  -45.6485 H         1 UNK         0.0600 
    157 H157        2.0732  -15.3387  -44.9141 H         1 UNK         0.0600 
    158 H158        0.6304  -15.4362  -43.9068 H         1 UNK         0.0600 
    159 H159        2.4407  -16.8187  -42.8475 H         1 UNK         0.3000 
    160 H160        3.4950  -19.9728  -41.4749 H         1 UNK         0.0600 
    161 H161        4.8955  -17.3205  -42.0988 H         1 UNK         0.0600 
    162 H162        5.4087  -18.9044  -42.6623 H         1 UNK         0.0600 
    163 H163        5.4333  -18.5392  -40.9447 H         1 UNK         0.0600 
    164 H164        3.2594  -17.4997  -40.1679 H         1 UNK         0.3000 
    165 H165       -0.0348  -17.3683  -39.3010 H         1 UNK         0.0600 
    166 H166        0.2665  -18.1855  -36.9801 H         1 UNK         0.0600 
    167 H167        0.0596  -19.5254  -38.0943 H         1 UNK         0.0600 
    168 H168        1.6623  -19.1420  -37.4783 H         1 UNK         0.0600 
    169 H169        2.3935  -16.8653  -37.7799 H         1 UNK         0.3000 
    170 H170        0.7793  -15.8421  -40.8986 H         1 UNK         0.0600 
    171 H171       -0.9177  -15.1535  -39.1713 H         1 UNK         0.0600 
    172 H172       -0.2360  -13.5341  -39.1494 H         1 UNK         0.0600 
    173 H173       -1.0110  -14.1498  -40.6088 H         1 UNK         0.0600 
    174 H174        1.3470  -13.0131  -40.9242 H         1 UNK         0.3000 
    175 H175        3.9667  -12.4971  -41.6861 H         1 UNK         0.0600 
    176 H176        3.7766  -13.7817  -44.4671 H         1 UNK         0.0600 
    177 H177        4.8117  -12.4279  -44.0255 H         1 UNK         0.0600 
    178 H178        5.0966  -14.0118  -43.3246 H         1 UNK         0.0600 
    179 H179        1.5059  -12.4623  -43.3275 H         1 UNK         0.3000 
    180 H180        0.3141  -10.2578  -42.8289 H         1 UNK         0.0600 
    181 H181        0.3915   -7.9385  -43.6985 H         1 UNK         0.0600 
    182 H182        2.1300   -8.0683  -43.9647 H         1 UNK         0.0600 
    183 H183        1.4766   -8.1174  -42.3310 H         1 UNK         0.0600 
    184 H184        1.1344   -9.6475  -45.5340 H         1 UNK         0.3000 
    185 H185       -0.2218  -10.6917  -47.1719 H         1 UNK         0.0600 
    186 H186        1.3313  -12.1655  -48.5121 H         1 UNK         0.0600 
    187 H187        2.2168  -11.2539  -47.2992 H         1 UNK         0.0600 
    188 H188        1.8633  -12.9571  -47.0302 H         1 UNK         0.0600 
    189 H189       -0.7702  -13.4768  -46.3567 H         1 UNK         0.3000 
    190 H190       -0.8949  -20.3789  -46.2744 H         1 UNK         0.3000 
    191 H191       -2.2894  -20.9615  -48.6582 H         1 UNK         0.0600 
    192 H192       -2.6615  -18.9170  -47.2523 H         1 UNK         0.0600 
    193 H193       -3.4146  -19.9013  -46.0091 H         1 UNK         0.0600 
    194 H194       -4.1643  -19.7565  -47.5924 H         1 UNK         0.0600 
    195 H195       -2.7059  -22.3220  -45.3460 H         1 UNK         0.3000 
    196 H196       -4.8695  -24.0466  -45.9484 H         1 UNK         0.0600 
    197 H197       -4.2345  -23.4060  -43.6399 H         1 UNK         0.0600 
    198 H198       -2.7164  -24.2892  -43.7823 H         1 UNK         0.0600 
    199 H199       -4.2468  -25.1555  -43.8039 H         1 UNK         0.0600 
    200 H200       -1.3391  -24.5889  -46.1696 H         1 UNK         0.3000 
    201 H201       -1.4635  -27.3511  -46.8832 H         1 UNK         0.0600 
    202 H202        0.5902  -26.2897  -46.0000 H         1 UNK         0.0600 
    203 H203        0.7062  -25.2549  -47.4210 H         1 UNK         0.0600 
    204 H204        0.9060  -26.9954  -47.5780 H         1 UNK         0.0600 
    205 H205       -1.3759  -24.3564  -48.8678 H         1 UNK         0.3000 
    206 H206       -1.4357  -25.6982  -51.4127 H         1 UNK         0.0600 
    207 H207       -2.1344  -22.8321  -50.6012 H         1 UNK         0.0600 
    208 H208       -0.5863  -23.4070  -51.2020 H         1 UNK         0.0600 
    209 H209       -1.9852  -23.3993  -52.2645 H         1 UNK         0.0600 
    210 H210       -3.9696  -24.4521  -49.2495 H         1 UNK         0.3000 
    211 H211       -6.1298  -24.7722  -49.0340 H         1 UNK         0.0600 
    212 H212       -5.6913  -27.3558  -50.6406 H         1 UNK         0.0600 
    213 H213       -7.1044  -26.9859  -49.6503 H         1 UNK         0.0600 
    214 H214       -5.5309  -27.1708  -48.9010 H         1 UNK         0.0600 
    215 H215       -7.1393  -26.4113  -51.8074 H         1 UNK         0.3000 
    216 H216       -8.6390  -24.2339  -52.8465 H         1 UNK         0.0600 
    217 H217       -9.2013  -25.8637  -54.6584 H         1 UNK         0.0600 
    218 H218       -9.3318  -26.6061  -53.0725 H         1 UNK         0.0600 
    219 H219       -7.9337  -26.9455  -54.0939 H         1 UNK         0.0600 
    220 H220       -5.3408  -25.2454  -53.5114 H         1 UNK         0.3000 
    221 H221       -5.1681  -23.8174  -56.0763 H         1 UNK         0.0600 
    222 H222       -2.9861  -25.2030  -54.4371 H         1 UNK         0.0600 
    223 H223       -3.9561  -25.9871  -55.6843 H         1 UNK         0.0600 
    224 H224       -2.8752  -24.6692  -56.1055 H         1 UNK         0.0600 
    225 H225       -5.1413  -22.7982  -52.8262 H         1 UNK         0.3000 
    226 H226       -2.8978  -21.0764  -52.7514 H         1 UNK         0.0600 
    227 H227       -4.2127  -21.8361  -50.7420 H         1 UNK         0.0600 
    228 H228       -3.9891  -20.0943  -50.7811 H         1 UNK         0.0600 
    229 H229       -5.5399  -20.7930  -51.2324 H         1 UNK         0.0600 
    230 H230       -6.0888  -20.6190  -54.1333 H         1 UNK         0.3000 
    231 H231       -6.1827  -17.7890  -54.3595 H         1 UNK         0.0600 
    232 H232       -7.9807  -18.2988  -56.0358 H         1 UNK         0.0600 
    233 H233       -8.1878  -19.2029  -54.5438 H         1 UNK         0.0600 
    234 H234       -7.5490  -20.0042  -55.9780 H         1 UNK         0.0600 
    235 H235       -4.4093  -16.8360  -55.1750 H         1 UNK         0.3000 
    236 H236       -2.9527  -15.9516  -56.5531 H         1 UNK         0.0600 
    237 H237       -4.4474  -17.2196  -58.9049 H         1 UNK         0.0600 
    238 H238       -4.8780  -15.6880  -58.1437 H         1 UNK         0.0600 
    239 H239       -3.3402  -15.8577  -58.9716 H         1 UNK         0.0600 
    240 H240       -2.6916  -18.8235  -55.5741 H         1 UNK         0.3000 
    241 H241       -1.2722  -20.5071  -55.5477 H         1 UNK         0.0600 
    242 H242       -2.0411  -22.1897  -58.5700 H         1 UNK         0.3800 
    243 H243       -2.6460  -21.7419  -56.9834 H         1 UNK         0.3800 
    244 H244        0.7573  -18.6148  -56.8091 H         1 UNK         0.0800 
    245 H245        1.1349  -20.1060  -55.9889 H         1 UNK         0.0800 
    246 H246        0.6795  -20.5984  -53.4668 H         1 UNK         0.0800 
    247 H247       -0.9543  -19.9794  -53.3635 H         1 UNK         0.0800 
@<TRIPOS>BOND
     1    1    2 1    
     2    1  127 1    
     3    1  128 1    
     4    1  129 1    
     5    2    3 2    
     6    2    4 am   BACKBONE|DICT|INTERRES
     7    4    5 1    
     8    4  130 1    
     9    5    6 1    
    10    5   65 1    
    11    5  131 1    
    12    6    7 1    
    13    6  132 1    
    14    6  133 1    
    15    7    8 1    
    16    8    9 1    
    17    8  134 1    
    18    8  135 1    
    19    9   10 ar   
    20    9   14 ar   
    21   10   11 ar   
    22   10  136 1    
    23   11   12 ar   
    24   11  126 1    
    25   12   13 ar   
    26   12  137 1    
    27   13   14 ar   
    28   13   15 1    
    29   14  138 1    
    30   15   16 1    
    31   15  139 1    
    32   15  140 1    
    33   16   17 1    
    34   17   18 1    
    35   17  141 1    
    36   17  142 1    
    37   18   19 1    
    38   18   67 1    
    39   18  143 1    
    40   19   20 am   BACKBONE|DICT|INTERRES
    41   19  144 1    
    42   20   21 2    
    43   20   22 1    
    44   22   23 1    
    45   22   24 1    
    46   22  145 1    
    47   23  146 1    
    48   23  147 1    
    49   23  148 1    
    50   24   25 am   BACKBONE|DICT|INTERRES
    51   24  149 1    
    52   25   26 2    
    53   25   27 1    
    54   27   28 1    
    55   27   29 1    
    56   27  150 1    
    57   28  151 1    
    58   28  152 1    
    59   28  153 1    
    60   29   30 am   BACKBONE|DICT|INTERRES
    61   29  154 1    
    62   30   31 2    
    63   30   32 1    
    64   32   33 1    
    65   32   34 1    
    66   32  155 1    
    67   33  156 1    
    68   33  157 1    
    69   33  158 1    
    70   34   35 am   BACKBONE|DICT|INTERRES
    71   34  159 1    
    72   35   36 2    
    73   35   37 1    
    74   37   38 1    
    75   37   39 1    
    76   37  160 1    
    77   38  161 1    
    78   38  162 1    
    79   38  163 1    
    80   39   40 am   BACKBONE|DICT|INTERRES
    81   39  164 1    
    82   40   41 2    
    83   40   42 1    
    84   42   43 1    
    85   42   44 1    
    86   42  165 1    
    87   43  166 1    
    88   43  167 1    
    89   43  168 1    
    90   44   45 am   BACKBONE|DICT|INTERRES
    91   44  169 1    
    92   45   46 2    
    93   45   47 1    
    94   47   48 1    
    95   47   49 1    
    96   47  170 1    
    97   48  171 1    
    98   48  172 1    
    99   48  173 1    
   100   49   50 am   BACKBONE|DICT|INTERRES
   101   49  174 1    
   102   50   51 2    
   103   50   52 1    
   104   52   53 1    
   105   52   54 1    
   106   52  175 1    
   107   53  176 1    
   108   53  177 1    
   109   53  178 1    
   110   54   55 am   BACKBONE|DICT|INTERRES
   111   54  179 1    
   112   55   56 2    
   113   55   57 1    
   114   57   58 1    
   115   57   59 1    
   116   57  180 1    
   117   58  181 1    
   118   58  182 1    
   119   58  183 1    
   120   59   60 am   BACKBONE|DICT|INTERRES
   121   59  184 1    
   122   60   61 2    
   123   60   62 1    
   124   62   63 1    
   125   62   64 1    
   126   62  185 1    
   127   63  186 1    
   128   63  187 1    
   129   63  188 1    
   130   64   65 am   BACKBONE|DICT|INTERRES
   131   64  189 1    
   132   65   66 2    
   133   67   68 2    
   134   67   69 am   BACKBONE|DICT|INTERRES
   135   69   70 1    
   136   69  190 1    
   137   70   71 1    
   138   70   72 1    
   139   70  191 1    
   140   71  192 1    
   141   71  193 1    
   142   71  194 1    
   143   72   73 2    
   144   72   74 am   BACKBONE|DICT|INTERRES
   145   74   75 1    
   146   74  195 1    
   147   75   76 1    
   148   75   77 1    
   149   75  196 1    
   150   76  197 1    
   151   76  198 1    
   152   76  199 1    
   153   77   78 2    
   154   77   79 am   BACKBONE|DICT|INTERRES
   155   79   80 1    
   156   79  200 1    
   157   80   81 1    
   158   80   82 1    
   159   80  201 1    
   160   81  202 1    
   161   81  203 1    
   162   81  204 1    
   163   82   83 2    
   164   82   84 am   BACKBONE|DICT|INTERRES
   165   84   85 1    
   166   84  205 1    
   167   85   86 1    
   168   85   87 1    
   169   85  206 1    
   170   86  207 1    
   171   86  208 1    
   172   86  209 1    
   173   87   88 2    
   174   87   89 am   BACKBONE|DICT|INTERRES
   175   89   90 1    
   176   89  210 1    
   177   90   91 1    
   178   90   92 1    
   179   90  211 1    
   180   91  212 1    
   181   91  213 1    
   182   91  214 1    
   183   92   93 2    
   184   92   94 am   BACKBONE|DICT|INTERRES
   185   94   95 1    
   186   94  215 1    
   187   95   96 1    
   188   95   97 1    
   189   95  216 1    
   190   96  217 1    
   191   96  218 1    
   192   96  219 1    
   193   97   98 2    
   194   97   99 am   BACKBONE|DICT|INTERRES
   195   99  100 1    
   196   99  220 1    
   197  100  101 1    
   198  100  102 1    
   199  100  221 1    
   200  101  222 1    
   201  101  223 1    
   202  101  224 1    
   203  102  103 2    
   204  102  104 am   BACKBONE|DICT|INTERRES
   205  104  105 1    
   206  104  225 1    
   207  105  106 1    
   208  105  107 1    
   209  105  226 1    
   210  106  227 1    
   211  106  228 1    
   212  106  229 1    
   213  107  108 2    
   214  107  109 am   BACKBONE|DICT|INTERRES
   215  109  110 1    
   216  109  230 1    
   217  110  111 1    
   218  110  112 1    
   219  110  231 1    
   220  111  232 1    
   221  111  233 1    
   222  111  234 1    
   223  112  113 2    
   224  112  114 am   BACKBONE|DICT|INTERRES
   225  114  115 1    
   226  114  235 1    
   227  115  116 1    
   228  115  117 1    
   229  115  236 1    
   230  116  237 1    
   231  116  238 1    
   232  116  239 1    
   233  117  118 2    
   234  117  119 am   BACKBONE|DICT|INTERRES
   235  119  120 1    
   236  119  240 1    
   237  120  121 1    
   238  120  124 1    
   239  120  241 1    
   240  121  122 am   BACKBONE|DICT|INTERRES
   241  121  123 2    
   242  122  242 1    
   243  122  243 1    
   244  124  125 1    
   245  124  244 1    
   246  124  245 1    
   247  125  126 1    
   248  126  246 1    
   249  126  247 1    
@<TRIPOS>SUBSTRUCTURE
     1 UNK         1 GROUP             0       ****    0 ROOT    
