@<TRIPOS>MOLECULE
3R540
247   249    1
SMALL
USER_CHARGES


@<TRIPOS>ATOM
      1 CA          2.2439  -13.6458  -47.1310 C.3       0 UNK        -0.1800 
      2 C           2.0326  -14.9272  -46.3270 C.2       0 UNK         0.5000 
      3 O           1.0605  -15.0061  -45.5834 O.2       0 UNK        -0.5000 
      4 N           2.8838  -15.9573  -46.4557 N.am      1 UNK        -0.5000 
      5 CA          4.0709  -16.0321  -47.3242 C.3       1 UNK         0.1400 
      6 C6          4.6289  -17.4722  -47.4497 C.3       23 UNK        -0.0398 
      7 S7          3.4142  -18.6931  -48.0558 S.3       23 UNK        -0.2404 
      8 C8          3.4085  -18.3743  -49.8570 C.3       23 UNK        -0.0205 
      9 C9          2.0886  -17.8126  -50.3857 C.ar      23 UNK        -0.0193 
     10 C10         1.6602  -18.1490  -51.6754 C.ar      23 UNK        -0.1150 
     11 C11         0.4539  -17.6504  -52.1798 C.ar      23 UNK        -0.0193 
     12 C12        -0.3274  -16.8074  -51.3849 C.ar      23 UNK        -0.1150 
     13 C13         0.0793  -16.4740  -50.0930 C.ar      23 UNK        -0.0193 
     14 C14         1.2937  -16.9604  -49.6115 C.ar      23 UNK        -0.1150 
     15 C15        -0.8080  -15.6184  -49.2054 C.3       23 UNK        -0.0205 
     16 S16        -2.0816  -16.6264  -48.3836 S.3       23 UNK        -0.2404 
     17 C17        -1.1096  -17.5665  -47.1517 C.3       23 UNK        -0.0398 
     18 CA         -0.7621  -19.0239  -47.5536 C.3       11 UNK         0.1400 
     19 N           0.0889  -19.6646  -46.5441 N.am      11 UNK        -0.5000 
     20 C           0.6596  -20.8721  -46.6708 C.2       10 UNK         0.5000 
     21 O           0.6005  -21.5537  -47.6918 O.2       10 UNK        -0.5000 
     22 CA          1.3482  -21.4542  -45.4239 C.3       10 UNK         0.1400 
     23 CB          2.7980  -20.9651  -45.2958 C.3       10 UNK        -0.1800 
     24 N           0.6047  -21.1476  -44.2021 N.am      10 UNK        -0.5000 
     25 C          -0.5732  -21.7030  -43.8817 C.2       9 UNK         0.5000 
     26 O          -1.1267  -22.5659  -44.5614 O.2       9 UNK        -0.5000 
     27 CA         -1.2703  -21.1755  -42.6138 C.3       9 UNK         0.1400 
     28 CB         -0.7549  -21.9091  -41.3671 C.3       9 UNK        -0.1800 
     29 N          -1.0929  -19.7339  -42.4370 N.am      9 UNK        -0.5000 
     30 C          -1.6009  -18.8020  -43.2560 C.2       8 UNK         0.5000 
     31 O          -2.3347  -19.0611  -44.2095 O.2       8 UNK        -0.5000 
     32 CA         -1.1679  -17.3455  -43.0012 C.3       8 UNK         0.1400 
     33 CB         -2.1486  -16.6440  -42.0523 C.3       8 UNK        -0.1800 
     34 N           0.1952  -17.2364  -42.4733 N.am      8 UNK        -0.5000 
     35 C           1.2948  -17.6064  -43.1463 C.2       7 UNK         0.5000 
     36 O           1.2603  -18.0735  -44.2869 O.2       7 UNK        -0.5000 
     37 CA          2.6428  -17.4843  -42.4143 C.3       7 UNK         0.1400 
     38 CB          3.8038  -17.1744  -43.3703 C.3       7 UNK        -0.1800 
     39 N           2.5985  -16.4669  -41.3645 N.am      7 UNK        -0.5000 
     40 C           3.0685  -16.6282  -40.1198 C.2       6 UNK         0.5000 
     41 O           3.5707  -17.6767  -39.7122 O.2       6 UNK        -0.5000 
     42 CA          2.9687  -15.4285  -39.1534 C.3       6 UNK         0.1400 
     43 CB          4.3186  -14.7030  -39.0775 C.3       6 UNK        -0.1800 
     44 N           1.9357  -14.4555  -39.5091 N.am      6 UNK        -0.5000 
     45 C           0.6182  -14.7001  -39.5241 C.2       5 UNK         0.5000 
     46 O           0.1198  -15.7754  -39.1899 O.2       5 UNK        -0.5000 
     47 CA         -0.2993  -13.5732  -40.0386 C.3       5 UNK         0.1400 
     48 CB         -0.8807  -12.7798  -38.8589 C.3       5 UNK        -0.1800 
     49 N           0.3291  -12.6356  -40.9748 N.am      5 UNK        -0.5000 
     50 C           0.9790  -12.9412  -42.1081 C.2       4 UNK         0.5000 
     51 O           1.1880  -14.0937  -42.4865 O.2       4 UNK        -0.5000 
     52 CA          1.5120  -11.7618  -42.9489 C.3       4 UNK         0.1400 
     53 CB          0.8830  -10.3983  -42.5843 C.3       4 UNK        -0.1800 
     54 N           2.9739  -11.6575  -42.9159 N.am      4 UNK        -0.5000 
     55 C           3.7747  -11.6054  -41.8390 C.2       3 UNK         0.5000 
     56 O           3.3722  -11.6816  -40.6759 O.2       3 UNK        -0.5000 
     57 CA          5.2824  -11.4124  -42.1309 C.3       3 UNK         0.1400 
     58 CB          6.1948  -11.7820  -40.9425 C.3       3 UNK        -0.1800 
     59 N           5.7446  -12.0732  -43.3606 N.am      3 UNK        -0.5000 
     60 C           5.6540  -13.3792  -43.6478 C.2       2 UNK         0.5000 
     61 O           5.1452  -14.2188  -42.9038 O.2       2 UNK        -0.5000 
     62 CA          6.2239  -13.8260  -44.9987 C.3       2 UNK         0.1400 
     63 CB          7.6072  -14.4778  -44.8260 C.3       2 UNK        -0.1800 
     64 N           5.2863  -14.7710  -45.5933 N.am      2 UNK        -0.5000 
     65 C           5.1983  -15.0682  -46.8946 C.2       1 UNK         0.5000 
     66 O           5.9450  -14.5966  -47.7523 O.2       1 UNK        -0.5000 
     67 C          -2.0129  -19.8801  -47.8552 C.2       11 UNK         0.5000 
     68 O          -2.2931  -20.1626  -49.0208 O.2       11 UNK        -0.5000 
     69 N          -2.7048  -20.3335  -46.7989 N.am      12 UNK        -0.5000 
     70 CA         -3.8611  -21.2264  -46.8899 C.3       12 UNK         0.1400 
     71 CB         -4.4861  -21.4064  -45.4992 C.3       12 UNK        -0.1800 
     72 C          -3.5259  -22.5914  -47.5196 C.2       12 UNK         0.5000 
     73 O          -4.3179  -23.0938  -48.3181 O.2       12 UNK        -0.5000 
     74 N          -2.3559  -23.1494  -47.1770 N.am      13 UNK        -0.5000 
     75 CA         -1.8294  -24.3917  -47.7423 C.3       13 UNK         0.1400 
     76 CB         -0.6358  -24.8809  -46.9092 C.3       13 UNK        -0.1800 
     77 C          -1.4425  -24.2555  -49.2260 C.2       13 UNK         0.5000 
     78 O          -1.7632  -25.1483  -50.0099 O.2       13 UNK        -0.5000 
     79 N          -0.7982  -23.1378  -49.5944 N.am      14 UNK        -0.5000 
     80 CA         -0.4339  -22.7941  -50.9729 C.3       14 UNK         0.1400 
     81 CB          0.4517  -21.5371  -50.9815 C.3       14 UNK        -0.1800 
     82 C          -1.6649  -22.5968  -51.8750 C.2       14 UNK         0.5000 
     83 O          -1.6688  -23.0609  -53.0155 O.2       14 UNK        -0.5000 
     84 N          -2.7021  -21.9522  -51.3262 N.am      15 UNK        -0.5000 
     85 CA         -4.0044  -21.7782  -51.9651 C.3       15 UNK         0.1400 
     86 CB         -4.7729  -20.6827  -51.2115 C.3       15 UNK        -0.1800 
     87 C          -4.8325  -23.0760  -52.0262 C.2       15 UNK         0.5000 
     88 O          -5.7526  -23.1692  -52.8402 O.2       15 UNK        -0.5000 
     89 N          -4.5231  -24.0266  -51.1324 N.am      16 UNK        -0.5000 
     90 CA         -5.2561  -25.2598  -50.8324 C.3       16 UNK         0.1400 
     91 CB         -5.1938  -26.2414  -52.0188 C.3       16 UNK        -0.1800 
     92 C          -6.6956  -24.9514  -50.3770 C.2       16 UNK         0.5000 
     93 O          -7.6499  -25.5222  -50.9036 O.2       16 UNK        -0.5000 
     94 N          -6.8254  -23.9813  -49.4585 N.am      17 UNK        -0.5000 
     95 CA         -8.0839  -23.3717  -49.0037 C.3       17 UNK         0.1400 
     96 CB         -8.9099  -24.3754  -48.1731 C.3       17 UNK        -0.1800 
     97 C          -8.8877  -22.7369  -50.1643 C.2       17 UNK         0.5000 
     98 O         -10.1169  -22.8085  -50.1872 O.2       17 UNK        -0.5000 
     99 N          -8.1480  -22.1521  -51.1179 N.am      18 UNK        -0.5000 
    100 CA        -8.5737  -21.5372  -52.3803 C.3       18 UNK         0.1400 
    101 CB        -9.6216  -20.4286  -52.1534 C.3       18 UNK        -0.1800 
    102 C         -9.0038  -22.5358  -53.4753 C.2       18 UNK         0.5000 
    103 O         -9.3663  -22.0921  -54.5659 O.2       18 UNK        -0.5000 
    104 N         -8.9226  -23.8510  -53.2199 N.am      19 UNK        -0.5000 
    105 CA        -9.2857  -24.8943  -54.1845 C.3       19 UNK         0.1400 
    106 CB        -9.4454  -26.2391  -53.4605 C.3       19 UNK        -0.1800 
    107 C         -8.2857  -25.0300  -55.3493 C.2       19 UNK         0.5000 
    108 O         -8.6820  -25.4722  -56.4283 O.2       19 UNK        -0.5000 
    109 N         -7.0231  -24.6414  -55.1241 N.am      20 UNK        -0.5000 
    110 CA        -5.9538  -24.6496  -56.1263 C.3       20 UNK         0.1400 
    111 CB        -4.7000  -25.2925  -55.5080 C.3       20 UNK        -0.1800 
    112 C         -5.6405  -23.2334  -56.6452 C.2       20 UNK         0.5000 
    113 O         -4.6576  -23.0683  -57.3723 O.2       20 UNK        -0.5000 
    114 N         -6.4499  -22.2385  -56.2441 N.am      21 UNK        -0.5000 
    115 CA        -6.2670  -20.7930  -56.4121 C.3       21 UNK         0.1400 
    116 CB        -6.2964  -20.3761  -57.8978 C.3       21 UNK        -0.1800 
    117 C         -5.0070  -20.3153  -55.6680 C.2       21 UNK         0.5000 
    118 O         -5.1211  -19.8179  -54.5490 O.2       21 UNK        -0.5000 
    119 N         -3.8398  -20.5380  -56.2786 N.am      22 UNK        -0.5000 
    120 CA        -2.5129  -20.4983  -55.6534 C.3       22 UNK         0.1400 
    121 C         -1.4541  -21.3093  -56.4558 C.2       22 UNK         0.5000 
    122 N         -1.8507  -22.2855  -57.2676 N.am      22 UNK        -0.7600 
    123 O         -0.2561  -21.0613  -56.3503 O.2       22 UNK        -0.5000 
    124 C124       -2.0637  -19.0669  -55.2347 C.3       23 UNK        -0.0398 
    125 S125       -1.5390  -19.0248  -53.4882 S.3       23 UNK        -0.2404 
    126 C126       -0.0249  -18.0232  -53.5745 C.3       23 UNK        -0.0205 
    127 H127        2.4660  -13.8562  -48.1766 H         1 UNK         0.0600 
    128 H128        3.0548  -13.0542  -46.7070 H         1 UNK         0.0600 
    129 H129        1.3416  -13.0344  -47.1085 H         1 UNK         0.0600 
    130 H130        2.6771  -16.7999  -45.9358 H         1 UNK         0.3000 
    131 H131        3.7668  -15.7237  -48.3255 H         1 UNK         0.0600 
    132 H132        5.4960  -17.4955  -48.1126 H         1 UNK         0.0800 
    133 H133        4.9875  -17.8220  -46.4801 H         1 UNK         0.0800 
    134 H134        3.6304  -19.3182  -50.3572 H         1 UNK         0.0800 
    135 H135        4.2122  -17.6887  -50.1266 H         1 UNK         0.0800 
    136 H136        2.2634  -18.8065  -52.2856 H         1 UNK         0.1150 
    137 H137       -1.2700  -16.4366  -51.7626 H         1 UNK         0.1150 
    138 H138        1.5943  -16.6999  -48.6118 H         1 UNK         0.1150 
    139 H139       -0.2180  -15.0850  -48.4592 H         1 UNK         0.0800 
    140 H140       -1.2986  -14.8534  -49.8090 H         1 UNK         0.0800 
    141 H141       -1.6802  -17.5594  -46.2242 H         1 UNK         0.0800 
    142 H142       -0.1929  -17.0199  -46.9314 H         1 UNK         0.0800 
    143 H143       -0.1785  -18.9889  -48.4747 H         1 UNK         0.0600 
    144 H144        0.2429  -19.1531  -45.6819 H         1 UNK         0.3000 
    145 H145        1.3771  -22.5399  -45.5367 H         1 UNK         0.0600 
    146 H146        3.2847  -21.3919  -44.4190 H         1 UNK         0.0600 
    147 H147        3.3822  -21.2607  -46.1681 H         1 UNK         0.0600 
    148 H148        2.8580  -19.8806  -45.2196 H         1 UNK         0.0600 
    149 H149        0.9669  -20.4025  -43.6266 H         1 UNK         0.3000 
    150 H150       -2.3391  -21.3770  -42.7124 H         1 UNK         0.0600 
    151 H151       -0.8920  -22.9869  -41.4650 H         1 UNK         0.0600 
    152 H152       -1.2939  -21.5941  -40.4734 H         1 UNK         0.0600 
    153 H153        0.3076  -21.7269  -41.2009 H         1 UNK         0.0600 
    154 H154       -0.5062  -19.4343  -41.6725 H         1 UNK         0.3000 
    155 H155       -1.1948  -16.8236  -43.9599 H         1 UNK         0.0600 
    156 H156       -2.0722  -17.0259  -41.0335 H         1 UNK         0.0600 
    157 H157       -3.1798  -16.7809  -42.3807 H         1 UNK         0.0600 
    158 H158       -1.9614  -15.5717  -42.0297 H         1 UNK         0.0600 
    159 H159        0.3003  -16.8626  -41.5406 H         1 UNK         0.3000 
    160 H160        2.8235  -18.4678  -41.9768 H         1 UNK         0.0600 
    161 H161        4.7543  -17.1345  -42.8380 H         1 UNK         0.0600 
    162 H162        3.6497  -16.2107  -43.8502 H         1 UNK         0.0600 
    163 H163        3.8990  -17.9310  -44.1491 H         1 UNK         0.0600 
    164 H164        2.1953  -15.5728  -41.6356 H         1 UNK         0.3000 
    165 H165        2.7314  -15.8210  -38.1625 H         1 UNK         0.0600 
    166 H166        4.2849  -13.8653  -38.3807 H         1 UNK         0.0600 
    167 H167        5.1092  -15.3761  -38.7438 H         1 UNK         0.0600 
    168 H168        4.6057  -14.3181  -40.0556 H         1 UNK         0.0600 
    169 H169        2.2590  -13.5501  -39.8285 H         1 UNK         0.3000 
    170 H170       -1.1278  -14.0460  -40.5655 H         1 UNK         0.0600 
    171 H171       -1.3832  -13.4411  -38.1514 H         1 UNK         0.0600 
    172 H172       -0.1023  -12.2452  -38.3129 H         1 UNK         0.0600 
    173 H173       -1.6169  -12.0503  -39.1969 H         1 UNK         0.0600 
    174 H174        0.2529  -11.6581  -40.7344 H         1 UNK         0.3000 
    175 H175        1.2398  -11.9847  -43.9819 H         1 UNK         0.0600 
    176 H176        1.1651  -10.0669  -41.5843 H         1 UNK         0.0600 
    177 H177        1.2013   -9.6263  -43.2851 H         1 UNK         0.0600 
    178 H178       -0.2062  -10.4398  -42.6307 H         1 UNK         0.0600 
    179 H179        3.4224  -11.6220  -43.8193 H         1 UNK         0.3000 
    180 H180        5.4023  -10.3415  -42.3013 H         1 UNK         0.0600 
    181 H181        6.1908  -12.8520  -40.7418 H         1 UNK         0.0600 
    182 H182        5.8866  -11.2726  -40.0288 H         1 UNK         0.0600 
    183 H183        7.2261  -11.4895  -41.1395 H         1 UNK         0.0600 
    184 H184        6.1760  -11.4620  -44.0405 H         1 UNK         0.3000 
    185 H185        6.3140  -12.9544  -45.6507 H         1 UNK         0.0600 
    186 H186        8.3072  -13.7880  -44.3529 H         1 UNK         0.0600 
    187 H187        7.5532  -15.3713  -44.2027 H         1 UNK         0.0600 
    188 H188        8.0347  -14.7652  -45.7865 H         1 UNK         0.0600 
    189 H189        4.6269  -15.1726  -44.9392 H         1 UNK         0.3000 
    190 H190       -2.4389  -20.0266  -45.8671 H         1 UNK         0.3000 
    191 H191       -4.5993  -20.7420  -47.5321 H         1 UNK         0.0600 
    192 H192       -3.7888  -21.8693  -44.8007 H         1 UNK         0.0600 
    193 H193       -5.3721  -22.0406  -45.5483 H         1 UNK         0.0600 
    194 H194       -4.7935  -20.4489  -45.0784 H         1 UNK         0.0600 
    195 H195       -1.7944  -22.7038  -46.4590 H         1 UNK         0.3000 
    196 H196       -2.6160  -25.1463  -47.6741 H         1 UNK         0.0600 
    197 H197       -0.2521  -25.8260  -47.2952 H         1 UNK         0.0600 
    198 H198       -0.9212  -25.0462  -45.8702 H         1 UNK         0.0600 
    199 H199        0.1854  -24.1647  -46.9216 H         1 UNK         0.0600 
    200 H200       -0.5144  -22.4748  -48.8765 H         1 UNK         0.3000 
    201 H201        0.1480  -23.6230  -51.3806 H         1 UNK         0.0600 
    202 H202        1.3688  -21.6938  -50.4137 H         1 UNK         0.0600 
    203 H203       -0.0626  -20.6767  -50.5516 H         1 UNK         0.0600 
    204 H204        0.7393  -21.2681  -51.9987 H         1 UNK         0.0600 
    205 H205       -2.5827  -21.5283  -50.4098 H         1 UNK         0.3000 
    206 H206       -3.8455  -21.4438  -52.9867 H         1 UNK         0.0600 
    207 H207       -4.1963  -19.7579  -51.1742 H         1 UNK         0.0600 
    208 H208       -5.7131  -20.4491  -51.7089 H         1 UNK         0.0600 
    209 H209       -4.9982  -20.9776  -50.1860 H         1 UNK         0.0600 
    210 H210       -3.7586  -23.8259  -50.5014 H         1 UNK         0.3000 
    211 H211       -4.7490  -25.7235  -49.9851 H         1 UNK         0.0600 
    212 H212       -5.5969  -27.2148  -51.7380 H         1 UNK         0.0600 
    213 H213       -4.1672  -26.3955  -52.3513 H         1 UNK         0.0600 
    214 H214       -5.7743  -25.8847  -52.8683 H         1 UNK         0.0600 
    215 H215       -5.9707  -23.5849  -49.0712 H         1 UNK         0.3000 
    216 H216       -7.8037  -22.5498  -48.3432 H         1 UNK         0.0600 
    217 H217       -9.7757  -23.8896  -47.7216 H         1 UNK         0.0600 
    218 H218       -8.3164  -24.7975  -47.3622 H         1 UNK         0.0600 
    219 H219       -9.2799  -25.2002  -48.7827 H         1 UNK         0.0600 
    220 H220       -7.1470  -22.2199  -51.0095 H         1 UNK         0.3000 
    221 H221       -7.6835  -21.0516  -52.7809 H         1 UNK         0.0600 
    222 H222      -10.5860  -20.8345  -51.8481 H         1 UNK         0.0600 
    223 H223       -9.2933  -19.7248  -51.3886 H         1 UNK         0.0600 
    224 H224       -9.7879  -19.8573  -53.0674 H         1 UNK         0.0600 
    225 H225       -8.5788  -24.1652  -52.3199 H         1 UNK         0.3000 
    226 H226      -10.2552  -24.6300  -54.6123 H         1 UNK         0.0600 
    227 H227      -10.1137  -26.1541  -52.6033 H         1 UNK         0.0600 
    228 H228       -9.8660  -26.9911  -54.1291 H         1 UNK         0.0600 
    229 H229       -8.4878  -26.6219  -53.1064 H         1 UNK         0.0600 
    230 H230       -6.7759  -24.2579  -54.2158 H         1 UNK         0.3000 
    231 H231       -6.2434  -25.2479  -56.9921 H         1 UNK         0.0600 
    232 H232       -4.9096  -26.3013  -55.1527 H         1 UNK         0.0600 
    233 H233       -4.3194  -24.7104  -54.6679 H         1 UNK         0.0600 
    234 H234       -3.8955  -25.3722  -56.2401 H         1 UNK         0.0600 
    235 H235       -7.2290  -22.4995  -55.6553 H         1 UNK         0.3000 
    236 H236       -7.1205  -20.3192  -55.9241 H         1 UNK         0.0600 
    237 H237       -5.5045  -20.8407  -58.4847 H         1 UNK         0.0600 
    238 H238       -7.2472  -20.6466  -58.3569 H         1 UNK         0.0600 
    239 H239       -6.1848  -19.2959  -57.9979 H         1 UNK         0.0600 
    240 H240       -3.8660  -20.9824  -57.1867 H         1 UNK         0.3000 
    241 H241       -2.6161  -21.1012  -54.7533 H         1 UNK         0.0600 
    242 H242       -2.8218  -22.5805  -57.3227 H         1 UNK         0.3800 
    243 H243       -1.1534  -22.7998  -57.7823 H         1 UNK         0.3800 
    244 H244       -2.8808  -18.3523  -55.3370 H         1 UNK         0.0800 
    245 H245       -1.2708  -18.6860  -55.8802 H         1 UNK         0.0800 
    246 H246        0.7420  -18.5761  -54.1193 H         1 UNK         0.0800 
    247 H247       -0.2204  -17.1110  -54.1401 H         1 UNK         0.0800 
@<TRIPOS>BOND
     1    1    2 1    
     2    1  127 1    
     3    1  128 1    
     4    1  129 1    
     5    2    3 2    
     6    2    4 am   BACKBONE|DICT|INTERRES
     7    4    5 1    
     8    4  130 1    
     9    5    6 1    
    10    5   65 1    
    11    5  131 1    
    12    6    7 1    
    13    6  132 1    
    14    6  133 1    
    15    7    8 1    
    16    8    9 1    
    17    8  134 1    
    18    8  135 1    
    19    9   10 ar   
    20    9   14 ar   
    21   10   11 ar   
    22   10  136 1    
    23   11   12 ar   
    24   11  126 1    
    25   12   13 ar   
    26   12  137 1    
    27   13   14 ar   
    28   13   15 1    
    29   14  138 1    
    30   15   16 1    
    31   15  139 1    
    32   15  140 1    
    33   16   17 1    
    34   17   18 1    
    35   17  141 1    
    36   17  142 1    
    37   18   19 1    
    38   18   67 1    
    39   18  143 1    
    40   19   20 am   BACKBONE|DICT|INTERRES
    41   19  144 1    
    42   20   21 2    
    43   20   22 1    
    44   22   23 1    
    45   22   24 1    
    46   22  145 1    
    47   23  146 1    
    48   23  147 1    
    49   23  148 1    
    50   24   25 am   BACKBONE|DICT|INTERRES
    51   24  149 1    
    52   25   26 2    
    53   25   27 1    
    54   27   28 1    
    55   27   29 1    
    56   27  150 1    
    57   28  151 1    
    58   28  152 1    
    59   28  153 1    
    60   29   30 am   BACKBONE|DICT|INTERRES
    61   29  154 1    
    62   30   31 2    
    63   30   32 1    
    64   32   33 1    
    65   32   34 1    
    66   32  155 1    
    67   33  156 1    
    68   33  157 1    
    69   33  158 1    
    70   34   35 am   BACKBONE|DICT|INTERRES
    71   34  159 1    
    72   35   36 2    
    73   35   37 1    
    74   37   38 1    
    75   37   39 1    
    76   37  160 1    
    77   38  161 1    
    78   38  162 1    
    79   38  163 1    
    80   39   40 am   BACKBONE|DICT|INTERRES
    81   39  164 1    
    82   40   41 2    
    83   40   42 1    
    84   42   43 1    
    85   42   44 1    
    86   42  165 1    
    87   43  166 1    
    88   43  167 1    
    89   43  168 1    
    90   44   45 am   BACKBONE|DICT|INTERRES
    91   44  169 1    
    92   45   46 2    
    93   45   47 1    
    94   47   48 1    
    95   47   49 1    
    96   47  170 1    
    97   48  171 1    
    98   48  172 1    
    99   48  173 1    
   100   49   50 am   BACKBONE|DICT|INTERRES
   101   49  174 1    
   102   50   51 2    
   103   50   52 1    
   104   52   53 1    
   105   52   54 1    
   106   52  175 1    
   107   53  176 1    
   108   53  177 1    
   109   53  178 1    
   110   54   55 am   BACKBONE|DICT|INTERRES
   111   54  179 1    
   112   55   56 2    
   113   55   57 1    
   114   57   58 1    
   115   57   59 1    
   116   57  180 1    
   117   58  181 1    
   118   58  182 1    
   119   58  183 1    
   120   59   60 am   BACKBONE|DICT|INTERRES
   121   59  184 1    
   122   60   61 2    
   123   60   62 1    
   124   62   63 1    
   125   62   64 1    
   126   62  185 1    
   127   63  186 1    
   128   63  187 1    
   129   63  188 1    
   130   64   65 am   BACKBONE|DICT|INTERRES
   131   64  189 1    
   132   65   66 2    
   133   67   68 2    
   134   67   69 am   BACKBONE|DICT|INTERRES
   135   69   70 1    
   136   69  190 1    
   137   70   71 1    
   138   70   72 1    
   139   70  191 1    
   140   71  192 1    
   141   71  193 1    
   142   71  194 1    
   143   72   73 2    
   144   72   74 am   BACKBONE|DICT|INTERRES
   145   74   75 1    
   146   74  195 1    
   147   75   76 1    
   148   75   77 1    
   149   75  196 1    
   150   76  197 1    
   151   76  198 1    
   152   76  199 1    
   153   77   78 2    
   154   77   79 am   BACKBONE|DICT|INTERRES
   155   79   80 1    
   156   79  200 1    
   157   80   81 1    
   158   80   82 1    
   159   80  201 1    
   160   81  202 1    
   161   81  203 1    
   162   81  204 1    
   163   82   83 2    
   164   82   84 am   BACKBONE|DICT|INTERRES
   165   84   85 1    
   166   84  205 1    
   167   85   86 1    
   168   85   87 1    
   169   85  206 1    
   170   86  207 1    
   171   86  208 1    
   172   86  209 1    
   173   87   88 2    
   174   87   89 am   BACKBONE|DICT|INTERRES
   175   89   90 1    
   176   89  210 1    
   177   90   91 1    
   178   90   92 1    
   179   90  211 1    
   180   91  212 1    
   181   91  213 1    
   182   91  214 1    
   183   92   93 2    
   184   92   94 am   BACKBONE|DICT|INTERRES
   185   94   95 1    
   186   94  215 1    
   187   95   96 1    
   188   95   97 1    
   189   95  216 1    
   190   96  217 1    
   191   96  218 1    
   192   96  219 1    
   193   97   98 2    
   194   97   99 am   BACKBONE|DICT|INTERRES
   195   99  100 1    
   196   99  220 1    
   197  100  101 1    
   198  100  102 1    
   199  100  221 1    
   200  101  222 1    
   201  101  223 1    
   202  101  224 1    
   203  102  103 2    
   204  102  104 am   BACKBONE|DICT|INTERRES
   205  104  105 1    
   206  104  225 1    
   207  105  106 1    
   208  105  107 1    
   209  105  226 1    
   210  106  227 1    
   211  106  228 1    
   212  106  229 1    
   213  107  108 2    
   214  107  109 am   BACKBONE|DICT|INTERRES
   215  109  110 1    
   216  109  230 1    
   217  110  111 1    
   218  110  112 1    
   219  110  231 1    
   220  111  232 1    
   221  111  233 1    
   222  111  234 1    
   223  112  113 2    
   224  112  114 am   BACKBONE|DICT|INTERRES
   225  114  115 1    
   226  114  235 1    
   227  115  116 1    
   228  115  117 1    
   229  115  236 1    
   230  116  237 1    
   231  116  238 1    
   232  116  239 1    
   233  117  118 2    
   234  117  119 am   BACKBONE|DICT|INTERRES
   235  119  120 1    
   236  119  240 1    
   237  120  121 1    
   238  120  124 1    
   239  120  241 1    
   240  121  122 am   BACKBONE|DICT|INTERRES
   241  121  123 2    
   242  122  242 1    
   243  122  243 1    
   244  124  125 1    
   245  124  244 1    
   246  124  245 1    
   247  125  126 1    
   248  126  246 1    
   249  126  247 1    
@<TRIPOS>SUBSTRUCTURE
     1 UNK         1 GROUP             0       ****    0 ROOT    
