@<TRIPOS>MOLECULE
3R540
247   249    1
SMALL
USER_CHARGES


@<TRIPOS>ATOM
      1 CA         -1.3651  -14.2949  -50.3984 C.3       0 UNK        -0.1800 
      2 C          -0.5965  -14.2595  -49.0874 C.2       0 UNK         0.5000 
      3 O          -1.1877  -14.0036  -48.0409 O.2       0 UNK        -0.5000 
      4 N           0.7185  -14.5068  -49.1452 N.am      1 UNK        -0.5000 
      5 CA          1.6773  -14.3456  -48.0450 C.3       1 UNK         0.1400 
      6 C6          3.1379  -14.5877  -48.5185 C.3       23 UNK        -0.0398 
      7 S7          3.6568  -16.3316  -48.7366 S.3       23 UNK        -0.2404 
      8 C8          2.9925  -16.7989  -50.3625 C.3       23 UNK        -0.0205 
      9 C9          2.1840  -18.0848  -50.2616 C.ar      23 UNK        -0.0193 
     10 C10         0.7855  -18.0450  -50.2245 C.ar      23 UNK        -0.1150 
     11 C11         0.0382  -19.2297  -50.1671 C.ar      23 UNK        -0.0193 
     12 C12         0.7144  -20.4491  -50.1021 C.ar      23 UNK        -0.1150 
     13 C13         2.1083  -20.5069  -50.1176 C.ar      23 UNK        -0.0193 
     14 C14         2.8394  -19.3199  -50.2107 C.ar      23 UNK        -0.1150 
     15 C15         2.8059  -21.8599  -50.0459 C.3       23 UNK        -0.0205 
     16 S16         3.7919  -22.1011  -48.5289 S.3       23 UNK        -0.2404 
     17 C17         2.6252  -21.6864  -47.1890 C.3       23 UNK        -0.0398 
     18 CA          1.7662  -22.8846  -46.6986 C.3       11 UNK         0.1400 
     19 N           1.7877  -23.0069  -45.2374 N.am      11 UNK        -0.5000 
     20 C           1.3421  -24.0729  -44.5546 C.2       10 UNK         0.5000 
     21 O           0.9090  -25.0942  -45.0880 O.2       10 UNK        -0.5000 
     22 CA          1.3486  -23.9711  -43.0149 C.3       10 UNK         0.1400 
     23 CB          2.6628  -24.5308  -42.4501 C.3       10 UNK        -0.1800 
     24 N           1.1563  -22.6116  -42.5054 N.am      10 UNK        -0.5000 
     25 C           0.1320  -21.7953  -42.7930 C.2       9 UNK         0.5000 
     26 O          -0.8223  -22.1237  -43.4960 O.2       9 UNK        -0.5000 
     27 CA          0.2081  -20.3532  -42.2559 C.3       9 UNK         0.1400 
     28 CB         -0.7333  -20.1765  -41.0559 C.3       9 UNK        -0.1800 
     29 N           1.5569  -19.9193  -41.8760 N.am      9 UNK        -0.5000 
     30 C           2.6038  -19.8184  -42.7061 C.2       8 UNK         0.5000 
     31 O           2.5791  -20.1555  -43.8928 O.2       8 UNK        -0.5000 
     32 CA          3.9113  -19.2899  -42.0884 C.3       8 UNK         0.1400 
     33 CB          4.9461  -20.4203  -41.9773 C.3       8 UNK        -0.1800 
     34 N           4.4797  -18.1909  -42.8677 N.am      8 UNK        -0.5000 
     35 C           3.8719  -17.0180  -43.0852 C.2       7 UNK         0.5000 
     36 O           2.7754  -16.7180  -42.6043 O.2       7 UNK        -0.5000 
     37 CA          4.6140  -16.0292  -44.0016 C.3       7 UNK         0.1400 
     38 CB          4.7137  -16.5894  -45.4273 C.3       7 UNK        -0.1800 
     39 N           3.8812  -14.7681  -44.0489 N.am      7 UNK        -0.5000 
     40 C           4.2029  -13.6514  -43.3857 C.2       6 UNK         0.5000 
     41 O           5.2708  -13.4769  -42.7975 O.2       6 UNK        -0.5000 
     42 CA          3.1141  -12.5634  -43.3401 C.3       6 UNK         0.1400 
     43 CB          3.1472  -11.6986  -44.6100 C.3       6 UNK        -0.1800 
     44 N           1.7907  -13.1710  -43.2031 N.am      6 UNK        -0.5000 
     45 C           1.2899  -13.6531  -42.0573 C.2       5 UNK         0.5000 
     46 O           1.8148  -13.4706  -40.9571 O.2       5 UNK        -0.5000 
     47 CA          0.0028  -14.4985  -42.1728 C.3       5 UNK         0.1400 
     48 CB         -0.7969  -14.5764  -40.8558 C.3       5 UNK        -0.1800 
     49 N          -0.8557  -14.0959  -43.2906 N.am      5 UNK        -0.5000 
     50 C          -1.4960  -12.9293  -43.4604 C.2       4 UNK         0.5000 
     51 O          -1.4725  -12.0060  -42.6460 O.2       4 UNK        -0.5000 
     52 CA         -2.2822  -12.7509  -44.7760 C.3       4 UNK         0.1400 
     53 CB         -1.5638  -11.7417  -45.6862 C.3       4 UNK        -0.1800 
     54 N          -2.4578  -14.0018  -45.5170 N.am      4 UNK        -0.5000 
     55 C          -3.3152  -14.9815  -45.1992 C.2       3 UNK         0.5000 
     56 O          -4.1348  -14.9047  -44.2839 O.2       3 UNK        -0.5000 
     57 CA         -3.1916  -16.2860  -46.0094 C.3       3 UNK         0.1400 
     58 CB         -3.9713  -16.1999  -47.3301 C.3       3 UNK        -0.1800 
     59 N          -1.7936  -16.6206  -46.2887 N.am      3 UNK        -0.5000 
     60 C          -0.9266  -17.0720  -45.3711 C.2       2 UNK         0.5000 
     61 O          -1.2291  -17.3009  -44.2012 O.2       2 UNK        -0.5000 
     62 CA          0.5286  -17.2732  -45.8206 C.3       2 UNK         0.1400 
     63 CB          0.7775  -18.7212  -46.2481 C.3       2 UNK        -0.1800 
     64 N           0.9043  -16.3893  -46.9212 N.am      2 UNK        -0.5000 
     65 C           1.3129  -15.1257  -46.7611 C.2       1 UNK         0.5000 
     66 O           1.3862  -14.5696  -45.6641 O.2       1 UNK        -0.5000 
     67 C           0.3189  -22.7929  -47.2339 C.2       11 UNK         0.5000 
     68 O          -0.0024  -23.4237  -48.2395 O.2       11 UNK        -0.5000 
     69 N          -0.5326  -22.0255  -46.5367 N.am      12 UNK        -0.5000 
     70 CA         -1.9504  -21.8495  -46.8541 C.3       12 UNK         0.1400 
     71 CB         -2.4728  -20.5666  -46.1865 C.3       12 UNK        -0.1800 
     72 C          -2.7927  -23.0646  -46.4335 C.2       12 UNK         0.5000 
     73 O          -3.6860  -23.4697  -47.1793 O.2       12 UNK        -0.5000 
     74 N          -2.4639  -23.6452  -45.2692 N.am      13 UNK        -0.5000 
     75 CA         -3.1167  -24.8123  -44.6632 C.3       13 UNK         0.1400 
     76 CB         -2.5418  -25.0381  -43.2579 C.3       13 UNK        -0.1800 
     77 C          -3.0191  -26.1076  -45.4950 C.2       13 UNK         0.5000 
     78 O          -3.7929  -27.0357  -45.2600 O.2       13 UNK        -0.5000 
     79 N          -2.1155  -26.1322  -46.4841 N.am      14 UNK        -0.5000 
     80 CA         -2.0089  -27.1567  -47.5262 C.3       14 UNK         0.1400 
     81 CB         -0.6408  -27.0028  -48.2111 C.3       14 UNK        -0.1800 
     82 C          -3.1541  -27.1091  -48.5683 C.2       14 UNK         0.5000 
     83 O          -3.1377  -27.9024  -49.5094 O.2       14 UNK        -0.5000 
     84 N          -4.1030  -26.1744  -48.3969 N.am      15 UNK        -0.5000 
     85 CA         -5.2569  -25.8550  -49.2453 C.3       15 UNK         0.1400 
     86 CB         -6.1147  -27.0941  -49.5752 C.3       15 UNK        -0.1800 
     87 C          -4.8794  -25.0314  -50.4900 C.2       15 UNK         0.5000 
     88 O          -5.7030  -24.8677  -51.3896 O.2       15 UNK        -0.5000 
     89 N          -3.6611  -24.4745  -50.5015 N.am      16 UNK        -0.5000 
     90 CA         -3.1502  -23.5871  -51.5453 C.3       16 UNK         0.1400 
     91 CB         -1.6569  -23.3480  -51.2922 C.3       16 UNK        -0.1800 
     92 C          -3.9058  -22.2470  -51.6062 C.2       16 UNK         0.5000 
     93 O          -4.0639  -21.6838  -52.6897 O.2       16 UNK        -0.5000 
     94 N          -4.3899  -21.7764  -50.4484 N.am      17 UNK        -0.5000 
     95 CA         -5.1687  -20.5443  -50.3014 C.3       17 UNK         0.1400 
     96 CB         -5.1908  -20.1466  -48.8182 C.3       17 UNK        -0.1800 
     97 C          -6.5956  -20.6194  -50.8857 C.2       17 UNK         0.5000 
     98 O          -7.2733  -19.5927  -50.9402 O.2       17 UNK        -0.5000 
     99 N          -7.0326  -21.8106  -51.3245 N.am      18 UNK        -0.5000 
    100 CA        -8.2751  -22.0024  -52.0751 C.3       18 UNK         0.1400 
    101 CB        -8.6251  -23.4973  -52.1144 C.3       18 UNK        -0.1800 
    102 C         -8.1934  -21.4277  -53.5041 C.2       18 UNK         0.5000 
    103 O         -9.2265  -21.0559  -54.0626 O.2       18 UNK        -0.5000 
    104 N         -6.9771  -21.3459  -54.0637 N.am      19 UNK        -0.5000 
    105 CA        -6.6950  -20.6425  -55.3107 C.3       19 UNK         0.1400 
    106 CB        -5.4155  -21.2166  -55.9393 C.3       19 UNK        -0.1800 
    107 C         -6.5220  -19.1446  -55.0181 C.2       19 UNK         0.5000 
    108 O         -5.8391  -18.7910  -54.0545 O.2       19 UNK        -0.5000 
    109 N         -7.0989  -18.2894  -55.8724 N.am      20 UNK        -0.5000 
    110 CA        -7.0665  -16.8268  -55.7413 C.3       20 UNK         0.1400 
    111 CB        -7.9844  -16.2080  -56.8067 C.3       20 UNK        -0.1800 
    112 C         -5.6518  -16.2180  -55.8287 C.2       20 UNK         0.5000 
    113 O         -5.4100  -15.1539  -55.2583 O.2       20 UNK        -0.5000 
    114 N         -4.7420  -16.9148  -56.5219 N.am      21 UNK        -0.5000 
    115 CA        -3.3246  -16.5704  -56.6296 C.3       21 UNK         0.1400 
    116 CB        -2.7514  -17.2594  -57.8786 C.3       21 UNK        -0.1800 
    117 C         -2.5014  -16.9532  -55.3809 C.2       21 UNK         0.5000 
    118 O         -1.3690  -16.4863  -55.2570 O.2       21 UNK        -0.5000 
    119 N         -3.0684  -17.7867  -54.4943 N.am      22 UNK        -0.5000 
    120 CA        -2.4238  -18.4196  -53.3342 C.3       22 UNK         0.1400 
    121 C         -1.3585  -19.4576  -53.7922 C.2       22 UNK         0.5000 
    122 N         -1.7321  -20.7220  -53.9176 N.am      22 UNK        -0.7600 
    123 O         -0.2021  -19.1333  -54.0477 O.2       22 UNK        -0.5000 
    124 C124       -1.8780  -17.3917  -52.2980 C.3       23 UNK        -0.0398 
    125 S125       -2.3677  -17.7281  -50.5693 S.3       23 UNK        -0.2404 
    126 C126       -1.4902  -19.2732  -50.1599 C.3       23 UNK        -0.0205 
    127 H127       -2.3240  -14.7935  -50.2612 H         1 UNK         0.0600 
    128 H128       -0.8110  -14.8196  -51.1764 H         1 UNK         0.0600 
    129 H129       -1.5601  -13.2793  -50.7418 H         1 UNK         0.0600 
    130 H130        1.1285  -14.7016  -50.0457 H         1 UNK         0.3000 
    131 H131        1.6148  -13.2904  -47.7698 H         1 UNK         0.0600 
    132 H132        3.8186  -14.1509  -47.7857 H         1 UNK         0.0800 
    133 H133        3.3323  -14.0425  -49.4431 H         1 UNK         0.0800 
    134 H134        2.3884  -15.9967  -50.7849 H         1 UNK         0.0800 
    135 H135        3.8239  -16.9432  -51.0540 H         1 UNK         0.0800 
    136 H136        0.2869  -17.0893  -50.2580 H         1 UNK         0.1150 
    137 H137        0.1494  -21.3663  -50.0398 H         1 UNK         0.1150 
    138 H138        3.9196  -19.3568  -50.2296 H         1 UNK         0.1150 
    139 H139        2.0797  -22.6715  -50.1184 H         1 UNK         0.0800 
    140 H140        3.4623  -21.9645  -50.9106 H         1 UNK         0.0800 
    141 H141        2.0144  -20.8394  -47.4938 H         1 UNK         0.0800 
    142 H142        3.2395  -21.3006  -46.3739 H         1 UNK         0.0800 
    143 H143        2.1933  -23.8090  -47.0937 H         1 UNK         0.0600 
    144 H144        2.1185  -22.2018  -44.7185 H         1 UNK         0.3000 
    145 H145        0.5296  -24.5819  -42.6351 H         1 UNK         0.0600 
    146 H146        2.6475  -24.5519  -41.3602 H         1 UNK         0.0600 
    147 H147        2.8306  -25.5534  -42.7907 H         1 UNK         0.0600 
    148 H148        3.5212  -23.9349  -42.7632 H         1 UNK         0.0600 
    149 H149        1.8920  -22.2457  -41.9203 H         1 UNK         0.3000 
    150 H150       -0.1360  -19.6951  -43.0561 H         1 UNK         0.0600 
    151 H151       -0.4226  -20.7865  -40.2068 H         1 UNK         0.0600 
    152 H152       -1.7532  -20.4660  -41.3134 H         1 UNK         0.0600 
    153 H153       -0.7665  -19.1363  -40.7311 H         1 UNK         0.0600 
    154 H154        1.6713  -19.6261  -40.9164 H         1 UNK         0.3000 
    155 H155        3.7051  -18.9132  -41.0843 H         1 UNK         0.0600 
    156 H156        5.2140  -20.8190  -42.9568 H         1 UNK         0.0600 
    157 H157        4.5593  -21.2480  -41.3814 H         1 UNK         0.0600 
    158 H158        5.8600  -20.0735  -41.4945 H         1 UNK         0.0600 
    159 H159        5.3627  -18.3758  -43.3200 H         1 UNK         0.3000 
    160 H160        5.6202  -15.8756  -43.6066 H         1 UNK         0.0600 
    161 H161        3.7328  -16.8616  -45.8178 H         1 UNK         0.0600 
    162 H162        5.3372  -17.4831  -45.4624 H         1 UNK         0.0600 
    163 H163        5.1585  -15.8608  -46.1050 H         1 UNK         0.0600 
    164 H164        2.9558  -14.8167  -44.4610 H         1 UNK         0.3000 
    165 H165        3.3056  -11.9192  -42.4794 H         1 UNK         0.0600 
    166 H166        2.3892  -10.9160  -44.5725 H         1 UNK         0.0600 
    167 H167        4.1156  -11.2097  -44.7219 H         1 UNK         0.0600 
    168 H168        2.9726  -12.2903  -45.5093 H         1 UNK         0.0600 
    169 H169        1.3259  -13.4268  -44.0683 H         1 UNK         0.3000 
    170 H170        0.3341  -15.5108  -42.4081 H         1 UNK         0.0600 
    171 H171       -0.2002  -15.0303  -40.0639 H         1 UNK         0.0600 
    172 H172       -1.1048  -13.5902  -40.5078 H         1 UNK         0.0600 
    173 H173       -1.6923  -15.1865  -40.9753 H         1 UNK         0.0600 
    174 H174       -0.9470  -14.7778  -44.0298 H         1 UNK         0.3000 
    175 H175       -3.2666  -12.3516  -44.5240 H         1 UNK         0.0600 
    176 H176       -1.4488  -10.7768  -45.1909 H         1 UNK         0.0600 
    177 H177       -0.5677  -12.0907  -45.9628 H         1 UNK         0.0600 
    178 H178       -2.1247  -11.5707  -46.6053 H         1 UNK         0.0600 
    179 H179       -1.8729  -14.1167  -46.3430 H         1 UNK         0.3000 
    180 H180       -3.6259  -17.0920  -45.4138 H         1 UNK         0.0600 
    181 H181       -3.5724  -15.4269  -47.9875 H         1 UNK         0.0600 
    182 H182       -5.0211  -15.9668  -47.1485 H         1 UNK         0.0600 
    183 H183       -3.9379  -17.1473  -47.8684 H         1 UNK         0.0600 
    184 H184       -1.4528  -16.4047  -47.2139 H         1 UNK         0.3000 
    185 H185        1.1673  -17.0681  -44.9584 H         1 UNK         0.0600 
    186 H186        0.4626  -19.4209  -45.4741 H         1 UNK         0.0600 
    187 H187        0.2463  -18.9752  -47.1657 H         1 UNK         0.0600 
    188 H188        1.8426  -18.8784  -46.4156 H         1 UNK         0.0600 
    189 H189        0.9010  -16.7821  -47.8511 H         1 UNK         0.3000 
    190 H190       -0.2147  -21.6165  -45.6697 H         1 UNK         0.3000 
    191 H191       -2.0577  -21.7371  -47.9350 H         1 UNK         0.0600 
    192 H192       -2.0460  -19.6792  -46.6517 H         1 UNK         0.0600 
    193 H193       -3.5565  -20.4861  -46.2747 H         1 UNK         0.0600 
    194 H194       -2.2362  -20.5332  -45.1229 H         1 UNK         0.0600 
    195 H195       -1.7479  -23.1959  -44.7032 H         1 UNK         0.3000 
    196 H196       -4.1772  -24.5730  -44.5630 H         1 UNK         0.0600 
    197 H197       -3.0891  -25.8225  -42.7338 H         1 UNK         0.0600 
    198 H198       -2.6052  -24.1357  -42.6494 H         1 UNK         0.0600 
    199 H199       -1.4981  -25.3454  -43.3042 H         1 UNK         0.0600 
    200 H200       -1.5005  -25.3358  -46.5770 H         1 UNK         0.3000 
    201 H201       -2.0457  -28.1373  -47.0478 H         1 UNK         0.0600 
    202 H202       -0.4690  -27.8030  -48.9320 H         1 UNK         0.0600 
    203 H203        0.1720  -27.0415  -47.4852 H         1 UNK         0.0600 
    204 H204       -0.5651  -26.0564  -48.7478 H         1 UNK         0.0600 
    205 H205       -3.9766  -25.5345  -47.6213 H         1 UNK         0.3000 
    206 H206       -5.8776  -25.1924  -48.6406 H         1 UNK         0.0600 
    207 H207       -6.3432  -27.6679  -48.6772 H         1 UNK         0.0600 
    208 H208       -7.0651  -26.7993  -50.0218 H         1 UNK         0.0600 
    209 H209       -5.6194  -27.7572  -50.2845 H         1 UNK         0.0600 
    210 H210       -3.0550  -24.6481  -49.7133 H         1 UNK         0.3000 
    211 H211       -3.2676  -24.0845  -52.5102 H         1 UNK         0.0600 
    212 H212       -1.4991  -22.8684  -50.3275 H         1 UNK         0.0600 
    213 H213       -1.2186  -22.7063  -52.0560 H         1 UNK         0.0600 
    214 H214       -1.0983  -24.2842  -51.2948 H         1 UNK         0.0600 
    215 H215       -4.2433  -22.3212  -49.6103 H         1 UNK         0.3000 
    216 H216       -4.6558  -19.7536  -50.8522 H         1 UNK         0.0600 
    217 H217       -5.7886  -19.2486  -48.6569 H         1 UNK         0.0600 
    218 H218       -4.1849  -19.9241  -48.4661 H         1 UNK         0.0600 
    219 H219       -5.6053  -20.9379  -48.1924 H         1 UNK         0.0600 
    220 H220       -6.4263  -22.6158  -51.2437 H         1 UNK         0.3000 
    221 H221       -9.0772  -21.4798  -51.5497 H         1 UNK         0.0600 
    222 H222       -7.8930  -24.0667  -52.6877 H         1 UNK         0.0600 
    223 H223       -8.6715  -23.9217  -51.1113 H         1 UNK         0.0600 
    224 H224       -9.5981  -23.6557  -52.5809 H         1 UNK         0.0600 
    225 H225       -6.1691  -21.6051  -53.5117 H         1 UNK         0.3000 
    226 H226       -7.5212  -20.7886  -56.0098 H         1 UNK         0.0600 
    227 H227       -5.2049  -20.7414  -56.8980 H         1 UNK         0.0600 
    228 H228       -4.5451  -21.0627  -55.3004 H         1 UNK         0.0600 
    229 H229       -5.5115  -22.2872  -56.1208 H         1 UNK         0.0600 
    230 H230       -7.6338  -18.6564  -56.6467 H         1 UNK         0.3000 
    231 H231       -7.4668  -16.5740  -54.7572 H         1 UNK         0.0600 
    232 H232       -7.6502  -16.4511  -57.8161 H         1 UNK         0.0600 
    233 H233       -8.0056  -15.1207  -56.7209 H         1 UNK         0.0600 
    234 H234       -9.0103  -16.5603  -56.6974 H         1 UNK         0.0600 
    235 H235       -5.0357  -17.7719  -56.9666 H         1 UNK         0.3000 
    236 H236       -3.2342  -15.4904  -56.7642 H         1 UNK         0.0600 
    237 H237       -3.2855  -16.9540  -58.7786 H         1 UNK         0.0600 
    238 H238       -1.7017  -16.9998  -58.0222 H         1 UNK         0.0600 
    239 H239       -2.8128  -18.3458  -57.8023 H         1 UNK         0.0600 
    240 H240       -4.0252  -18.0821  -54.6516 H         1 UNK         0.3000 
    241 H241       -3.2312  -18.9768  -52.8568 H         1 UNK         0.0600 
    242 H242       -1.0580  -21.3986  -54.2359 H         1 UNK         0.3800 
    243 H243       -2.6696  -21.0240  -53.6624 H         1 UNK         0.3800 
    244 H244       -0.7970  -17.2700  -52.3666 H         1 UNK         0.0800 
    245 H245       -2.2785  -16.4014  -52.5176 H         1 UNK         0.0800 
    246 H246       -1.8102  -19.5786  -49.1641 H         1 UNK         0.0800 
    247 H247       -1.8323  -20.0528  -50.8411 H         1 UNK         0.0800 
@<TRIPOS>BOND
     1    1    2 1    
     2    1  127 1    
     3    1  128 1    
     4    1  129 1    
     5    2    3 2    
     6    2    4 am   BACKBONE|DICT|INTERRES
     7    4    5 1    
     8    4  130 1    
     9    5    6 1    
    10    5   65 1    
    11    5  131 1    
    12    6    7 1    
    13    6  132 1    
    14    6  133 1    
    15    7    8 1    
    16    8    9 1    
    17    8  134 1    
    18    8  135 1    
    19    9   10 ar   
    20    9   14 ar   
    21   10   11 ar   
    22   10  136 1    
    23   11   12 ar   
    24   11  126 1    
    25   12   13 ar   
    26   12  137 1    
    27   13   14 ar   
    28   13   15 1    
    29   14  138 1    
    30   15   16 1    
    31   15  139 1    
    32   15  140 1    
    33   16   17 1    
    34   17   18 1    
    35   17  141 1    
    36   17  142 1    
    37   18   19 1    
    38   18   67 1    
    39   18  143 1    
    40   19   20 am   BACKBONE|DICT|INTERRES
    41   19  144 1    
    42   20   21 2    
    43   20   22 1    
    44   22   23 1    
    45   22   24 1    
    46   22  145 1    
    47   23  146 1    
    48   23  147 1    
    49   23  148 1    
    50   24   25 am   BACKBONE|DICT|INTERRES
    51   24  149 1    
    52   25   26 2    
    53   25   27 1    
    54   27   28 1    
    55   27   29 1    
    56   27  150 1    
    57   28  151 1    
    58   28  152 1    
    59   28  153 1    
    60   29   30 am   BACKBONE|DICT|INTERRES
    61   29  154 1    
    62   30   31 2    
    63   30   32 1    
    64   32   33 1    
    65   32   34 1    
    66   32  155 1    
    67   33  156 1    
    68   33  157 1    
    69   33  158 1    
    70   34   35 am   BACKBONE|DICT|INTERRES
    71   34  159 1    
    72   35   36 2    
    73   35   37 1    
    74   37   38 1    
    75   37   39 1    
    76   37  160 1    
    77   38  161 1    
    78   38  162 1    
    79   38  163 1    
    80   39   40 am   BACKBONE|DICT|INTERRES
    81   39  164 1    
    82   40   41 2    
    83   40   42 1    
    84   42   43 1    
    85   42   44 1    
    86   42  165 1    
    87   43  166 1    
    88   43  167 1    
    89   43  168 1    
    90   44   45 am   BACKBONE|DICT|INTERRES
    91   44  169 1    
    92   45   46 2    
    93   45   47 1    
    94   47   48 1    
    95   47   49 1    
    96   47  170 1    
    97   48  171 1    
    98   48  172 1    
    99   48  173 1    
   100   49   50 am   BACKBONE|DICT|INTERRES
   101   49  174 1    
   102   50   51 2    
   103   50   52 1    
   104   52   53 1    
   105   52   54 1    
   106   52  175 1    
   107   53  176 1    
   108   53  177 1    
   109   53  178 1    
   110   54   55 am   BACKBONE|DICT|INTERRES
   111   54  179 1    
   112   55   56 2    
   113   55   57 1    
   114   57   58 1    
   115   57   59 1    
   116   57  180 1    
   117   58  181 1    
   118   58  182 1    
   119   58  183 1    
   120   59   60 am   BACKBONE|DICT|INTERRES
   121   59  184 1    
   122   60   61 2    
   123   60   62 1    
   124   62   63 1    
   125   62   64 1    
   126   62  185 1    
   127   63  186 1    
   128   63  187 1    
   129   63  188 1    
   130   64   65 am   BACKBONE|DICT|INTERRES
   131   64  189 1    
   132   65   66 2    
   133   67   68 2    
   134   67   69 am   BACKBONE|DICT|INTERRES
   135   69   70 1    
   136   69  190 1    
   137   70   71 1    
   138   70   72 1    
   139   70  191 1    
   140   71  192 1    
   141   71  193 1    
   142   71  194 1    
   143   72   73 2    
   144   72   74 am   BACKBONE|DICT|INTERRES
   145   74   75 1    
   146   74  195 1    
   147   75   76 1    
   148   75   77 1    
   149   75  196 1    
   150   76  197 1    
   151   76  198 1    
   152   76  199 1    
   153   77   78 2    
   154   77   79 am   BACKBONE|DICT|INTERRES
   155   79   80 1    
   156   79  200 1    
   157   80   81 1    
   158   80   82 1    
   159   80  201 1    
   160   81  202 1    
   161   81  203 1    
   162   81  204 1    
   163   82   83 2    
   164   82   84 am   BACKBONE|DICT|INTERRES
   165   84   85 1    
   166   84  205 1    
   167   85   86 1    
   168   85   87 1    
   169   85  206 1    
   170   86  207 1    
   171   86  208 1    
   172   86  209 1    
   173   87   88 2    
   174   87   89 am   BACKBONE|DICT|INTERRES
   175   89   90 1    
   176   89  210 1    
   177   90   91 1    
   178   90   92 1    
   179   90  211 1    
   180   91  212 1    
   181   91  213 1    
   182   91  214 1    
   183   92   93 2    
   184   92   94 am   BACKBONE|DICT|INTERRES
   185   94   95 1    
   186   94  215 1    
   187   95   96 1    
   188   95   97 1    
   189   95  216 1    
   190   96  217 1    
   191   96  218 1    
   192   96  219 1    
   193   97   98 2    
   194   97   99 am   BACKBONE|DICT|INTERRES
   195   99  100 1    
   196   99  220 1    
   197  100  101 1    
   198  100  102 1    
   199  100  221 1    
   200  101  222 1    
   201  101  223 1    
   202  101  224 1    
   203  102  103 2    
   204  102  104 am   BACKBONE|DICT|INTERRES
   205  104  105 1    
   206  104  225 1    
   207  105  106 1    
   208  105  107 1    
   209  105  226 1    
   210  106  227 1    
   211  106  228 1    
   212  106  229 1    
   213  107  108 2    
   214  107  109 am   BACKBONE|DICT|INTERRES
   215  109  110 1    
   216  109  230 1    
   217  110  111 1    
   218  110  112 1    
   219  110  231 1    
   220  111  232 1    
   221  111  233 1    
   222  111  234 1    
   223  112  113 2    
   224  112  114 am   BACKBONE|DICT|INTERRES
   225  114  115 1    
   226  114  235 1    
   227  115  116 1    
   228  115  117 1    
   229  115  236 1    
   230  116  237 1    
   231  116  238 1    
   232  116  239 1    
   233  117  118 2    
   234  117  119 am   BACKBONE|DICT|INTERRES
   235  119  120 1    
   236  119  240 1    
   237  120  121 1    
   238  120  124 1    
   239  120  241 1    
   240  121  122 am   BACKBONE|DICT|INTERRES
   241  121  123 2    
   242  122  242 1    
   243  122  243 1    
   244  124  125 1    
   245  124  244 1    
   246  124  245 1    
   247  125  126 1    
   248  126  246 1    
   249  126  247 1    
@<TRIPOS>SUBSTRUCTURE
     1 UNK         1 GROUP             0       ****    0 ROOT    
