@<TRIPOS>MOLECULE
3R540
247   249    1
SMALL
USER_CHARGES


@<TRIPOS>ATOM
      1 CA          5.9018  -12.9793  -52.3814 C.3       0 UNK        -0.1800 
      2 C           5.5582  -14.1042  -51.4151 C.2       0 UNK         0.5000 
      3 O           6.2500  -15.1221  -51.3907 O.2       0 UNK        -0.5000 
      4 N           4.4918  -13.9245  -50.6254 N.am      1 UNK        -0.5000 
      5 CA          4.0023  -14.8886  -49.6322 C.3       1 UNK         0.1400 
      6 C6          2.6349  -14.4633  -49.0444 C.3       23 UNK        -0.0398 
      7 S7          1.2949  -14.4223  -50.2786 S.3       23 UNK        -0.2404 
      8 C8          0.1800  -15.7060  -49.6314 C.3       23 UNK        -0.0205 
      9 C9          0.5096  -17.0801  -50.1889 C.ar      23 UNK        -0.0193 
     10 C10        -0.1916  -17.5536  -51.2980 C.ar      23 UNK        -0.1150 
     11 C11         0.0656  -18.8243  -51.8127 C.ar      23 UNK        -0.0193 
     12 C12         1.0267  -19.6315  -51.1990 C.ar      23 UNK        -0.1150 
     13 C13         1.7488  -19.1714  -50.0914 C.ar      23 UNK        -0.0193 
     14 C14         1.4923  -17.8831  -49.6003 C.ar      23 UNK        -0.1150 
     15 C15         2.8198  -20.0881  -49.4961 C.3       23 UNK        -0.0205 
     16 S16         3.2606  -19.8253  -47.7386 S.3       23 UNK        -0.2404 
     17 C17         1.6644  -19.8550  -46.8553 C.3       23 UNK        -0.0398 
     18 CA          1.1111  -21.2655  -46.5284 C.3       11 UNK         0.1400 
     19 N           0.2073  -21.2283  -45.3719 N.am      11 UNK        -0.5000 
     20 C          -0.4204  -22.2810  -44.8271 C.2       10 UNK         0.5000 
     21 O          -0.2520  -23.4439  -45.1925 O.2       10 UNK        -0.5000 
     22 CA         -1.4475  -21.9815  -43.7181 C.3       10 UNK         0.1400 
     23 CB         -0.7510  -21.7916  -42.3628 C.3       10 UNK        -0.1800 
     24 N          -2.2849  -20.8161  -44.0138 N.am      10 UNK        -0.5000 
     25 C          -3.1454  -20.7394  -45.0401 C.2       9 UNK         0.5000 
     26 O          -3.3546  -21.6597  -45.8286 O.2       9 UNK        -0.5000 
     27 CA         -3.8479  -19.3880  -45.2654 C.3       9 UNK         0.1400 
     28 CB         -5.0206  -19.1967  -44.2940 C.3       9 UNK        -0.1800 
     29 N          -2.9245  -18.2595  -45.1659 N.am      9 UNK        -0.5000 
     30 C          -1.8749  -18.0721  -45.9781 C.2       8 UNK         0.5000 
     31 O          -1.6314  -18.7784  -46.9566 O.2       8 UNK        -0.5000 
     32 CA         -0.9049  -16.9410  -45.5990 C.3       8 UNK         0.1400 
     33 CB         -1.3873  -15.5954  -46.1592 C.3       8 UNK        -0.1800 
     34 N          -0.7037  -16.8497  -44.1493 N.am      8 UNK        -0.5000 
     35 C          -0.0699  -17.7820  -43.4215 C.2       7 UNK         0.5000 
     36 O           0.4683  -18.7722  -43.9106 O.2       7 UNK        -0.5000 
     37 CA         -0.0786  -17.6145  -41.8926 C.3       7 UNK         0.1400 
     38 CB          1.0901  -16.7410  -41.4141 C.3       7 UNK        -0.1800 
     39 N          -1.3475  -17.0687  -41.4142 N.am      7 UNK        -0.5000 
     40 C          -2.4850  -17.7781  -41.3809 C.2       6 UNK         0.5000 
     41 O          -2.5540  -18.9617  -41.7124 O.2       6 UNK        -0.5000 
     42 CA         -3.7666  -17.0423  -40.9469 C.3       6 UNK         0.1400 
     43 CB         -3.9713  -17.1701  -39.4304 C.3       6 UNK        -0.1800 
     44 N          -3.7859  -15.6264  -41.3177 N.am      6 UNK        -0.5000 
     45 C          -3.7481  -15.1567  -42.5720 C.2       5 UNK         0.5000 
     46 O          -3.6903  -15.8846  -43.5647 O.2       5 UNK        -0.5000 
     47 CA         -3.7462  -13.6224  -42.7577 C.3       5 UNK         0.1400 
     48 CB         -3.9032  -12.8285  -41.4408 C.3       5 UNK        -0.1800 
     49 N          -2.5665  -13.1407  -43.4869 N.am      5 UNK        -0.5000 
     50 C          -1.2818  -13.3772  -43.1874 C.2       4 UNK         0.5000 
     51 O          -0.9087  -14.1094  -42.2668 O.2       4 UNK        -0.5000 
     52 CA         -0.2379  -12.6680  -44.0618 C.3       4 UNK         0.1400 
     53 CB         -0.0541  -11.2052  -43.6225 C.3       4 UNK        -0.1800 
     54 N           1.0362  -13.3742  -43.9556 N.am      4 UNK        -0.5000 
     55 C           1.9625  -13.4421  -44.9158 C.2       3 UNK         0.5000 
     56 O           1.8510  -12.8962  -46.0174 O.2       3 UNK        -0.5000 
     57 CA          3.2159  -14.2762  -44.6075 C.3       3 UNK         0.1400 
     58 CB          2.9064  -15.7808  -44.7209 C.3       3 UNK        -0.1800 
     59 N           4.2486  -13.9165  -45.5705 N.am      3 UNK        -0.5000 
     60 C           5.5511  -14.2195  -45.5120 C.2       2 UNK         0.5000 
     61 O           6.0811  -14.7651  -44.5424 O.2       2 UNK        -0.5000 
     62 CA          6.3847  -13.8653  -46.7679 C.3       2 UNK         0.1400 
     63 CB          7.7036  -14.6604  -46.8630 C.3       2 UNK        -0.1800 
     64 N           5.6065  -13.9880  -48.0104 N.am      2 UNK        -0.5000 
     65 C           4.9909  -15.0927  -48.4671 C.2       1 UNK         0.5000 
     66 O           5.1240  -16.2150  -47.9795 O.2       1 UNK        -0.5000 
     67 C           0.4144  -21.8806  -47.7578 C.2       11 UNK         0.5000 
     68 O           0.9287  -22.8302  -48.3492 O.2       11 UNK        -0.5000 
     69 N          -0.7687  -21.3485  -48.0878 N.am      12 UNK        -0.5000 
     70 CA         -1.6058  -21.8135  -49.1871 C.3       12 UNK         0.1400 
     71 CB         -2.7797  -20.8520  -49.3531 C.3       12 UNK        -0.1800 
     72 C          -2.1053  -23.2550  -48.9951 C.2       12 UNK         0.5000 
     73 O          -2.0798  -24.0291  -49.9495 O.2       12 UNK        -0.5000 
     74 N          -2.5041  -23.6087  -47.7651 N.am      13 UNK        -0.5000 
     75 CA         -2.9170  -24.9614  -47.3899 C.3       13 UNK         0.1400 
     76 CB         -3.4839  -24.9589  -45.9630 C.3       13 UNK        -0.1800 
     77 C          -1.7784  -25.9886  -47.5290 C.2       13 UNK         0.5000 
     78 O          -2.0132  -27.0807  -48.0462 O.2       13 UNK        -0.5000 
     79 N          -0.5575  -25.6077  -47.1248 N.am      14 UNK        -0.5000 
     80 CA          0.6631  -26.3989  -47.3073 C.3       14 UNK         0.1400 
     81 CB          1.8126  -25.7636  -46.5108 C.3       14 UNK        -0.1800 
     82 C           1.0495  -26.5714  -48.7903 C.2       14 UNK         0.5000 
     83 O           1.5555  -27.6287  -49.1675 O.2       14 UNK        -0.5000 
     84 N           0.7619  -25.5514  -49.6101 N.am      15 UNK        -0.5000 
     85 CA          0.8995  -25.5696  -51.0687 C.3       15 UNK         0.1400 
     86 CB          1.0084  -24.1201  -51.5738 C.3       15 UNK        -0.1800 
     87 C          -0.2433  -26.3230  -51.7894 C.2       15 UNK         0.5000 
     88 O          -0.1805  -26.4694  -53.0109 O.2       15 UNK        -0.5000 
     89 N          -1.2556  -26.7824  -51.0365 N.am      16 UNK        -0.5000 
     90 CA         -2.4666  -27.4832  -51.4772 C.3       16 UNK         0.1400 
     91 CB         -2.1192  -28.8488  -52.1068 C.3       16 UNK        -0.1800 
     92 C          -3.3868  -26.6166  -52.3643 C.2       16 UNK         0.5000 
     93 O          -4.0261  -27.1333  -53.2832 O.2       16 UNK        -0.5000 
     94 N          -3.4451  -25.3154  -52.0638 N.am      17 UNK        -0.5000 
     95 CA         -4.2836  -24.3183  -52.7212 C.3       17 UNK         0.1400 
     96 CB         -3.3707  -23.1848  -53.2135 C.3       17 UNK        -0.1800 
     97 C          -5.3418  -23.7767  -51.7424 C.2       17 UNK         0.5000 
     98 O          -5.3040  -24.0800  -50.5466 O.2       17 UNK        -0.5000 
     99 N          -6.2742  -22.9732  -52.2718 N.am      18 UNK        -0.5000 
    100 CA        -7.2701  -22.2299  -51.4965 C.3       18 UNK         0.1400 
    101 CB        -8.2899  -21.6052  -52.4597 C.3       18 UNK        -0.1800 
    102 C         -6.6056  -21.1460  -50.6256 C.2       18 UNK         0.5000 
    103 O         -5.6664  -20.4995  -51.0881 O.2       18 UNK        -0.5000 
    104 N         -7.1024  -20.9892  -49.3904 N.am      19 UNK        -0.5000 
    105 CA        -6.5499  -20.1607  -48.3142 C.3       19 UNK         0.1400 
    106 CB        -7.5229  -20.1839  -47.1240 C.3       19 UNK        -0.1800 
    107 C         -6.2190  -18.7109  -48.7248 C.2       19 UNK         0.5000 
    108 O         -7.1344  -17.9056  -48.9062 O.2       19 UNK        -0.5000 
    109 N         -4.9161  -18.4245  -48.8660 N.am      20 UNK        -0.5000 
    110 CA        -4.2635  -17.1639  -49.2459 C.3       20 UNK         0.1400 
    111 CB        -4.5644  -16.0493  -48.2264 C.3       20 UNK        -0.1800 
    112 C         -4.5527  -16.7041  -50.6895 C.2       20 UNK         0.5000 
    113 O         -3.6209  -16.3593  -51.4167 O.2       20 UNK        -0.5000 
    114 N         -5.8275  -16.7176  -51.0888 N.am      21 UNK        -0.5000 
    115 CA        -6.3104  -16.4346  -52.4356 C.3       21 UNK         0.1400 
    116 CB        -7.7403  -15.8741  -52.3352 C.3       21 UNK        -0.1800 
    117 C         -6.2298  -17.7101  -53.2947 C.2       21 UNK         0.5000 
    118 O         -7.2573  -18.3191  -53.5969 O.2       21 UNK        -0.5000 
    119 N         -4.9984  -18.1035  -53.6403 N.am      22 UNK        -0.5000 
    120 CA        -4.6655  -19.3477  -54.3575 C.3       22 UNK         0.1400 
    121 C         -5.2214  -19.4625  -55.8079 C.2       22 UNK         0.5000 
    122 N         -5.6328  -18.3783  -56.4539 N.am      22 UNK        -0.7600 
    123 O         -5.2786  -20.5595  -56.3563 O.2       22 UNK        -0.5000 
    124 C124       -3.1382  -19.6156  -54.3592 C.3       23 UNK        -0.0398 
    125 S125       -2.4207  -19.6573  -52.6834 S.3       23 UNK        -0.2404 
    126 C126       -0.6784  -19.2952  -53.0512 C.3       23 UNK        -0.0205 
    127 H127        5.2045  -12.1453  -52.2980 H         1 UNK         0.0600 
    128 H128        5.8730  -13.3447  -53.4080 H         1 UNK         0.0600 
    129 H129        6.9053  -12.6048  -52.1796 H         1 UNK         0.0600 
    130 H130        3.9462  -13.0795  -50.7189 H         1 UNK         0.3000 
    131 H131        3.8797  -15.8530  -50.1307 H         1 UNK         0.0600 
    132 H132        2.3492  -15.1244  -48.2245 H         1 UNK         0.0800 
    133 H133        2.7026  -13.4672  -48.6038 H         1 UNK         0.0800 
    134 H134       -0.8454  -15.4377  -49.8921 H         1 UNK         0.0800 
    135 H135        0.2133  -15.7275  -48.5432 H         1 UNK         0.0800 
    136 H136       -0.9440  -16.9328  -51.7646 H         1 UNK         0.1150 
    137 H137        1.2261  -20.6169  -51.5966 H         1 UNK         0.1150 
    138 H138        2.0492  -17.5047  -48.7559 H         1 UNK         0.1150 
    139 H139        2.5269  -21.1304  -49.6235 H         1 UNK         0.0800 
    140 H140        3.7279  -19.9636  -50.0869 H         1 UNK         0.0800 
    141 H141        0.9266  -19.2428  -47.3713 H         1 UNK         0.0800 
    142 H142        1.8668  -19.3260  -45.9253 H         1 UNK         0.0800 
    143 H143        1.9449  -21.9150  -46.2544 H         1 UNK         0.0600 
    144 H144        0.0595  -20.3151  -44.9513 H         1 UNK         0.3000 
    145 H145       -2.1071  -22.8475  -43.6367 H         1 UNK         0.0600 
    146 H146       -1.4774  -21.6418  -41.5638 H         1 UNK         0.0600 
    147 H147       -0.1580  -22.6694  -42.1035 H         1 UNK         0.0600 
    148 H148       -0.0796  -20.9333  -42.3694 H         1 UNK         0.0600 
    149 H149       -2.2129  -20.0307  -43.3751 H         1 UNK         0.3000 
    150 H150       -4.2508  -19.3924  -46.2784 H         1 UNK         0.0600 
    151 H151       -5.7374  -20.0135  -44.3838 H         1 UNK         0.0600 
    152 H152       -5.5537  -18.2677  -44.4978 H         1 UNK         0.0600 
    153 H153       -4.6886  -19.1716  -43.2574 H         1 UNK         0.0600 
    154 H154       -3.0912  -17.5871  -44.4238 H         1 UNK         0.3000 
    155 H155        0.0566  -17.1696  -46.0637 H         1 UNK         0.0600 
    156 H156       -1.6775  -15.6868  -47.2059 H         1 UNK         0.0600 
    157 H157       -0.5976  -14.8477  -46.1081 H         1 UNK         0.0600 
    158 H158       -2.2550  -15.2141  -45.6230 H         1 UNK         0.0600 
    159 H159       -1.1662  -16.0935  -43.6640 H         1 UNK         0.3000 
    160 H160        0.0540  -18.6052  -41.4526 H         1 UNK         0.0600 
    161 H161        1.0443  -15.7332  -41.8230 H         1 UNK         0.0600 
    162 H162        2.0453  -17.1732  -41.7152 H         1 UNK         0.0600 
    163 H163        1.1004  -16.6599  -40.3271 H         1 UNK         0.0600 
    164 H164       -1.3689  -16.0816  -41.1898 H         1 UNK         0.3000 
    165 H165       -4.6084  -17.5261  -41.4457 H         1 UNK         0.0600 
    166 H166       -4.9197  -16.7301  -39.1213 H         1 UNK         0.0600 
    167 H167       -3.9859  -18.2174  -39.1253 H         1 UNK         0.0600 
    168 H168       -3.1737  -16.6768  -38.8733 H         1 UNK         0.0600 
    169 H169       -3.8114  -14.9617  -40.5584 H         1 UNK         0.3000 
    170 H170       -4.6108  -13.3973  -43.3835 H         1 UNK         0.0600 
    171 H171       -4.8198  -13.1030  -40.9172 H         1 UNK         0.0600 
    172 H172       -3.0647  -12.9882  -40.7616 H         1 UNK         0.0600 
    173 H173       -3.9619  -11.7583  -41.6395 H         1 UNK         0.0600 
    174 H174       -2.7697  -12.5527  -44.2829 H         1 UNK         0.3000 
    175 H175       -0.5887  -12.6910  -45.0955 H         1 UNK         0.0600 
    176 H176        0.2974  -11.1376  -42.5922 H         1 UNK         0.0600 
    177 H177        0.6682  -10.6907  -44.2566 H         1 UNK         0.0600 
    178 H178       -0.9922  -10.6528  -43.6873 H         1 UNK         0.0600 
    179 H179        1.1553  -13.8809  -43.0879 H         1 UNK         0.3000 
    180 H180        3.5614  -14.0368  -43.5998 H         1 UNK         0.0600 
    181 H181        2.5698  -16.0496  -45.7231 H         1 UNK         0.0600 
    182 H182        2.1236  -16.0688  -44.0242 H         1 UNK         0.0600 
    183 H183        3.7799  -16.3899  -44.4891 H         1 UNK         0.0600 
    184 H184        3.8903  -13.4070  -46.3681 H         1 UNK         0.3000 
    185 H185        6.6438  -12.8102  -46.6705 H         1 UNK         0.0600 
    186 H186        8.3465  -14.4542  -46.0065 H         1 UNK         0.0600 
    187 H187        7.5289  -15.7363  -46.8876 H         1 UNK         0.0600 
    188 H188        8.2621  -14.3909  -47.7593 H         1 UNK         0.0600 
    189 H189        5.4426  -13.1233  -48.5070 H         1 UNK         0.3000 
    190 H190       -1.1142  -20.5499  -47.5629 H         1 UNK         0.3000 
    191 H191       -1.0095  -21.7817  -50.1011 H         1 UNK         0.0600 
    192 H192       -3.3784  -20.8038  -48.4455 H         1 UNK         0.0600 
    193 H193       -3.4224  -21.1812  -50.1680 H         1 UNK         0.0600 
    194 H194       -2.4304  -19.8470  -49.5916 H         1 UNK         0.0600 
    195 H195       -2.5541  -22.8990  -47.0392 H         1 UNK         0.3000 
    196 H196       -3.7172  -25.2602  -48.0707 H         1 UNK         0.0600 
    197 H197       -3.8219  -25.9552  -45.6757 H         1 UNK         0.0600 
    198 H198       -4.3397  -24.2888  -45.8805 H         1 UNK         0.0600 
    199 H199       -2.7385  -24.6420  -45.2338 H         1 UNK         0.0600 
    200 H200       -0.4510  -24.7072  -46.6652 H         1 UNK         0.3000 
    201 H201        0.4787  -27.3942  -46.8979 H         1 UNK         0.0600 
    202 H202        1.5716  -25.7073  -45.4492 H         1 UNK         0.0600 
    203 H203        2.0339  -24.7537  -46.8561 H         1 UNK         0.0600 
    204 H204        2.7262  -26.3514  -46.6069 H         1 UNK         0.0600 
    205 H205        0.4033  -24.6944  -49.2029 H         1 UNK         0.3000 
    206 H206        1.8303  -26.0821  -51.3196 H         1 UNK         0.0600 
    207 H207        1.8181  -23.5865  -51.0757 H         1 UNK         0.0600 
    208 H208        1.2124  -24.0932  -52.6448 H         1 UNK         0.0600 
    209 H209        0.0877  -23.5627  -51.4049 H         1 UNK         0.0600 
    210 H210       -1.2203  -26.5853  -50.0444 H         1 UNK         0.3000 
    211 H211       -3.0386  -27.6834  -50.5704 H         1 UNK         0.0600 
    212 H212       -1.6061  -28.7377  -53.0623 H         1 UNK         0.0600 
    213 H213       -3.0202  -29.4359  -52.2875 H         1 UNK         0.0600 
    214 H214       -1.4789  -29.4347  -51.4473 H         1 UNK         0.0600 
    215 H215       -2.9258  -24.9704  -51.2573 H         1 UNK         0.3000 
    216 H216       -4.8035  -24.7517  -53.5777 H         1 UNK         0.0600 
    217 H217       -3.9402  -22.4332  -53.7589 H         1 UNK         0.0600 
    218 H218       -2.6012  -23.5610  -53.8878 H         1 UNK         0.0600 
    219 H219       -2.8707  -22.6841  -52.3833 H         1 UNK         0.0600 
    220 H220       -6.2273  -22.7553  -53.2557 H         1 UNK         0.3000 
    221 H221       -7.7922  -22.9363  -50.8476 H         1 UNK         0.0600 
    222 H222       -7.8092  -20.9315  -53.1698 H         1 UNK         0.0600 
    223 H223       -8.8170  -22.3713  -53.0285 H         1 UNK         0.0600 
    224 H224       -9.0399  -21.0283  -51.9170 H         1 UNK         0.0600 
    225 H225       -7.8990  -21.5519  -49.1304 H         1 UNK         0.3000 
    226 H226       -5.6296  -20.6443  -47.9849 H         1 UNK         0.0600 
    227 H227       -7.1748  -19.5364  -46.3190 H         1 UNK         0.0600 
    228 H228       -8.5167  -19.8380  -47.4109 H         1 UNK         0.0600 
    229 H229       -7.6217  -21.1887  -46.7127 H         1 UNK         0.0600 
    230 H230       -4.2715  -19.1972  -48.7835 H         1 UNK         0.3000 
    231 H231       -3.1920  -17.3666  -49.1954 H         1 UNK         0.0600 
    232 H232       -3.9861  -15.1523  -48.4508 H         1 UNK         0.0600 
    233 H233       -4.3051  -16.3595  -47.2141 H         1 UNK         0.0600 
    234 H234       -5.6173  -15.7665  -48.2293 H         1 UNK         0.0600 
    235 H235       -6.5131  -17.0660  -50.4230 H         1 UNK         0.3000 
    236 H236       -5.6822  -15.6719  -52.9007 H         1 UNK         0.0600 
    237 H237       -7.7586  -14.9447  -51.7658 H         1 UNK         0.0600 
    238 H238       -8.1457  -15.6577  -53.3243 H         1 UNK         0.0600 
    239 H239       -8.4166  -16.5774  -51.8471 H         1 UNK         0.0600 
    240 H240       -4.2123  -17.5763  -53.2819 H         1 UNK         0.3000 
    241 H241       -5.1376  -20.1567  -53.7969 H         1 UNK         0.0600 
    242 H242       -5.9942  -18.4652  -57.3909 H         1 UNK         0.3800 
    243 H243       -5.5984  -17.4740  -56.0116 H         1 UNK         0.3800 
    244 H244       -2.9082  -20.5656  -54.8443 H         1 UNK         0.0800 
    245 H245       -2.6330  -18.8456  -54.9445 H         1 UNK         0.0800 
    246 H246       -0.6120  -18.5157  -53.8114 H         1 UNK         0.0800 
    247 H247       -0.2095  -20.1843  -53.4753 H         1 UNK         0.0800 
@<TRIPOS>BOND
     1    1    2 1    
     2    1  127 1    
     3    1  128 1    
     4    1  129 1    
     5    2    3 2    
     6    2    4 am   BACKBONE|DICT|INTERRES
     7    4    5 1    
     8    4  130 1    
     9    5    6 1    
    10    5   65 1    
    11    5  131 1    
    12    6    7 1    
    13    6  132 1    
    14    6  133 1    
    15    7    8 1    
    16    8    9 1    
    17    8  134 1    
    18    8  135 1    
    19    9   10 ar   
    20    9   14 ar   
    21   10   11 ar   
    22   10  136 1    
    23   11   12 ar   
    24   11  126 1    
    25   12   13 ar   
    26   12  137 1    
    27   13   14 ar   
    28   13   15 1    
    29   14  138 1    
    30   15   16 1    
    31   15  139 1    
    32   15  140 1    
    33   16   17 1    
    34   17   18 1    
    35   17  141 1    
    36   17  142 1    
    37   18   19 1    
    38   18   67 1    
    39   18  143 1    
    40   19   20 am   BACKBONE|DICT|INTERRES
    41   19  144 1    
    42   20   21 2    
    43   20   22 1    
    44   22   23 1    
    45   22   24 1    
    46   22  145 1    
    47   23  146 1    
    48   23  147 1    
    49   23  148 1    
    50   24   25 am   BACKBONE|DICT|INTERRES
    51   24  149 1    
    52   25   26 2    
    53   25   27 1    
    54   27   28 1    
    55   27   29 1    
    56   27  150 1    
    57   28  151 1    
    58   28  152 1    
    59   28  153 1    
    60   29   30 am   BACKBONE|DICT|INTERRES
    61   29  154 1    
    62   30   31 2    
    63   30   32 1    
    64   32   33 1    
    65   32   34 1    
    66   32  155 1    
    67   33  156 1    
    68   33  157 1    
    69   33  158 1    
    70   34   35 am   BACKBONE|DICT|INTERRES
    71   34  159 1    
    72   35   36 2    
    73   35   37 1    
    74   37   38 1    
    75   37   39 1    
    76   37  160 1    
    77   38  161 1    
    78   38  162 1    
    79   38  163 1    
    80   39   40 am   BACKBONE|DICT|INTERRES
    81   39  164 1    
    82   40   41 2    
    83   40   42 1    
    84   42   43 1    
    85   42   44 1    
    86   42  165 1    
    87   43  166 1    
    88   43  167 1    
    89   43  168 1    
    90   44   45 am   BACKBONE|DICT|INTERRES
    91   44  169 1    
    92   45   46 2    
    93   45   47 1    
    94   47   48 1    
    95   47   49 1    
    96   47  170 1    
    97   48  171 1    
    98   48  172 1    
    99   48  173 1    
   100   49   50 am   BACKBONE|DICT|INTERRES
   101   49  174 1    
   102   50   51 2    
   103   50   52 1    
   104   52   53 1    
   105   52   54 1    
   106   52  175 1    
   107   53  176 1    
   108   53  177 1    
   109   53  178 1    
   110   54   55 am   BACKBONE|DICT|INTERRES
   111   54  179 1    
   112   55   56 2    
   113   55   57 1    
   114   57   58 1    
   115   57   59 1    
   116   57  180 1    
   117   58  181 1    
   118   58  182 1    
   119   58  183 1    
   120   59   60 am   BACKBONE|DICT|INTERRES
   121   59  184 1    
   122   60   61 2    
   123   60   62 1    
   124   62   63 1    
   125   62   64 1    
   126   62  185 1    
   127   63  186 1    
   128   63  187 1    
   129   63  188 1    
   130   64   65 am   BACKBONE|DICT|INTERRES
   131   64  189 1    
   132   65   66 2    
   133   67   68 2    
   134   67   69 am   BACKBONE|DICT|INTERRES
   135   69   70 1    
   136   69  190 1    
   137   70   71 1    
   138   70   72 1    
   139   70  191 1    
   140   71  192 1    
   141   71  193 1    
   142   71  194 1    
   143   72   73 2    
   144   72   74 am   BACKBONE|DICT|INTERRES
   145   74   75 1    
   146   74  195 1    
   147   75   76 1    
   148   75   77 1    
   149   75  196 1    
   150   76  197 1    
   151   76  198 1    
   152   76  199 1    
   153   77   78 2    
   154   77   79 am   BACKBONE|DICT|INTERRES
   155   79   80 1    
   156   79  200 1    
   157   80   81 1    
   158   80   82 1    
   159   80  201 1    
   160   81  202 1    
   161   81  203 1    
   162   81  204 1    
   163   82   83 2    
   164   82   84 am   BACKBONE|DICT|INTERRES
   165   84   85 1    
   166   84  205 1    
   167   85   86 1    
   168   85   87 1    
   169   85  206 1    
   170   86  207 1    
   171   86  208 1    
   172   86  209 1    
   173   87   88 2    
   174   87   89 am   BACKBONE|DICT|INTERRES
   175   89   90 1    
   176   89  210 1    
   177   90   91 1    
   178   90   92 1    
   179   90  211 1    
   180   91  212 1    
   181   91  213 1    
   182   91  214 1    
   183   92   93 2    
   184   92   94 am   BACKBONE|DICT|INTERRES
   185   94   95 1    
   186   94  215 1    
   187   95   96 1    
   188   95   97 1    
   189   95  216 1    
   190   96  217 1    
   191   96  218 1    
   192   96  219 1    
   193   97   98 2    
   194   97   99 am   BACKBONE|DICT|INTERRES
   195   99  100 1    
   196   99  220 1    
   197  100  101 1    
   198  100  102 1    
   199  100  221 1    
   200  101  222 1    
   201  101  223 1    
   202  101  224 1    
   203  102  103 2    
   204  102  104 am   BACKBONE|DICT|INTERRES
   205  104  105 1    
   206  104  225 1    
   207  105  106 1    
   208  105  107 1    
   209  105  226 1    
   210  106  227 1    
   211  106  228 1    
   212  106  229 1    
   213  107  108 2    
   214  107  109 am   BACKBONE|DICT|INTERRES
   215  109  110 1    
   216  109  230 1    
   217  110  111 1    
   218  110  112 1    
   219  110  231 1    
   220  111  232 1    
   221  111  233 1    
   222  111  234 1    
   223  112  113 2    
   224  112  114 am   BACKBONE|DICT|INTERRES
   225  114  115 1    
   226  114  235 1    
   227  115  116 1    
   228  115  117 1    
   229  115  236 1    
   230  116  237 1    
   231  116  238 1    
   232  116  239 1    
   233  117  118 2    
   234  117  119 am   BACKBONE|DICT|INTERRES
   235  119  120 1    
   236  119  240 1    
   237  120  121 1    
   238  120  124 1    
   239  120  241 1    
   240  121  122 am   BACKBONE|DICT|INTERRES
   241  121  123 2    
   242  122  242 1    
   243  122  243 1    
   244  124  125 1    
   245  124  244 1    
   246  124  245 1    
   247  125  126 1    
   248  126  246 1    
   249  126  247 1    
@<TRIPOS>SUBSTRUCTURE
     1 UNK         1 GROUP             0       ****    0 ROOT    
