@<TRIPOS>MOLECULE
3R540
247   249    1
SMALL
USER_CHARGES


@<TRIPOS>ATOM
      1 CA         -2.9228  -12.7014  -53.1948 C.3       0 UNK        -0.1800 
      2 C          -2.3145  -13.2917  -51.9299 C.2       0 UNK         0.5000 
      3 O          -1.1704  -13.7437  -51.9558 O.2       0 UNK        -0.5000 
      4 N          -3.0791  -13.2942  -50.8296 N.am      1 UNK        -0.5000 
      5 CA         -2.7016  -13.8555  -49.5292 C.3       1 UNK         0.1400 
      6 C6         -3.8658  -13.7898  -48.5057 C.3       23 UNK        -0.0398 
      7 S7         -5.3175  -14.7877  -48.9888 S.3       23 UNK        -0.2404 
      8 C8         -5.2522  -16.1819  -47.8129 C.3       23 UNK        -0.0205 
      9 C9         -4.2873  -17.2701  -48.2628 C.ar      23 UNK        -0.0193 
     10 C10        -4.7658  -18.4596  -48.8233 C.ar      23 UNK        -0.1150 
     11 C11        -3.8768  -19.4603  -49.2307 C.ar      23 UNK        -0.0193 
     12 C12        -2.5012  -19.2464  -49.1045 C.ar      23 UNK        -0.1150 
     13 C13        -2.0112  -18.0631  -48.5495 C.ar      23 UNK        -0.0193 
     14 C14        -2.9110  -17.0925  -48.1085 C.ar      23 UNK        -0.1150 
     15 C15        -0.5164  -17.8121  -48.4456 C.3       23 UNK        -0.0205 
     16 S16         0.2351  -18.7420  -47.0819 S.3       23 UNK        -0.2404 
     17 C17         0.8035  -20.2567  -47.9290 C.3       23 UNK        -0.0398 
     18 CA          0.4972  -21.5566  -47.1522 C.3       11 UNK         0.1400 
     19 N           1.0769  -21.5370  -45.8065 N.am      11 UNK        -0.5000 
     20 C           1.3505  -22.6292  -45.0850 C.2       10 UNK         0.5000 
     21 O           1.1339  -23.7778  -45.4707 O.2       10 UNK        -0.5000 
     22 CA          1.9016  -22.3808  -43.6742 C.3       10 UNK         0.1400 
     23 CB          3.2607  -21.6623  -43.7131 C.3       10 UNK        -0.1800 
     24 N           0.9675  -21.6029  -42.8650 N.am      10 UNK        -0.5000 
     25 C          -0.2122  -22.0467  -42.4118 C.2       9 UNK         0.5000 
     26 O          -0.6831  -23.1429  -42.7155 O.2       9 UNK        -0.5000 
     27 CA         -1.0107  -21.1020  -41.4895 C.3       9 UNK         0.1400 
     28 CB         -1.8549  -21.8609  -40.4460 C.3       9 UNK        -0.1800 
     29 N          -0.1920  -20.0654  -40.8537 N.am      9 UNK        -0.5000 
     30 C           0.8079  -20.2072  -39.9701 C.2       8 UNK         0.5000 
     31 O           1.1661  -21.2891  -39.5042 O.2       8 UNK        -0.5000 
     32 CA          1.5569  -18.9219  -39.5532 C.3       8 UNK         0.1400 
     33 CB          2.9676  -18.9023  -40.1635 C.3       8 UNK        -0.1800 
     34 N           0.8592  -17.6947  -39.9460 N.am      8 UNK        -0.5000 
     35 C          -0.2339  -17.2104  -39.3401 C.2       7 UNK         0.5000 
     36 O          -0.7144  -17.6878  -38.3118 O.2       7 UNK        -0.5000 
     37 CA         -0.9336  -16.0227  -40.0270 C.3       7 UNK         0.1400 
     38 CB         -0.3241  -14.6928  -39.5590 C.3       7 UNK        -0.1800 
     39 N          -0.8818  -16.1019  -41.4903 N.am      7 UNK        -0.5000 
     40 C          -1.4870  -17.0452  -42.2281 C.2       6 UNK         0.5000 
     41 O          -2.1988  -17.9282  -41.7526 O.2       6 UNK        -0.5000 
     42 CA         -1.2089  -17.0404  -43.7411 C.3       6 UNK         0.1400 
     43 CB         -2.1029  -16.0185  -44.4569 C.3       6 UNK        -0.1800 
     44 N           0.1932  -16.7611  -44.0426 N.am      6 UNK        -0.5000 
     45 C           1.2183  -17.5766  -43.7592 C.2       5 UNK         0.5000 
     46 O           1.0891  -18.6936  -43.2569 O.2       5 UNK        -0.5000 
     47 CA          2.6301  -17.0411  -44.0530 C.3       5 UNK         0.1400 
     48 CB          3.0627  -17.3601  -45.4902 C.3       5 UNK        -0.1800 
     49 N           2.7279  -15.6002  -43.8269 N.am      5 UNK        -0.5000 
     50 C           2.7523  -15.0299  -42.6155 C.2       4 UNK         0.5000 
     51 O           2.7147  -15.6635  -41.5600 O.2       4 UNK        -0.5000 
     52 CA          2.7895  -13.4908  -42.5864 C.3       4 UNK         0.1400 
     53 CB          4.2160  -12.9759  -42.8303 C.3       4 UNK        -0.1800 
     54 N           1.8785  -12.8827  -43.5598 N.am      4 UNK        -0.5000 
     55 C           0.5433  -12.9645  -43.4854 C.2       3 UNK         0.5000 
     56 O          -0.0530  -13.5700  -42.5964 O.2       3 UNK        -0.5000 
     57 CA         -0.2689  -12.2833  -44.6015 C.3       3 UNK         0.1400 
     58 CB         -0.4508  -10.7887  -44.2972 C.3       3 UNK        -0.1800 
     59 N           0.2708  -12.4381  -45.9558 N.am      3 UNK        -0.5000 
     60 C           0.5698  -13.5992  -46.5524 C.2       2 UNK         0.5000 
     61 O           0.5716  -14.6898  -45.9803 O.2       2 UNK        -0.5000 
     62 CA          0.8459  -13.5395  -48.0638 C.3       2 UNK         0.1400 
     63 CB          2.0016  -14.4713  -48.4668 C.3       2 UNK        -0.1800 
     64 N          -0.3632  -13.9362  -48.7827 N.am      2 UNK        -0.5000 
     65 C          -1.4490  -13.1684  -48.9423 C.2       1 UNK         0.5000 
     66 O          -1.5000  -11.9782  -48.6237 O.2       1 UNK        -0.5000 
     67 C          -1.0075  -21.8976  -47.1420 C.2       11 UNK         0.5000 
     68 O          -1.5258  -22.3507  -48.1601 O.2       11 UNK        -0.5000 
     69 N          -1.6746  -21.7067  -45.9938 N.am      12 UNK        -0.5000 
     70 CA         -3.0593  -22.1207  -45.7741 C.3       12 UNK         0.1400 
     71 CB         -3.5939  -21.4785  -44.4854 C.3       12 UNK        -0.1800 
     72 C          -3.1902  -23.6547  -45.7258 C.2       12 UNK         0.5000 
     73 O          -4.1349  -24.1993  -46.2970 O.2       12 UNK        -0.5000 
     74 N          -2.2262  -24.3228  -45.0731 N.am      13 UNK        -0.5000 
     75 CA         -2.0906  -25.7778  -45.0707 C.3       13 UNK         0.1400 
     76 CB         -1.1594  -26.2117  -43.9280 C.3       13 UNK        -0.1800 
     77 C          -1.5815  -26.2917  -46.4280 C.2       13 UNK         0.5000 
     78 O          -2.2033  -27.1755  -47.0192 O.2       13 UNK        -0.5000 
     79 N          -0.4875  -25.6995  -46.9264 N.am      14 UNK        -0.5000 
     80 CA          0.1214  -26.0019  -48.2236 C.3       14 UNK         0.1400 
     81 CB          1.6242  -25.6752  -48.1614 C.3       14 UNK        -0.1800 
     82 C          -0.5966  -25.2768  -49.3819 C.2       14 UNK         0.5000 
     83 O           0.0484  -24.6065  -50.1904 O.2       14 UNK        -0.5000 
     84 N          -1.9254  -25.4398  -49.4565 N.am      15 UNK        -0.5000 
     85 CA         -2.8205  -24.7921  -50.4234 C.3       15 UNK         0.1400 
     86 CB         -4.2736  -25.1272  -50.0583 C.3       15 UNK        -0.1800 
     87 C          -2.5324  -25.1465  -51.8969 C.2       15 UNK         0.5000 
     88 O          -2.9284  -24.3996  -52.7921 O.2       15 UNK        -0.5000 
     89 N          -1.7990  -26.2464  -52.1234 N.am      16 UNK        -0.5000 
     90 CA         -1.2509  -26.6710  -53.4141 C.3       16 UNK         0.1400 
     91 CB         -0.5605  -28.0313  -53.2315 C.3       16 UNK        -0.1800 
     92 C          -0.2798  -25.6538  -54.0540 C.2       16 UNK         0.5000 
     93 O          -0.0532  -25.7218  -55.2625 O.2       16 UNK        -0.5000 
     94 N           0.2498  -24.7132  -53.2553 N.am      17 UNK        -0.5000 
     95 CA          1.0230  -23.5572  -53.7151 C.3       17 UNK         0.1400 
     96 CB          1.6500  -22.8626  -52.4961 C.3       17 UNK        -0.1800 
     97 C           0.1940  -22.5437  -54.5342 C.2       17 UNK         0.5000 
     98 O           0.7836  -21.7251  -55.2412 O.2       17 UNK        -0.5000 
     99 N          -1.1426  -22.6002  -54.4180 N.am      18 UNK        -0.5000 
    100 CA        -2.1741  -21.8050  -55.0959 C.3       18 UNK         0.1400 
    101 CB        -2.0972  -21.9596  -56.6259 C.3       18 UNK        -0.1800 
    102 C         -2.2207  -20.3209  -54.6900 C.2       18 UNK         0.5000 
    103 O         -3.3162  -19.7842  -54.5146 O.2       18 UNK        -0.5000 
    104 N         -1.0513  -19.6766  -54.5688 N.am      19 UNK        -0.5000 
    105 CA        -0.7939  -18.3166  -54.0678 C.3       19 UNK         0.1400 
    106 CB        -1.0951  -18.2639  -52.5543 C.3       19 UNK        -0.1800 
    107 C         -1.5151  -17.1717  -54.8187 C.2       19 UNK         0.5000 
    108 O         -1.4473  -16.0267  -54.3740 O.2       19 UNK        -0.5000 
    109 N         -2.2175  -17.4983  -55.9145 N.am      20 UNK        -0.5000 
    110 CA        -3.2433  -16.6916  -56.5844 C.3       20 UNK         0.1400 
    111 CB        -2.6173  -15.4635  -57.2784 C.3       20 UNK        -0.1800 
    112 C         -4.4139  -16.3262  -55.6393 C.2       20 UNK         0.5000 
    113 O         -5.0006  -15.2513  -55.7812 O.2       20 UNK        -0.5000 
    114 N         -4.7194  -17.2140  -54.6795 N.am      21 UNK        -0.5000 
    115 CA        -5.6704  -16.9574  -53.5971 C.3       21 UNK         0.1400 
    116 CB        -4.9404  -16.2734  -52.4289 C.3       21 UNK        -0.1800 
    117 C         -6.4071  -18.2127  -53.1018 C.2       21 UNK         0.5000 
    118 O         -7.5275  -18.0771  -52.6076 O.2       21 UNK        -0.5000 
    119 N         -5.7956  -19.4001  -53.2154 N.am      22 UNK        -0.5000 
    120 CA        -6.3455  -20.6560  -52.6693 C.3       22 UNK         0.1400 
    121 C         -7.4830  -21.2954  -53.5188 C.2       22 UNK         0.5000 
    122 N         -7.7601  -20.8209  -54.7272 N.am      22 UNK        -0.7600 
    123 O         -8.1313  -22.2367  -53.0697 O.2       22 UNK        -0.5000 
    124 C124       -5.2504  -21.7095  -52.3451 C.3       23 UNK        -0.0398 
    125 S125       -3.7834  -21.0417  -51.4906 S.3       23 UNK        -0.2404 
    126 C126       -4.3941  -20.7743  -49.7998 C.3       23 UNK        -0.0205 
    127 H127       -3.9436  -12.3550  -53.0316 H         1 UNK         0.0600 
    128 H128       -2.3264  -11.8573  -53.5410 H         1 UNK         0.0600 
    129 H129       -2.9428  -13.4535  -53.9844 H         1 UNK         0.0600 
    130 H130       -4.0068  -12.8982  -50.8734 H         1 UNK         0.3000 
    131 H131       -2.4621  -14.9046  -49.7084 H         1 UNK         0.0600 
    132 H132       -4.1993  -12.7577  -48.3840 H         1 UNK         0.0800 
    133 H133       -3.5332  -14.1037  -47.5151 H         1 UNK         0.0800 
    134 H134       -6.2574  -16.5950  -47.7176 H         1 UNK         0.0800 
    135 H135       -4.9807  -15.8273  -46.8176 H         1 UNK         0.0800 
    136 H136       -5.8304  -18.6087  -48.9356 H         1 UNK         0.1150 
    137 H137       -1.8161  -20.0074  -49.4466 H         1 UNK         0.1150 
    138 H138       -2.5353  -16.1840  -47.6659 H         1 UNK         0.1150 
    139 H139       -0.0260  -18.0446  -49.3918 H         1 UNK         0.0800 
    140 H140       -0.3290  -16.7551  -48.2608 H         1 UNK         0.0800 
    141 H141        1.8817  -20.1671  -48.0668 H         1 UNK         0.0800 
    142 H142        0.3902  -20.3139  -48.9365 H         1 UNK         0.0800 
    143 H143        0.9796  -22.3662  -47.7038 H         1 UNK         0.0600 
    144 H144        1.2451  -20.6246  -45.4061 H         1 UNK         0.3000 
    145 H145        2.0438  -23.3520  -43.1954 H         1 UNK         0.0600 
    146 H146        3.6886  -21.5830  -42.7135 H         1 UNK         0.0600 
    147 H147        3.9749  -22.2094  -44.3297 H         1 UNK         0.0600 
    148 H148        3.1792  -20.6529  -44.1184 H         1 UNK         0.0600 
    149 H149        1.2227  -20.6423  -42.6619 H         1 UNK         0.3000 
    150 H150       -1.7015  -20.5681  -42.1421 H         1 UNK         0.0600 
    151 H151       -2.5789  -22.5173  -40.9303 H         1 UNK         0.0600 
    152 H152       -2.4161  -21.1701  -39.8168 H         1 UNK         0.0600 
    153 H153       -1.2361  -22.4812  -39.7972 H         1 UNK         0.0600 
    154 H154       -0.3927  -19.1257  -41.1697 H         1 UNK         0.3000 
    155 H155        1.6546  -18.9353  -38.4658 H         1 UNK         0.0600 
    156 H156        2.9360  -18.9097  -41.2530 H         1 UNK         0.0600 
    157 H157        3.5435  -19.7730  -39.8473 H         1 UNK         0.0600 
    158 H158        3.5206  -18.0161  -39.8513 H         1 UNK         0.0600 
    159 H159        1.2204  -17.2062  -40.7560 H         1 UNK         0.3000 
    160 H160       -1.9835  -16.0395  -39.7276 H         1 UNK         0.0600 
    161 H161       -0.8793  -13.8439  -39.9581 H         1 UNK         0.0600 
    162 H162        0.7145  -14.5923  -39.8761 H         1 UNK         0.0600 
    163 H163       -0.3463  -14.6123  -38.4715 H         1 UNK         0.0600 
    164 H164       -0.3687  -15.3630  -41.9633 H         1 UNK         0.3000 
    165 H165       -1.4431  -18.0322  -44.1344 H         1 UNK         0.0600 
    166 H166       -1.8806  -15.9863  -45.5217 H         1 UNK         0.0600 
    167 H167       -3.1567  -16.2768  -44.3478 H         1 UNK         0.0600 
    168 H168       -1.9659  -15.0134  -44.0588 H         1 UNK         0.0600 
    169 H169        0.3872  -15.8966  -44.5410 H         1 UNK         0.3000 
    170 H170        3.3215  -17.5461  -43.3752 H         1 UNK         0.0600 
    171 H171        4.0931  -17.0527  -45.6686 H         1 UNK         0.0600 
    172 H172        3.0047  -18.4310  -45.6880 H         1 UNK         0.0600 
    173 H173        2.4317  -16.8532  -46.2207 H         1 UNK         0.0600 
    174 H174        2.6878  -15.0077  -44.6435 H         1 UNK         0.3000 
    175 H175        2.4802  -13.1723  -41.5885 H         1 UNK         0.0600 
    176 H176        4.2668  -11.8919  -42.7256 H         1 UNK         0.0600 
    177 H177        4.9136  -13.4039  -42.1091 H         1 UNK         0.0600 
    178 H178        4.5747  -13.2342  -43.8274 H         1 UNK         0.0600 
    179 H179        2.2918  -12.3751  -44.3282 H         1 UNK         0.3000 
    180 H180       -1.2582  -12.7445  -44.6034 H         1 UNK         0.0600 
    181 H181        0.4977  -10.2515  -44.3362 H         1 UNK         0.0600 
    182 H182       -0.8720  -10.6401  -43.3018 H         1 UNK         0.0600 
    183 H183       -1.1317  -10.3210  -45.0087 H         1 UNK         0.0600 
    184 H184        0.2656  -11.6039  -46.5257 H         1 UNK         0.3000 
    185 H185        1.1173  -12.5191  -48.3428 H         1 UNK         0.0600 
    186 H186        1.7833  -15.5163  -48.2449 H         1 UNK         0.0600 
    187 H187        2.2134  -14.3949  -49.5334 H         1 UNK         0.0600 
    188 H188        2.9164  -14.2089  -47.9341 H         1 UNK         0.0600 
    189 H189       -0.3918  -14.8915  -49.1032 H         1 UNK         0.3000 
    190 H190       -1.1747  -21.3202  -45.2086 H         1 UNK         0.3000 
    191 H191       -3.6589  -21.7536  -46.6100 H         1 UNK         0.0600 
    192 H192       -3.4678  -20.3955  -44.4977 H         1 UNK         0.0600 
    193 H193       -3.0922  -21.8698  -43.6010 H         1 UNK         0.0600 
    194 H194       -4.6591  -21.6807  -44.3683 H         1 UNK         0.0600 
    195 H195       -1.5079  -23.8053  -44.5804 H         1 UNK         0.3000 
    196 H196       -3.0731  -26.2187  -44.8894 H         1 UNK         0.0600 
    197 H197       -1.0423  -27.2958  -43.9092 H         1 UNK         0.0600 
    198 H198       -1.5605  -25.9104  -42.9601 H         1 UNK         0.0600 
    199 H199       -0.1652  -25.7741  -44.0251 H         1 UNK         0.0600 
    200 H200       -0.0298  -24.9745  -46.3792 H         1 UNK         0.3000 
    201 H201        0.0304  -27.0732  -48.4140 H         1 UNK         0.0600 
    202 H202        2.1105  -26.2084  -47.3444 H         1 UNK         0.0600 
    203 H203        1.8001  -24.6095  -48.0157 H         1 UNK         0.0600 
    204 H204        2.1269  -25.9671  -49.0843 H         1 UNK         0.0600 
    205 H205       -2.3637  -26.0164  -48.7473 H         1 UNK         0.3000 
    206 H206       -2.6828  -23.7138  -50.3230 H         1 UNK         0.0600 
    207 H207       -4.5195  -24.7679  -49.0588 H         1 UNK         0.0600 
    208 H208       -4.9715  -24.6567  -50.7516 H         1 UNK         0.0600 
    209 H209       -4.4570  -26.2019  -50.0852 H         1 UNK         0.0600 
    210 H210       -1.5233  -26.7919  -51.3206 H         1 UNK         0.3000 
    211 H211       -2.0881  -26.7974  -54.1034 H         1 UNK         0.0600 
    212 H212        0.2733  -27.9674  -52.5311 H         1 UNK         0.0600 
    213 H213       -0.1657  -28.4005  -54.1790 H         1 UNK         0.0600 
    214 H214       -1.2576  -28.7817  -52.8582 H         1 UNK         0.0600 
    215 H215        0.0426  -24.7420  -52.2620 H         1 UNK         0.3000 
    216 H216        1.8276  -23.9203  -54.3575 H         1 UNK         0.0600 
    217 H217        2.2798  -22.0262  -52.8016 H         1 UNK         0.0600 
    218 H218        2.2762  -23.5506  -51.9276 H         1 UNK         0.0600 
    219 H219        0.8871  -22.4704  -51.8219 H         1 UNK         0.0600 
    220 H220       -1.5218  -23.2896  -53.7767 H         1 UNK         0.3000 
    221 H221       -3.1215  -22.2405  -54.7784 H         1 UNK         0.0600 
    222 H222       -1.1856  -21.5259  -57.0376 H         1 UNK         0.0600 
    223 H223       -2.1298  -23.0098  -56.9164 H         1 UNK         0.0600 
    224 H224       -2.9399  -21.4628  -57.1085 H         1 UNK         0.0600 
    225 H225       -0.2230  -20.2204  -54.8000 H         1 UNK         0.3000 
    226 H226        0.2740  -18.1405  -54.2027 H         1 UNK         0.0600 
    227 H227       -0.5499  -19.0386  -52.0151 H         1 UNK         0.0600 
    228 H228       -0.8046  -17.3050  -52.1232 H         1 UNK         0.0600 
    229 H229       -2.1572  -18.4033  -52.3496 H         1 UNK         0.0600 
    230 H230       -2.2004  -18.4732  -56.1771 H         1 UNK         0.3000 
    231 H231       -3.6705  -17.3268  -57.3614 H         1 UNK         0.0600 
    232 H232       -1.7883  -15.7549  -57.9233 H         1 UNK         0.0600 
    233 H233       -2.2429  -14.7359  -56.5579 H         1 UNK         0.0600 
    234 H234       -3.3503  -14.9535  -57.9044 H         1 UNK         0.0600 
    235 H235       -4.1989  -18.0853  -54.6382 H         1 UNK         0.3000 
    236 H236       -6.4461  -16.2786  -53.9582 H         1 UNK         0.0600 
    237 H237       -5.6294  -16.0694  -51.6096 H         1 UNK         0.0600 
    238 H238       -4.1368  -16.8965  -52.0342 H         1 UNK         0.0600 
    239 H239       -4.5079  -15.3214  -52.7344 H         1 UNK         0.0600 
    240 H240       -4.8671  -19.4726  -53.6226 H         1 UNK         0.3000 
    241 H241       -6.8157  -20.4036  -51.7173 H         1 UNK         0.0600 
    242 H242       -8.5012  -21.2369  -55.2690 H         1 UNK         0.3800 
    243 H243       -7.2357  -20.0465  -55.1017 H         1 UNK         0.3800 
    244 H244       -5.6656  -22.5161  -51.7391 H         1 UNK         0.0800 
    245 H245       -4.9000  -22.1789  -53.2646 H         1 UNK         0.0800 
    246 H246       -4.0596  -21.5986  -49.1684 H         1 UNK         0.0800 
    247 H247       -5.4839  -20.7945  -49.7828 H         1 UNK         0.0800 
@<TRIPOS>BOND
     1    1    2 1    
     2    1  127 1    
     3    1  128 1    
     4    1  129 1    
     5    2    3 2    
     6    2    4 am   BACKBONE|DICT|INTERRES
     7    4    5 1    
     8    4  130 1    
     9    5    6 1    
    10    5   65 1    
    11    5  131 1    
    12    6    7 1    
    13    6  132 1    
    14    6  133 1    
    15    7    8 1    
    16    8    9 1    
    17    8  134 1    
    18    8  135 1    
    19    9   10 ar   
    20    9   14 ar   
    21   10   11 ar   
    22   10  136 1    
    23   11   12 ar   
    24   11  126 1    
    25   12   13 ar   
    26   12  137 1    
    27   13   14 ar   
    28   13   15 1    
    29   14  138 1    
    30   15   16 1    
    31   15  139 1    
    32   15  140 1    
    33   16   17 1    
    34   17   18 1    
    35   17  141 1    
    36   17  142 1    
    37   18   19 1    
    38   18   67 1    
    39   18  143 1    
    40   19   20 am   BACKBONE|DICT|INTERRES
    41   19  144 1    
    42   20   21 2    
    43   20   22 1    
    44   22   23 1    
    45   22   24 1    
    46   22  145 1    
    47   23  146 1    
    48   23  147 1    
    49   23  148 1    
    50   24   25 am   BACKBONE|DICT|INTERRES
    51   24  149 1    
    52   25   26 2    
    53   25   27 1    
    54   27   28 1    
    55   27   29 1    
    56   27  150 1    
    57   28  151 1    
    58   28  152 1    
    59   28  153 1    
    60   29   30 am   BACKBONE|DICT|INTERRES
    61   29  154 1    
    62   30   31 2    
    63   30   32 1    
    64   32   33 1    
    65   32   34 1    
    66   32  155 1    
    67   33  156 1    
    68   33  157 1    
    69   33  158 1    
    70   34   35 am   BACKBONE|DICT|INTERRES
    71   34  159 1    
    72   35   36 2    
    73   35   37 1    
    74   37   38 1    
    75   37   39 1    
    76   37  160 1    
    77   38  161 1    
    78   38  162 1    
    79   38  163 1    
    80   39   40 am   BACKBONE|DICT|INTERRES
    81   39  164 1    
    82   40   41 2    
    83   40   42 1    
    84   42   43 1    
    85   42   44 1    
    86   42  165 1    
    87   43  166 1    
    88   43  167 1    
    89   43  168 1    
    90   44   45 am   BACKBONE|DICT|INTERRES
    91   44  169 1    
    92   45   46 2    
    93   45   47 1    
    94   47   48 1    
    95   47   49 1    
    96   47  170 1    
    97   48  171 1    
    98   48  172 1    
    99   48  173 1    
   100   49   50 am   BACKBONE|DICT|INTERRES
   101   49  174 1    
   102   50   51 2    
   103   50   52 1    
   104   52   53 1    
   105   52   54 1    
   106   52  175 1    
   107   53  176 1    
   108   53  177 1    
   109   53  178 1    
   110   54   55 am   BACKBONE|DICT|INTERRES
   111   54  179 1    
   112   55   56 2    
   113   55   57 1    
   114   57   58 1    
   115   57   59 1    
   116   57  180 1    
   117   58  181 1    
   118   58  182 1    
   119   58  183 1    
   120   59   60 am   BACKBONE|DICT|INTERRES
   121   59  184 1    
   122   60   61 2    
   123   60   62 1    
   124   62   63 1    
   125   62   64 1    
   126   62  185 1    
   127   63  186 1    
   128   63  187 1    
   129   63  188 1    
   130   64   65 am   BACKBONE|DICT|INTERRES
   131   64  189 1    
   132   65   66 2    
   133   67   68 2    
   134   67   69 am   BACKBONE|DICT|INTERRES
   135   69   70 1    
   136   69  190 1    
   137   70   71 1    
   138   70   72 1    
   139   70  191 1    
   140   71  192 1    
   141   71  193 1    
   142   71  194 1    
   143   72   73 2    
   144   72   74 am   BACKBONE|DICT|INTERRES
   145   74   75 1    
   146   74  195 1    
   147   75   76 1    
   148   75   77 1    
   149   75  196 1    
   150   76  197 1    
   151   76  198 1    
   152   76  199 1    
   153   77   78 2    
   154   77   79 am   BACKBONE|DICT|INTERRES
   155   79   80 1    
   156   79  200 1    
   157   80   81 1    
   158   80   82 1    
   159   80  201 1    
   160   81  202 1    
   161   81  203 1    
   162   81  204 1    
   163   82   83 2    
   164   82   84 am   BACKBONE|DICT|INTERRES
   165   84   85 1    
   166   84  205 1    
   167   85   86 1    
   168   85   87 1    
   169   85  206 1    
   170   86  207 1    
   171   86  208 1    
   172   86  209 1    
   173   87   88 2    
   174   87   89 am   BACKBONE|DICT|INTERRES
   175   89   90 1    
   176   89  210 1    
   177   90   91 1    
   178   90   92 1    
   179   90  211 1    
   180   91  212 1    
   181   91  213 1    
   182   91  214 1    
   183   92   93 2    
   184   92   94 am   BACKBONE|DICT|INTERRES
   185   94   95 1    
   186   94  215 1    
   187   95   96 1    
   188   95   97 1    
   189   95  216 1    
   190   96  217 1    
   191   96  218 1    
   192   96  219 1    
   193   97   98 2    
   194   97   99 am   BACKBONE|DICT|INTERRES
   195   99  100 1    
   196   99  220 1    
   197  100  101 1    
   198  100  102 1    
   199  100  221 1    
   200  101  222 1    
   201  101  223 1    
   202  101  224 1    
   203  102  103 2    
   204  102  104 am   BACKBONE|DICT|INTERRES
   205  104  105 1    
   206  104  225 1    
   207  105  106 1    
   208  105  107 1    
   209  105  226 1    
   210  106  227 1    
   211  106  228 1    
   212  106  229 1    
   213  107  108 2    
   214  107  109 am   BACKBONE|DICT|INTERRES
   215  109  110 1    
   216  109  230 1    
   217  110  111 1    
   218  110  112 1    
   219  110  231 1    
   220  111  232 1    
   221  111  233 1    
   222  111  234 1    
   223  112  113 2    
   224  112  114 am   BACKBONE|DICT|INTERRES
   225  114  115 1    
   226  114  235 1    
   227  115  116 1    
   228  115  117 1    
   229  115  236 1    
   230  116  237 1    
   231  116  238 1    
   232  116  239 1    
   233  117  118 2    
   234  117  119 am   BACKBONE|DICT|INTERRES
   235  119  120 1    
   236  119  240 1    
   237  120  121 1    
   238  120  124 1    
   239  120  241 1    
   240  121  122 am   BACKBONE|DICT|INTERRES
   241  121  123 2    
   242  122  242 1    
   243  122  243 1    
   244  124  125 1    
   245  124  244 1    
   246  124  245 1    
   247  125  126 1    
   248  126  246 1    
   249  126  247 1    
@<TRIPOS>SUBSTRUCTURE
     1 UNK         1 GROUP             0       ****    0 ROOT    
