@<TRIPOS>MOLECULE
3R540
247   249    1
SMALL
USER_CHARGES


@<TRIPOS>ATOM
      1 CA          6.6300  -14.5793  -50.1746 C.3       0 UNK        -0.1800 
      2 C           6.1067  -14.5330  -48.7460 C.2       0 UNK         0.5000 
      3 O           6.8726  -14.7426  -47.8054 O.2       0 UNK        -0.5000 
      4 N           4.8065  -14.2580  -48.5813 N.am      1 UNK        -0.5000 
      5 CA          4.1236  -14.1887  -47.2825 C.3       1 UNK         0.1400 
      6 C6          2.5860  -14.2851  -47.4325 C.3       23 UNK        -0.0398 
      7 S7          2.0489  -15.9102  -48.0536 S.3       23 UNK        -0.2404 
      8 C8          1.3340  -15.4944  -49.6744 C.3       23 UNK        -0.0205 
      9 C9          0.2564  -16.4955  -50.0578 C.ar      23 UNK        -0.0193 
     10 C10        -1.0867  -16.1121  -50.0808 C.ar      23 UNK        -0.1150 
     11 C11        -2.0805  -17.0325  -50.4217 C.ar      23 UNK        -0.0193 
     12 C12        -1.7252  -18.3531  -50.7104 C.ar      23 UNK        -0.1150 
     13 C13        -0.3867  -18.7571  -50.6813 C.ar      23 UNK        -0.0193 
     14 C14         0.6006  -17.8106  -50.3793 C.ar      23 UNK        -0.1150 
     15 C15        -0.0407  -20.2163  -50.9811 C.3       23 UNK        -0.0205 
     16 S16         1.4323  -20.8515  -50.1016 S.3       23 UNK        -0.2404 
     17 C17         0.9717  -20.5758  -48.3552 C.3       23 UNK        -0.0398 
     18 CA          0.7099  -21.8799  -47.5689 C.3       11 UNK         0.1400 
     19 N           0.6714  -21.6358  -46.1262 N.am      11 UNK        -0.5000 
     20 C           0.6012  -22.5847  -45.1827 C.2       10 UNK         0.5000 
     21 O           0.6281  -23.7918  -45.4209 O.2       10 UNK        -0.5000 
     22 CA          0.4116  -22.1031  -43.7331 C.3       10 UNK         0.1400 
     23 CB          1.7506  -21.6715  -43.1175 C.3       10 UNK        -0.1800 
     24 N          -0.5595  -21.0116  -43.6315 N.am      10 UNK        -0.5000 
     25 C          -1.8591  -21.1298  -43.9409 C.2       9 UNK         0.5000 
     26 O          -2.3822  -22.1898  -44.2845 O.2       9 UNK        -0.5000 
     27 CA         -2.7093  -19.8467  -43.9039 C.3       9 UNK         0.1400 
     28 CB         -3.1330  -19.5137  -42.4659 C.3       9 UNK        -0.1800 
     29 N          -2.0266  -18.6964  -44.4979 N.am      9 UNK        -0.5000 
     30 C          -1.6707  -18.6023  -45.7873 C.2       8 UNK         0.5000 
     31 O          -1.9255  -19.4631  -46.6282 O.2       8 UNK        -0.5000 
     32 CA         -0.8380  -17.3721  -46.1937 C.3       8 UNK         0.1400 
     33 CB         -1.7293  -16.1453  -46.4331 C.3       8 UNK        -0.1800 
     34 N           0.1937  -17.0503  -45.2064 N.am      8 UNK        -0.5000 
     35 C           1.2266  -17.8541  -44.9140 C.2       7 UNK         0.5000 
     36 O           1.4366  -18.9305  -45.4724 O.2       7 UNK        -0.5000 
     37 CA          2.1436  -17.4125  -43.7620 C.3       7 UNK         0.1400 
     38 CB          3.1861  -16.3927  -44.2406 C.3       7 UNK        -0.1800 
     39 N           1.3804  -16.8599  -42.6435 N.am      7 UNK        -0.5000 
     40 C           0.5910  -17.5912  -41.8433 C.2       6 UNK         0.5000 
     41 O           0.4582  -18.8105  -41.9441 O.2       6 UNK        -0.5000 
     42 CA         -0.2183  -16.8268  -40.7801 C.3       6 UNK         0.1400 
     43 CB          0.6276  -16.5949  -39.5194 C.3       6 UNK        -0.1800 
     44 N          -0.7222  -15.5429  -41.2691 N.am      6 UNK        -0.5000 
     45 C          -1.6207  -15.4031  -42.2545 C.2       5 UNK         0.5000 
     46 O          -2.1481  -16.3494  -42.8366 O.2       5 UNK        -0.5000 
     47 CA         -1.9511  -13.9649  -42.6928 C.3       5 UNK         0.1400 
     48 CB         -3.1335  -13.4123  -41.8836 C.3       5 UNK        -0.1800 
     49 N          -0.8103  -13.0533  -42.5714 N.am      5 UNK        -0.5000 
     50 C           0.3156  -13.1517  -43.2891 C.2       4 UNK         0.5000 
     51 O           0.5155  -14.0298  -44.1327 O.2       4 UNK        -0.5000 
     52 CA          1.4131  -12.1191  -42.9851 C.3       4 UNK         0.1400 
     53 CB          2.6522  -12.8017  -42.3855 C.3       4 UNK        -0.1800 
     54 N           1.7816  -11.3924  -44.1987 N.am      4 UNK        -0.5000 
     55 C           1.0525  -10.3911  -44.7158 C.2       3 UNK         0.5000 
     56 O           0.0294   -9.9655  -44.1759 O.2       3 UNK        -0.5000 
     57 CA          1.4994   -9.7684  -46.0591 C.3       3 UNK         0.1400 
     58 CB          1.3353   -8.2339  -46.0784 C.3       3 UNK        -0.1800 
     59 N           2.8404  -10.1609  -46.5063 N.am      3 UNK        -0.5000 
     60 C           4.0248   -9.8689  -45.9461 C.2       2 UNK         0.5000 
     61 O           4.1613   -9.1511  -44.9543 O.2       2 UNK        -0.5000 
     62 CA          5.2560  -10.5326  -46.6083 C.3       2 UNK         0.1400 
     63 CB          6.4804  -10.5933  -45.6713 C.3       2 UNK        -0.1800 
     64 N           4.9595  -11.8653  -47.1586 N.am      2 UNK        -0.5000 
     65 C           4.4775  -12.9202  -46.4800 C.2       1 UNK         0.5000 
     66 O           4.2515  -12.9024  -45.2711 O.2       1 UNK        -0.5000 
     67 C          -0.5612  -22.6058  -48.0553 C.2       11 UNK         0.5000 
     68 O          -0.4481  -23.6083  -48.7582 O.2       11 UNK        -0.5000 
     69 N          -1.7408  -22.1262  -47.6345 N.am      12 UNK        -0.5000 
     70 CA         -3.0395  -22.7349  -47.9257 C.3       12 UNK         0.1400 
     71 CB         -4.1617  -21.8538  -47.3566 C.3       12 UNK        -0.1800 
     72 C          -3.1629  -24.1752  -47.3985 C.2       12 UNK         0.5000 
     73 O          -3.6620  -25.0411  -48.1180 O.2       12 UNK        -0.5000 
     74 N          -2.6770  -24.4126  -46.1724 N.am      13 UNK        -0.5000 
     75 CA         -2.6103  -25.7339  -45.5504 C.3       13 UNK         0.1400 
     76 CB         -2.2076  -25.5940  -44.0746 C.3       13 UNK        -0.1800 
     77 C          -1.6604  -26.6865  -46.2986 C.2       13 UNK         0.5000 
     78 O          -2.0511  -27.8153  -46.5976 O.2       13 UNK        -0.5000 
     79 N          -0.4529  -26.2048  -46.6283 N.am      14 UNK        -0.5000 
     80 CA          0.5629  -26.9397  -47.3882 C.3       14 UNK         0.1400 
     81 CB          1.8699  -26.1329  -47.4090 C.3       14 UNK        -0.1800 
     82 C           0.1164  -27.2867  -48.8214 C.2       14 UNK         0.5000 
     83 O           0.4133  -28.3795  -49.3050 O.2       14 UNK        -0.5000 
     84 N          -0.6182  -26.3659  -49.4578 N.am      15 UNK        -0.5000 
     85 CA         -1.2191  -26.5289  -50.7814 C.3       15 UNK         0.1400 
     86 CB         -1.5280  -25.1378  -51.3568 C.3       15 UNK        -0.1800 
     87 C          -2.4900  -27.4031  -50.7847 C.2       15 UNK         0.5000 
     88 O          -3.0198  -27.6699  -51.8627 O.2       15 UNK        -0.5000 
     89 N          -2.9760  -27.8120  -49.6025 N.am      16 UNK        -0.5000 
     90 CA         -4.1953  -28.5936  -49.3718 C.3       16 UNK         0.1400 
     91 CB         -4.0437  -30.0263  -49.9243 C.3       16 UNK        -0.1800 
     92 C          -5.4561  -27.8679  -49.8865 C.2       16 UNK         0.5000 
     93 O          -6.2629  -28.4506  -50.6124 O.2       16 UNK        -0.5000 
     94 N          -5.5715  -26.5883  -49.5059 N.am      17 UNK        -0.5000 
     95 CA         -6.6362  -25.6289  -49.8158 C.3       17 UNK         0.1400 
     96 CB         -8.0347  -26.1736  -49.4594 C.3       17 UNK        -0.1800 
     97 C          -6.5826  -25.0384  -51.2387 C.2       17 UNK         0.5000 
     98 O          -7.3865  -24.1554  -51.5421 O.2       17 UNK        -0.5000 
     99 N          -5.6141  -25.4478  -52.0719 N.am      18 UNK        -0.5000 
    100 CA        -5.3309  -24.8510  -53.3832 C.3       18 UNK         0.1400 
    101 CB        -4.6635  -25.9011  -54.2879 C.3       18 UNK        -0.1800 
    102 C         -4.4826  -23.5696  -53.2281 C.2       18 UNK         0.5000 
    103 O         -3.3857  -23.4674  -53.7805 O.2       18 UNK        -0.5000 
    104 N         -4.9943  -22.6259  -52.4309 N.am      19 UNK        -0.5000 
    105 CA        -4.3298  -21.4120  -51.9618 C.3       19 UNK         0.1400 
    106 CB        -5.0701  -20.9325  -50.7016 C.3       19 UNK        -0.1800 
    107 C         -4.2364  -20.3153  -53.0419 C.2       19 UNK         0.5000 
    108 O         -4.7431  -19.2120  -52.8405 O.2       19 UNK        -0.5000 
    109 N         -3.5849  -20.6373  -54.1673 N.am      20 UNK        -0.5000 
    110 CA        -3.3432  -19.7768  -55.3289 C.3       20 UNK         0.1400 
    111 CB        -2.3138  -18.6785  -54.9748 C.3       20 UNK        -0.1800 
    112 C         -4.6636  -19.2356  -55.9182 C.2       20 UNK         0.5000 
    113 O         -5.3829  -19.9911  -56.5741 O.2       20 UNK        -0.5000 
    114 N         -4.9669  -17.9609  -55.6529 N.am      21 UNK        -0.5000 
    115 CA        -6.2191  -17.2899  -55.9963 C.3       21 UNK         0.1400 
    116 CB        -6.0197  -16.4631  -57.2803 C.3       21 UNK        -0.1800 
    117 C         -6.7068  -16.4455  -54.8024 C.2       21 UNK         0.5000 
    118 O         -7.2681  -15.3654  -54.9960 O.2       21 UNK        -0.5000 
    119 N         -6.4608  -16.9382  -53.5846 N.am      22 UNK        -0.5000 
    120 CA        -6.7303  -16.2624  -52.3101 C.3       22 UNK         0.1400 
    121 C         -7.1437  -17.2722  -51.1994 C.2       22 UNK         0.5000 
    122 N         -7.0931  -16.8967  -49.9273 N.am      22 UNK        -0.7600 
    123 O         -7.5812  -18.3866  -51.4773 O.2       22 UNK        -0.5000 
    124 C124       -5.5979  -15.2623  -51.9232 C.3       23 UNK        -0.0398 
    125 S125       -3.8942  -15.8928  -52.1339 S.3       23 UNK        -0.2404 
    126 C126       -3.5326  -16.5900  -50.4949 C.3       23 UNK        -0.0205 
    127 H127        7.0490  -15.5625  -50.3886 H         1 UNK         0.0600 
    128 H128        5.8428  -14.3800  -50.9020 H         1 UNK         0.0600 
    129 H129        7.4154  -13.8358  -50.3108 H         1 UNK         0.0600 
    130 H130        4.2247  -14.1143  -49.3940 H         1 UNK         0.3000 
    131 H131        4.4586  -15.0369  -46.6820 H         1 UNK         0.0600 
    132 H132        2.0903  -14.1445  -46.4698 H         1 UNK         0.0800 
    133 H133        2.2117  -13.4874  -48.0753 H         1 UNK         0.0800 
    134 H134        2.1212  -15.4898  -50.4294 H         1 UNK         0.0800 
    135 H135        0.9134  -14.4883  -49.6545 H         1 UNK         0.0800 
    136 H136       -1.3613  -15.0935  -49.8453 H         1 UNK         0.1150 
    137 H137       -2.4957  -19.0647  -50.9658 H         1 UNK         0.1150 
    138 H138        1.6425  -18.0964  -50.3626 H         1 UNK         0.1150 
    139 H139       -0.8865  -20.8595  -50.7325 H         1 UNK         0.0800 
    140 H140        0.1214  -20.3198  -52.0546 H         1 UNK         0.0800 
    141 H141        0.1163  -19.9040  -48.2834 H         1 UNK         0.0800 
    142 H142        1.8033  -20.0365  -47.9001 H         1 UNK         0.0800 
    143 H143        1.5535  -22.5505  -47.7461 H         1 UNK         0.0600 
    144 H144        0.6988  -20.6626  -45.8337 H         1 UNK         0.3000 
    145 H145        0.0286  -22.9446  -43.1522 H         1 UNK         0.0600 
    146 H146        1.6325  -21.4030  -42.0676 H         1 UNK         0.0600 
    147 H147        2.4810  -22.4801  -43.1664 H         1 UNK         0.0600 
    148 H148        2.1762  -20.8125  -43.6359 H         1 UNK         0.0600 
    149 H149       -0.2098  -20.1183  -43.2995 H         1 UNK         0.3000 
    150 H150       -3.6133  -20.0318  -44.4873 H         1 UNK         0.0600 
    151 H151       -3.6647  -20.3506  -42.0117 H         1 UNK         0.0600 
    152 H152       -3.8006  -18.6522  -42.4417 H         1 UNK         0.0600 
    153 H153       -2.2738  -19.2881  -41.8341 H         1 UNK         0.0600 
    154 H154       -1.8347  -17.9130  -43.8794 H         1 UNK         0.3000 
    155 H155       -0.3379  -17.6111  -47.1347 H         1 UNK         0.0600 
    156 H156       -2.4785  -16.3544  -47.1977 H         1 UNK         0.0600 
    157 H157       -1.1403  -15.2953  -46.7789 H         1 UNK         0.0600 
    158 H158       -2.2567  -15.8440  -45.5283 H         1 UNK         0.0600 
    159 H159        0.1075  -16.1677  -44.7181 H         1 UNK         0.3000 
    160 H160        2.6787  -18.2955  -43.4059 H         1 UNK         0.0600 
    161 H161        2.7200  -15.4751  -44.5965 H         1 UNK         0.0600 
    162 H162        3.7771  -16.8002  -45.0616 H         1 UNK         0.0600 
    163 H163        3.8779  -16.1283  -43.4409 H         1 UNK         0.0600 
    164 H164        1.3962  -15.8573  -42.5315 H         1 UNK         0.3000 
    165 H165       -1.0765  -17.4445  -40.5075 H         1 UNK         0.0600 
    166 H166        0.0397  -16.1242  -38.7312 H         1 UNK         0.0600 
    167 H167        1.0031  -17.5393  -39.1230 H         1 UNK         0.0600 
    168 H168        1.4895  -15.9580  -39.7222 H         1 UNK         0.0600 
    169 H169       -0.3439  -14.7104  -40.8424 H         1 UNK         0.3000 
    170 H170       -2.2433  -13.9997  -43.7444 H         1 UNK         0.0600 
    171 H171       -4.0052  -14.0620  -41.9740 H         1 UNK         0.0600 
    172 H172       -2.8938  -13.3302  -40.8228 H         1 UNK         0.0600 
    173 H173       -3.4279  -12.4249  -42.2396 H         1 UNK         0.0600 
    174 H174       -0.9060  -12.2972  -41.9087 H         1 UNK         0.3000 
    175 H175        1.0430  -11.4040  -42.2471 H         1 UNK         0.0600 
    176 H176        3.0492  -13.5751  -43.0424 H         1 UNK         0.0600 
    177 H177        3.4489  -12.0810  -42.2002 H         1 UNK         0.0600 
    178 H178        2.4128  -13.2758  -41.4330 H         1 UNK         0.0600 
    179 H179        2.6036  -11.7254  -44.6890 H         1 UNK         0.3000 
    180 H180        0.8146  -10.1731  -46.8055 H         1 UNK         0.0600 
    181 H181        1.9226   -7.7521  -45.2964 H         1 UNK         0.0600 
    182 H182        0.2941   -7.9489  -45.9232 H         1 UNK         0.0600 
    183 H183        1.6434   -7.8155  -47.0366 H         1 UNK         0.0600 
    184 H184        2.8591  -10.7594  -47.3193 H         1 UNK         0.3000 
    185 H185        5.5211   -9.9000  -47.4565 H         1 UNK         0.0600 
    186 H186        6.7931   -9.5929  -45.3700 H         1 UNK         0.0600 
    187 H187        6.2679  -11.1568  -44.7623 H         1 UNK         0.0600 
    188 H188        7.3310  -11.0629  -46.1652 H         1 UNK         0.0600 
    189 H189        5.1103  -11.9758  -48.1516 H         1 UNK         0.3000 
    190 H190       -1.7570  -21.2650  -47.0926 H         1 UNK         0.3000 
    191 H191       -3.1462  -22.7719  -49.0113 H         1 UNK         0.0600 
    192 H192       -4.0951  -21.7635  -46.2730 H         1 UNK         0.0600 
    193 H193       -5.1427  -22.2708  -47.5874 H         1 UNK         0.0600 
    194 H194       -4.1256  -20.8480  -47.7750 H         1 UNK         0.0600 
    195 H195       -2.3345  -23.6297  -45.6228 H         1 UNK         0.3000 
    196 H196       -3.6115  -26.1685  -45.5859 H         1 UNK         0.0600 
    197 H197       -2.1750  -26.5679  -43.5848 H         1 UNK         0.0600 
    198 H198       -2.9230  -24.9785  -43.5289 H         1 UNK         0.0600 
    199 H199       -1.2241  -25.1374  -43.9639 H         1 UNK         0.0600 
    200 H200       -0.1974  -25.2695  -46.3211 H         1 UNK         0.3000 
    201 H201        0.7519  -27.8794  -46.8652 H         1 UNK         0.0600 
    202 H202        2.2398  -25.9563  -46.3989 H         1 UNK         0.0600 
    203 H203        1.7358  -25.1633  -47.8897 H         1 UNK         0.0600 
    204 H204        2.6506  -26.6656  -47.9533 H         1 UNK         0.0600 
    205 H205       -0.7477  -25.4584  -49.0164 H         1 UNK         0.3000 
    206 H206       -0.4904  -27.0123  -51.4350 H         1 UNK         0.0600 
    207 H207       -0.6363  -24.5113  -51.3819 H         1 UNK         0.0600 
    208 H208       -1.8939  -25.2140  -52.3805 H         1 UNK         0.0600 
    209 H209       -2.2875  -24.6183  -50.7709 H         1 UNK         0.0600 
    210 H210       -2.4814  -27.5281  -48.7658 H         1 UNK         0.3000 
    211 H211       -4.3076  -28.6706  -48.2893 H         1 UNK         0.0600 
    212 H212       -3.9678  -30.0389  -51.0119 H         1 UNK         0.0600 
    213 H213       -4.9013  -30.6416  -49.6502 H         1 UNK         0.0600 
    214 H214       -3.1546  -30.5108  -49.5206 H         1 UNK         0.0600 
    215 H215       -4.8120  -26.1918  -48.9529 H         1 UNK         0.3000 
    216 H216       -6.4482  -24.7847  -49.1506 H         1 UNK         0.0600 
    217 H217       -8.7840  -25.3828  -49.5113 H         1 UNK         0.0600 
    218 H218       -8.0573  -26.5736  -48.4457 H         1 UNK         0.0600 
    219 H219       -8.3532  -26.9618  -50.1416 H         1 UNK         0.0600 
    220 H220       -4.9764  -26.1669  -51.7574 H         1 UNK         0.3000 
    221 H221       -6.2716  -24.5636  -53.8573 H         1 UNK         0.0600 
    222 H222       -3.6787  -26.1872  -53.9196 H         1 UNK         0.0600 
    223 H223       -5.2698  -26.8041  -54.3604 H         1 UNK         0.0600 
    224 H224       -4.5324  -25.5148  -55.2993 H         1 UNK         0.0600 
    225 H225       -5.9209  -22.7976  -52.0564 H         1 UNK         0.3000 
    226 H226       -3.3091  -21.6704  -51.6722 H         1 UNK         0.0600 
    227 H227       -5.1500  -21.7311  -49.9667 H         1 UNK         0.0600 
    228 H228       -4.5529  -20.0968  -50.2294 H         1 UNK         0.0600 
    229 H229       -6.0836  -20.6038  -50.9337 H         1 UNK         0.0600 
    230 H230       -3.2679  -21.5994  -54.2512 H         1 UNK         0.3000 
    231 H231       -2.8986  -20.4088  -56.0989 H         1 UNK         0.0600 
    232 H232       -1.3628  -19.1214  -54.6790 H         1 UNK         0.0600 
    233 H233       -2.6448  -18.0440  -54.1518 H         1 UNK         0.0600 
    234 H234       -2.1149  -18.0349  -55.8326 H         1 UNK         0.0600 
    235 H235       -4.3410  -17.4367  -55.0560 H         1 UNK         0.3000 
    236 H236       -6.9995  -18.0307  -56.1813 H         1 UNK         0.0600 
    237 H237       -6.9503  -15.9862  -57.5904 H         1 UNK         0.0600 
    238 H238       -5.2760  -15.6781  -57.1386 H         1 UNK         0.0600 
    239 H239       -5.6893  -17.0928  -58.1064 H         1 UNK         0.0600 
    240 H240       -5.9976  -17.8386  -53.4835 H         1 UNK         0.3000 
    241 H241       -7.6382  -15.6723  -52.4466 H         1 UNK         0.0600 
    242 H242       -7.3917  -17.5508  -49.2212 H         1 UNK         0.3800 
    243 H243       -6.7951  -15.9756  -49.6506 H         1 UNK         0.3800 
    244 H244       -5.7243  -14.8619  -50.9175 H         1 UNK         0.0800 
    245 H245       -5.6796  -14.3925  -52.5761 H         1 UNK         0.0800 
    246 H246       -4.1955  -17.4355  -50.3049 H         1 UNK         0.0800 
    247 H247       -3.7361  -15.8483  -49.7214 H         1 UNK         0.0800 
@<TRIPOS>BOND
     1    1    2 1    
     2    1  127 1    
     3    1  128 1    
     4    1  129 1    
     5    2    3 2    
     6    2    4 am   BACKBONE|DICT|INTERRES
     7    4    5 1    
     8    4  130 1    
     9    5    6 1    
    10    5   65 1    
    11    5  131 1    
    12    6    7 1    
    13    6  132 1    
    14    6  133 1    
    15    7    8 1    
    16    8    9 1    
    17    8  134 1    
    18    8  135 1    
    19    9   10 ar   
    20    9   14 ar   
    21   10   11 ar   
    22   10  136 1    
    23   11   12 ar   
    24   11  126 1    
    25   12   13 ar   
    26   12  137 1    
    27   13   14 ar   
    28   13   15 1    
    29   14  138 1    
    30   15   16 1    
    31   15  139 1    
    32   15  140 1    
    33   16   17 1    
    34   17   18 1    
    35   17  141 1    
    36   17  142 1    
    37   18   19 1    
    38   18   67 1    
    39   18  143 1    
    40   19   20 am   BACKBONE|DICT|INTERRES
    41   19  144 1    
    42   20   21 2    
    43   20   22 1    
    44   22   23 1    
    45   22   24 1    
    46   22  145 1    
    47   23  146 1    
    48   23  147 1    
    49   23  148 1    
    50   24   25 am   BACKBONE|DICT|INTERRES
    51   24  149 1    
    52   25   26 2    
    53   25   27 1    
    54   27   28 1    
    55   27   29 1    
    56   27  150 1    
    57   28  151 1    
    58   28  152 1    
    59   28  153 1    
    60   29   30 am   BACKBONE|DICT|INTERRES
    61   29  154 1    
    62   30   31 2    
    63   30   32 1    
    64   32   33 1    
    65   32   34 1    
    66   32  155 1    
    67   33  156 1    
    68   33  157 1    
    69   33  158 1    
    70   34   35 am   BACKBONE|DICT|INTERRES
    71   34  159 1    
    72   35   36 2    
    73   35   37 1    
    74   37   38 1    
    75   37   39 1    
    76   37  160 1    
    77   38  161 1    
    78   38  162 1    
    79   38  163 1    
    80   39   40 am   BACKBONE|DICT|INTERRES
    81   39  164 1    
    82   40   41 2    
    83   40   42 1    
    84   42   43 1    
    85   42   44 1    
    86   42  165 1    
    87   43  166 1    
    88   43  167 1    
    89   43  168 1    
    90   44   45 am   BACKBONE|DICT|INTERRES
    91   44  169 1    
    92   45   46 2    
    93   45   47 1    
    94   47   48 1    
    95   47   49 1    
    96   47  170 1    
    97   48  171 1    
    98   48  172 1    
    99   48  173 1    
   100   49   50 am   BACKBONE|DICT|INTERRES
   101   49  174 1    
   102   50   51 2    
   103   50   52 1    
   104   52   53 1    
   105   52   54 1    
   106   52  175 1    
   107   53  176 1    
   108   53  177 1    
   109   53  178 1    
   110   54   55 am   BACKBONE|DICT|INTERRES
   111   54  179 1    
   112   55   56 2    
   113   55   57 1    
   114   57   58 1    
   115   57   59 1    
   116   57  180 1    
   117   58  181 1    
   118   58  182 1    
   119   58  183 1    
   120   59   60 am   BACKBONE|DICT|INTERRES
   121   59  184 1    
   122   60   61 2    
   123   60   62 1    
   124   62   63 1    
   125   62   64 1    
   126   62  185 1    
   127   63  186 1    
   128   63  187 1    
   129   63  188 1    
   130   64   65 am   BACKBONE|DICT|INTERRES
   131   64  189 1    
   132   65   66 2    
   133   67   68 2    
   134   67   69 am   BACKBONE|DICT|INTERRES
   135   69   70 1    
   136   69  190 1    
   137   70   71 1    
   138   70   72 1    
   139   70  191 1    
   140   71  192 1    
   141   71  193 1    
   142   71  194 1    
   143   72   73 2    
   144   72   74 am   BACKBONE|DICT|INTERRES
   145   74   75 1    
   146   74  195 1    
   147   75   76 1    
   148   75   77 1    
   149   75  196 1    
   150   76  197 1    
   151   76  198 1    
   152   76  199 1    
   153   77   78 2    
   154   77   79 am   BACKBONE|DICT|INTERRES
   155   79   80 1    
   156   79  200 1    
   157   80   81 1    
   158   80   82 1    
   159   80  201 1    
   160   81  202 1    
   161   81  203 1    
   162   81  204 1    
   163   82   83 2    
   164   82   84 am   BACKBONE|DICT|INTERRES
   165   84   85 1    
   166   84  205 1    
   167   85   86 1    
   168   85   87 1    
   169   85  206 1    
   170   86  207 1    
   171   86  208 1    
   172   86  209 1    
   173   87   88 2    
   174   87   89 am   BACKBONE|DICT|INTERRES
   175   89   90 1    
   176   89  210 1    
   177   90   91 1    
   178   90   92 1    
   179   90  211 1    
   180   91  212 1    
   181   91  213 1    
   182   91  214 1    
   183   92   93 2    
   184   92   94 am   BACKBONE|DICT|INTERRES
   185   94   95 1    
   186   94  215 1    
   187   95   96 1    
   188   95   97 1    
   189   95  216 1    
   190   96  217 1    
   191   96  218 1    
   192   96  219 1    
   193   97   98 2    
   194   97   99 am   BACKBONE|DICT|INTERRES
   195   99  100 1    
   196   99  220 1    
   197  100  101 1    
   198  100  102 1    
   199  100  221 1    
   200  101  222 1    
   201  101  223 1    
   202  101  224 1    
   203  102  103 2    
   204  102  104 am   BACKBONE|DICT|INTERRES
   205  104  105 1    
   206  104  225 1    
   207  105  106 1    
   208  105  107 1    
   209  105  226 1    
   210  106  227 1    
   211  106  228 1    
   212  106  229 1    
   213  107  108 2    
   214  107  109 am   BACKBONE|DICT|INTERRES
   215  109  110 1    
   216  109  230 1    
   217  110  111 1    
   218  110  112 1    
   219  110  231 1    
   220  111  232 1    
   221  111  233 1    
   222  111  234 1    
   223  112  113 2    
   224  112  114 am   BACKBONE|DICT|INTERRES
   225  114  115 1    
   226  114  235 1    
   227  115  116 1    
   228  115  117 1    
   229  115  236 1    
   230  116  237 1    
   231  116  238 1    
   232  116  239 1    
   233  117  118 2    
   234  117  119 am   BACKBONE|DICT|INTERRES
   235  119  120 1    
   236  119  240 1    
   237  120  121 1    
   238  120  124 1    
   239  120  241 1    
   240  121  122 am   BACKBONE|DICT|INTERRES
   241  121  123 2    
   242  122  242 1    
   243  122  243 1    
   244  124  125 1    
   245  124  244 1    
   246  124  245 1    
   247  125  126 1    
   248  126  246 1    
   249  126  247 1    
@<TRIPOS>SUBSTRUCTURE
     1 UNK         1 GROUP             0       ****    0 ROOT    
