@<TRIPOS>MOLECULE
3R540
247   249    1
SMALL
USER_CHARGES


@<TRIPOS>ATOM
      1 CA         -0.9397  -11.7200  -48.9911 C.3       0 UNK        -0.1800 
      2 C           0.5558  -11.8866  -49.2218 C.2       0 UNK         0.5000 
      3 O           1.0825  -11.3967  -50.2207 O.2       0 UNK        -0.5000 
      4 N           1.2369  -12.5741  -48.3032 N.am      1 UNK        -0.5000 
      5 CA          2.6657  -12.8813  -48.3303 C.3       1 UNK         0.1400 
      6 C6          3.0576  -13.8740  -49.4625 C.3       23 UNK        -0.0398 
      7 S7          2.1805  -15.4753  -49.3821 S.3       23 UNK        -0.2404 
      8 C8          1.3348  -15.5136  -50.9935 C.3       23 UNK        -0.0205 
      9 C9          0.4252  -16.7274  -51.0822 C.ar      23 UNK        -0.0193 
     10 C10        -0.9637  -16.5769  -51.0869 C.ar      23 UNK        -0.1150 
     11 C11        -1.7976  -17.6990  -51.0745 C.ar      23 UNK        -0.0193 
     12 C12        -1.2313  -18.9764  -51.0485 C.ar      23 UNK        -0.1150 
     13 C13         0.1567  -19.1402  -51.0711 C.ar      23 UNK        -0.0193 
     14 C14         0.9776  -18.0100  -51.1118 C.ar      23 UNK        -0.1150 
     15 C15         0.7657  -20.5355  -51.0071 C.3       23 UNK        -0.0205 
     16 S16         2.0004  -20.7196  -49.6714 S.3       23 UNK        -0.2404 
     17 C17         1.0771  -20.1576  -48.1971 C.3       23 UNK        -0.0398 
     18 CA          0.5127  -21.3198  -47.3511 C.3       11 UNK         0.1400 
     19 N           0.1418  -20.8749  -46.0074 N.am      11 UNK        -0.5000 
     20 C          -0.1608  -21.6925  -44.9904 C.2       10 UNK         0.5000 
     21 O          -0.1191  -22.9201  -45.0608 O.2       10 UNK        -0.5000 
     22 CA         -0.6273  -21.0223  -43.6866 C.3       10 UNK         0.1400 
     23 CB          0.5823  -20.6099  -42.8388 C.3       10 UNK        -0.1800 
     24 N          -1.4838  -19.8580  -43.9254 N.am      10 UNK        -0.5000 
     25 C          -2.6929  -19.9290  -44.5019 C.2       9 UNK         0.5000 
     26 O          -3.2166  -20.9833  -44.8606 O.2       9 UNK        -0.5000 
     27 CA         -3.4215  -18.6011  -44.7670 C.3       9 UNK         0.1400 
     28 CB         -4.0559  -18.0611  -43.4765 C.3       9 UNK        -0.1800 
     29 N          -2.5572  -17.5739  -45.3468 N.am      9 UNK        -0.5000 
     30 C          -1.9045  -17.6652  -46.5157 C.2       8 UNK         0.5000 
     31 O          -1.9497  -18.6528  -47.2480 O.2       8 UNK        -0.5000 
     32 CA         -1.0429  -16.4532  -46.9258 C.3       8 UNK         0.1400 
     33 CB         -1.8268  -15.5329  -47.8721 C.3       8 UNK        -0.1800 
     34 N          -0.5965  -15.6650  -45.7769 N.am      8 UNK        -0.5000 
     35 C           0.2742  -16.0880  -44.8523 C.2       7 UNK         0.5000 
     36 O           0.8981  -17.1489  -44.9476 O.2       7 UNK        -0.5000 
     37 CA          0.4432  -15.1724  -43.6173 C.3       7 UNK         0.1400 
     38 CB         -0.8760  -14.4973  -43.1791 C.3       7 UNK        -0.1800 
     39 N           1.0542  -15.8443  -42.4723 N.am      7 UNK        -0.5000 
     40 C           0.6268  -16.9400  -41.8297 C.2       6 UNK         0.5000 
     41 O          -0.4028  -17.5558  -42.1141 O.2       6 UNK        -0.5000 
     42 CA          1.4943  -17.4001  -40.6471 C.3       6 UNK         0.1400 
     43 CB          2.8204  -18.0053  -41.1385 C.3       6 UNK        -0.1800 
     44 N           1.7938  -16.2690  -39.7698 N.am      6 UNK        -0.5000 
     45 C           1.3256  -16.1091  -38.5253 C.2       5 UNK         0.5000 
     46 O           0.6134  -16.9323  -37.9487 O.2       5 UNK        -0.5000 
     47 CA          1.7189  -14.8102  -37.7895 C.3       5 UNK         0.1400 
     48 CB          2.9318  -15.0571  -36.8792 C.3       5 UNK        -0.1800 
     49 N           2.0250  -13.6983  -38.6919 N.am      5 UNK        -0.5000 
     50 C           1.1291  -13.0735  -39.4680 C.2       4 UNK         0.5000 
     51 O          -0.0785  -13.3117  -39.4396 O.2       4 UNK        -0.5000 
     52 CA          1.6649  -12.0171  -40.4568 C.3       4 UNK         0.1400 
     53 CB          1.3947  -10.6017  -39.9233 C.3       4 UNK        -0.1800 
     54 N           3.0894  -12.1280  -40.8003 N.am      4 UNK        -0.5000 
     55 C           3.6760  -13.1872  -41.3720 C.2       3 UNK         0.5000 
     56 O           3.1220  -14.2766  -41.5346 O.2       3 UNK        -0.5000 
     57 CA          5.1377  -13.0202  -41.8155 C.3       3 UNK         0.1400 
     58 CB          6.0846  -13.6574  -40.7874 C.3       3 UNK        -0.1800 
     59 N           5.3363  -13.6616  -43.1145 N.am      3 UNK        -0.5000 
     60 C           4.8792  -13.1754  -44.2761 C.2       2 UNK         0.5000 
     61 O           4.3982  -12.0451  -44.3928 O.2       2 UNK        -0.5000 
     62 CA          5.0213  -14.1031  -45.5037 C.3       2 UNK         0.1400 
     63 CB          4.5326  -15.5410  -45.2106 C.3       2 UNK        -0.1800 
     64 N           4.3801  -13.5791  -46.7181 N.am      2 UNK        -0.5000 
     65 C           3.0687  -13.3886  -46.9301 C.2       1 UNK         0.5000 
     66 O           2.1903  -13.6097  -46.0910 O.2       1 UNK        -0.5000 
     67 C          -0.6671  -22.0262  -48.0483 C.2       11 UNK         0.5000 
     68 O          -0.4879  -23.1211  -48.5803 O.2       11 UNK        -0.5000 
     69 N          -1.8600  -21.4164  -47.9913 N.am      12 UNK        -0.5000 
     70 CA         -3.1034  -21.9813  -48.5149 C.3       12 UNK         0.1400 
     71 CB         -4.2334  -20.9507  -48.3902 C.3       12 UNK        -0.1800 
     72 C          -3.4914  -23.3040  -47.8311 C.2       12 UNK         0.5000 
     73 O          -3.8978  -24.2392  -48.5204 O.2       12 UNK        -0.5000 
     74 N          -3.3202  -23.3747  -46.5033 N.am      13 UNK        -0.5000 
     75 CA         -3.5265  -24.5811  -45.7026 C.3       13 UNK         0.1400 
     76 CB         -3.4398  -24.2376  -44.2081 C.3       13 UNK        -0.1800 
     77 C          -2.5430  -25.7071  -46.0681 C.2       13 UNK         0.5000 
     78 O          -2.9763  -26.8425  -46.2651 O.2       13 UNK        -0.5000 
     79 N          -1.2511  -25.3709  -46.2014 N.am      14 UNK        -0.5000 
     80 CA         -0.1892  -26.2905  -46.6227 C.3       14 UNK         0.1400 
     81 CB          1.1760  -25.6010  -46.4812 C.3       14 UNK        -0.1800 
     82 C          -0.3844  -26.8218  -48.0558 C.2       14 UNK         0.5000 
     83 O          -0.1126  -27.9947  -48.3139 O.2       14 UNK        -0.5000 
     84 N          -0.8910  -25.9611  -48.9479 N.am      15 UNK        -0.5000 
     85 CA         -1.2694  -26.2929  -50.3215 C.3       15 UNK         0.1400 
     86 CB         -1.3396  -24.9931  -51.1407 C.3       15 UNK        -0.1800 
     87 C          -2.6026  -27.0615  -50.4298 C.2       15 UNK         0.5000 
     88 O          -2.9601  -27.4683  -51.5341 O.2       15 UNK        -0.5000 
     89 N          -3.3385  -27.2137  -49.3174 N.am      16 UNK        -0.5000 
     90 CA         -4.6738  -27.8162  -49.2170 C.3       16 UNK         0.1400 
     91 CB         -4.6054  -29.3365  -49.4695 C.3       16 UNK        -0.1800 
     92 C          -5.7124  -27.0976  -50.1067 C.2       16 UNK         0.5000 
     93 O          -6.5315  -27.7455  -50.7600 O.2       16 UNK        -0.5000 
     94 N          -5.6194  -25.7602  -50.1330 N.am      17 UNK        -0.5000 
     95 CA         -6.4017  -24.8000  -50.9170 C.3       17 UNK         0.1400 
     96 CB         -7.9055  -24.8985  -50.5900 C.3       17 UNK        -0.1800 
     97 C          -6.1342  -24.8266  -52.4374 C.2       17 UNK         0.5000 
     98 O          -6.7682  -24.0593  -53.1619 O.2       17 UNK        -0.5000 
     99 N          -5.1794  -25.6426  -52.9128 N.am      18 UNK        -0.5000 
    100 CA        -4.8180  -25.7498  -54.3332 C.3       18 UNK         0.1400 
    101 CB        -3.9524  -26.9997  -54.5503 C.3       18 UNK        -0.1800 
    102 C         -4.1053  -24.4996  -54.8895 C.2       18 UNK         0.5000 
    103 O         -4.0326  -24.3362  -56.1076 O.2       18 UNK        -0.5000 
    104 N         -3.6019  -23.6392  -53.9938 N.am      19 UNK        -0.5000 
    105 CA        -2.9802  -22.3545  -54.3138 C.3       19 UNK         0.1400 
    106 CB        -2.2037  -21.8625  -53.0826 C.3       19 UNK        -0.1800 
    107 C         -3.9827  -21.2785  -54.7802 C.2       19 UNK         0.5000 
    108 O         -3.5544  -20.2912  -55.3792 O.2       19 UNK        -0.5000 
    109 N         -5.2824  -21.4693  -54.4977 N.am      20 UNK        -0.5000 
    110 CA        -6.3692  -20.5559  -54.8608 C.3       20 UNK         0.1400 
    111 CB        -7.6924  -21.1157  -54.3170 C.3       20 UNK        -0.1800 
    112 C         -6.4654  -20.3287  -56.3893 C.2       20 UNK         0.5000 
    113 O         -6.2226  -21.2674  -57.1486 O.2       20 UNK        -0.5000 
    114 N         -6.8227  -19.1304  -56.8733 N.am      21 UNK        -0.5000 
    115 CA        -7.2464  -17.9311  -56.1406 C.3       21 UNK         0.1400 
    116 CB        -8.1889  -17.1273  -57.0534 C.3       21 UNK        -0.1800 
    117 C         -6.0858  -17.0473  -55.6289 C.2       21 UNK         0.5000 
    118 O         -6.3438  -15.9303  -55.1793 O.2       21 UNK        -0.5000 
    119 N         -4.8434  -17.5467  -55.6930 N.am      22 UNK        -0.5000 
    120 CA        -3.6138  -16.8962  -55.1972 C.3       22 UNK         0.1400 
    121 C         -3.1286  -15.6855  -56.0532 C.2       22 UNK         0.5000 
    122 N         -3.6310  -15.4875  -57.2661 N.am      22 UNK        -0.7600 
    123 O         -2.2601  -14.9273  -55.6301 O.2       22 UNK        -0.5000 
    124 C124       -3.6495  -16.5674  -53.6751 C.3       23 UNK        -0.0398 
    125 S125       -4.0780  -18.0034  -52.6293 S.3       23 UNK        -0.2404 
    126 C126       -3.3099  -17.5359  -51.0478 C.3       23 UNK        -0.0205 
    127 H127       -1.4981  -12.2137  -49.7864 H         1 UNK         0.0600 
    128 H128       -1.2051  -10.6628  -48.9909 H         1 UNK         0.0600 
    129 H129       -1.2532  -12.1490  -48.0390 H         1 UNK         0.0600 
    130 H130        0.7810  -12.9341  -47.4733 H         1 UNK         0.3000 
    131 H131        3.2013  -11.9434  -48.4899 H         1 UNK         0.0600 
    132 H132        4.1296  -14.0743  -49.4454 H         1 UNK         0.0800 
    133 H133        2.8750  -13.4110  -50.4326 H         1 UNK         0.0800 
    134 H134        2.0730  -15.5484  -51.7960 H         1 UNK         0.0800 
    135 H135        0.7645  -14.5927  -51.1258 H         1 UNK         0.0800 
    136 H136       -1.3959  -15.5863  -51.0722 H         1 UNK         0.1150 
    137 H137       -1.8776  -19.8407  -51.0030 H         1 UNK         0.1150 
    138 H138        2.0522  -18.1273  -51.1074 H         1 UNK         0.1150 
    139 H139       -0.0104  -21.2907  -50.8746 H         1 UNK         0.0800 
    140 H140        1.2442  -20.7538  -51.9625 H         1 UNK         0.0800 
    141 H141        0.2930  -19.4507  -48.4676 H         1 UNK         0.0800 
    142 H142        1.7835  -19.5831  -47.5960 H         1 UNK         0.0800 
    143 H143        1.3070  -22.0595  -47.2281 H         1 UNK         0.0600 
    144 H144        0.0477  -19.8793  -45.8654 H         1 UNK         0.3000 
    145 H145       -1.2047  -21.7574  -43.1223 H         1 UNK         0.0600 
    146 H146        0.2704  -20.2324  -41.8651 H         1 UNK         0.0600 
    147 H147        1.2457  -21.4572  -42.6606 H         1 UNK         0.0600 
    148 H148        1.1642  -19.8323  -43.3347 H         1 UNK         0.0600 
    149 H149       -1.1273  -18.9575  -43.6242 H         1 UNK         0.3000 
    150 H150       -4.2210  -18.8010  -45.4833 H         1 UNK         0.0600 
    151 H151       -4.7147  -18.8039  -43.0248 H         1 UNK         0.0600 
    152 H152       -4.6564  -17.1728  -43.6737 H         1 UNK         0.0600 
    153 H153       -3.3001  -17.7977  -42.7351 H         1 UNK         0.0600 
    154 H154       -2.4432  -16.7296  -44.8076 H         1 UNK         0.3000 
    155 H155       -0.1671  -16.8334  -47.4565 H         1 UNK         0.0600 
    156 H156       -1.1696  -14.7974  -48.3364 H         1 UNK         0.0600 
    157 H157       -2.6228  -14.9985  -47.3525 H         1 UNK         0.0600 
    158 H158       -2.2946  -16.1034  -48.6728 H         1 UNK         0.0600 
    159 H159       -1.0459  -14.7716  -45.6429 H         1 UNK         0.3000 
    160 H160        1.1428  -14.3860  -43.8979 H         1 UNK         0.0600 
    161 H161       -1.6610  -15.2293  -42.9855 H         1 UNK         0.0600 
    162 H162       -1.2443  -13.8032  -43.9348 H         1 UNK         0.0600 
    163 H163       -0.7336  -13.9191  -42.2658 H         1 UNK         0.0600 
    164 H164        1.9162  -15.4086  -42.1513 H         1 UNK         0.3000 
    165 H165        0.9435  -18.1754  -40.1106 H         1 UNK         0.0600 
    166 H166        3.4234  -17.2766  -41.6820 H         1 UNK         0.0600 
    167 H167        3.4161  -18.3709  -40.3020 H         1 UNK         0.0600 
    168 H168        2.6482  -18.8494  -41.8048 H         1 UNK         0.0600 
    169 H169        2.3369  -15.5171  -40.1803 H         1 UNK         0.3000 
    170 H170        0.8739  -14.5176  -37.1628 H         1 UNK         0.0600 
    171 H171        2.7319  -15.8632  -36.1719 H         1 UNK         0.0600 
    172 H172        3.8159  -15.3364  -37.4540 H         1 UNK         0.0600 
    173 H173        3.1758  -14.1686  -36.2965 H         1 UNK         0.0600 
    174 H174        2.9950  -13.4330  -38.7758 H         1 UNK         0.3000 
    175 H175        1.1018  -12.1427  -41.3839 H         1 UNK         0.0600 
    176 H176        1.9628  -10.4006  -39.0141 H         1 UNK         0.0600 
    177 H177        1.6593   -9.8436  -40.6608 H         1 UNK         0.0600 
    178 H178        0.3383  -10.4658  -39.6870 H         1 UNK         0.0600 
    179 H179        3.6339  -11.2859  -40.6801 H         1 UNK         0.3000 
    180 H180        5.3745  -11.9576  -41.9021 H         1 UNK         0.0600 
    181 H181        5.8858  -14.7226  -40.6602 H         1 UNK         0.0600 
    182 H182        5.9757  -13.1845  -39.8105 H         1 UNK         0.0600 
    183 H183        7.1264  -13.5442  -41.0879 H         1 UNK         0.0600 
    184 H184        5.7018  -14.6020  -43.0927 H         1 UNK         0.3000 
    185 H185        6.0876  -14.1532  -45.7287 H         1 UNK         0.0600 
    186 H186        4.5501  -16.1553  -46.1110 H         1 UNK         0.0600 
    187 H187        5.1668  -16.0371  -44.4757 H         1 UNK         0.0600 
    188 H188        3.5139  -15.5534  -44.8208 H         1 UNK         0.0600 
    189 H189        5.0221  -13.3232  -47.4547 H         1 UNK         0.3000 
    190 H190       -1.9225  -20.4930  -47.5682 H         1 UNK         0.3000 
    191 H191       -2.9492  -22.1890  -49.5756 H         1 UNK         0.0600 
    192 H192       -4.4269  -20.6882  -47.3498 H         1 UNK         0.0600 
    193 H193       -5.1625  -21.3352  -48.8128 H         1 UNK         0.0600 
    194 H194       -3.9870  -20.0339  -48.9232 H         1 UNK         0.0600 
    195 H195       -3.0417  -22.5366  -46.0006 H         1 UNK         0.3000 
    196 H196       -4.5360  -24.9444  -45.9062 H         1 UNK         0.0600 
    197 H197       -3.6108  -25.1221  -43.5934 H         1 UNK         0.0600 
    198 H198       -4.1910  -23.4982  -43.9304 H         1 UNK         0.0600 
    199 H199       -2.4622  -23.8361  -43.9415 H         1 UNK         0.0600 
    200 H200       -0.9647  -24.4198  -45.9867 H         1 UNK         0.3000 
    201 H201       -0.2072  -27.1488  -45.9480 H         1 UNK         0.0600 
    202 H202        1.3610  -25.3021  -45.4493 H         1 UNK         0.0600 
    203 H203        1.2430  -24.7089  -47.1046 H         1 UNK         0.0600 
    204 H204        1.9853  -26.2701  -46.7759 H         1 UNK         0.0600 
    205 H205       -1.0091  -24.9902  -48.6706 H         1 UNK         0.3000 
    206 H206       -0.4923  -26.9267  -50.7532 H         1 UNK         0.0600 
    207 H207       -0.3908  -24.4570  -51.1119 H         1 UNK         0.0600 
    208 H208       -1.5629  -25.1983  -52.1884 H         1 UNK         0.0600 
    209 H209       -2.1127  -24.3231  -50.7634 H         1 UNK         0.0600 
    210 H210       -2.9746  -26.8303  -48.4537 H         1 UNK         0.3000 
    211 H211       -4.9999  -27.6664  -48.1868 H         1 UNK         0.0600 
    212 H212       -4.3334  -29.5655  -50.5003 H         1 UNK         0.0600 
    213 H213       -5.5685  -29.8087  -49.2729 H         1 UNK         0.0600 
    214 H214       -3.8729  -29.8105  -48.8161 H         1 UNK         0.0600 
    215 H215       -4.9025  -25.3318  -49.5472 H         1 UNK         0.3000 
    216 H216       -6.0648  -23.8181  -50.5813 H         1 UNK         0.0600 
    217 H217       -8.0794  -24.8524  -49.5150 H         1 UNK         0.0600 
    218 H218       -8.3441  -25.8240  -50.9634 H         1 UNK         0.0600 
    219 H219       -8.4581  -24.0740  -51.0420 H         1 UNK         0.0600 
    220 H220       -4.6835  -26.2518  -52.2731 H         1 UNK         0.3000 
    221 H221       -5.7411  -25.8777  -54.9024 H         1 UNK         0.0600 
    222 H222       -2.9694  -26.8920  -54.0911 H         1 UNK         0.0600 
    223 H223       -4.4251  -27.8893  -54.1334 H         1 UNK         0.0600 
    224 H224       -3.7945  -27.1828  -55.6138 H         1 UNK         0.0600 
    225 H225       -3.7025  -23.8651  -53.0163 H         1 UNK         0.3000 
    226 H226       -2.2681  -22.5098  -55.1270 H         1 UNK         0.0600 
    227 H227       -1.4183  -22.5641  -52.8030 H         1 UNK         0.0600 
    228 H228       -1.7216  -20.9050  -53.2851 H         1 UNK         0.0600 
    229 H229       -2.8594  -21.7257  -52.2220 H         1 UNK         0.0600 
    230 H230       -5.5586  -22.3315  -54.0466 H         1 UNK         0.3000 
    231 H231       -6.1600  -19.6164  -54.3514 H         1 UNK         0.0600 
    232 H232       -8.5242  -20.4436  -54.5292 H         1 UNK         0.0600 
    233 H233       -7.6507  -21.2494  -53.2358 H         1 UNK         0.0600 
    234 H234       -7.9312  -22.0816  -54.7642 H         1 UNK         0.0600 
    235 H235       -6.8422  -19.0311  -57.8776 H         1 UNK         0.3000 
    236 H236       -7.8252  -18.2315  -55.2661 H         1 UNK         0.0600 
    237 H237       -9.0315  -17.7351  -57.3841 H         1 UNK         0.0600 
    238 H238       -8.6045  -16.2633  -56.5331 H         1 UNK         0.0600 
    239 H239       -7.6721  -16.7590  -57.9405 H         1 UNK         0.0600 
    240 H240       -4.7039  -18.4773  -56.0645 H         1 UNK         0.3000 
    241 H241       -2.8308  -17.6428  -55.3323 H         1 UNK         0.0600 
    242 H242       -4.3358  -16.1053  -57.6351 H         1 UNK         0.3800 
    243 H243       -3.3053  -14.7094  -57.8181 H         1 UNK         0.3800 
    244 H244       -2.6738  -16.1967  -53.3594 H         1 UNK         0.0800 
    245 H245       -4.3560  -15.7634  -53.4666 H         1 UNK         0.0800 
    246 H246       -3.5898  -16.5109  -50.8002 H         1 UNK         0.0800 
    247 H247       -3.7218  -18.1606  -50.2558 H         1 UNK         0.0800 
@<TRIPOS>BOND
     1    1    2 1    
     2    1  127 1    
     3    1  128 1    
     4    1  129 1    
     5    2    3 2    
     6    2    4 am   BACKBONE|DICT|INTERRES
     7    4    5 1    
     8    4  130 1    
     9    5    6 1    
    10    5   65 1    
    11    5  131 1    
    12    6    7 1    
    13    6  132 1    
    14    6  133 1    
    15    7    8 1    
    16    8    9 1    
    17    8  134 1    
    18    8  135 1    
    19    9   10 ar   
    20    9   14 ar   
    21   10   11 ar   
    22   10  136 1    
    23   11   12 ar   
    24   11  126 1    
    25   12   13 ar   
    26   12  137 1    
    27   13   14 ar   
    28   13   15 1    
    29   14  138 1    
    30   15   16 1    
    31   15  139 1    
    32   15  140 1    
    33   16   17 1    
    34   17   18 1    
    35   17  141 1    
    36   17  142 1    
    37   18   19 1    
    38   18   67 1    
    39   18  143 1    
    40   19   20 am   BACKBONE|DICT|INTERRES
    41   19  144 1    
    42   20   21 2    
    43   20   22 1    
    44   22   23 1    
    45   22   24 1    
    46   22  145 1    
    47   23  146 1    
    48   23  147 1    
    49   23  148 1    
    50   24   25 am   BACKBONE|DICT|INTERRES
    51   24  149 1    
    52   25   26 2    
    53   25   27 1    
    54   27   28 1    
    55   27   29 1    
    56   27  150 1    
    57   28  151 1    
    58   28  152 1    
    59   28  153 1    
    60   29   30 am   BACKBONE|DICT|INTERRES
    61   29  154 1    
    62   30   31 2    
    63   30   32 1    
    64   32   33 1    
    65   32   34 1    
    66   32  155 1    
    67   33  156 1    
    68   33  157 1    
    69   33  158 1    
    70   34   35 am   BACKBONE|DICT|INTERRES
    71   34  159 1    
    72   35   36 2    
    73   35   37 1    
    74   37   38 1    
    75   37   39 1    
    76   37  160 1    
    77   38  161 1    
    78   38  162 1    
    79   38  163 1    
    80   39   40 am   BACKBONE|DICT|INTERRES
    81   39  164 1    
    82   40   41 2    
    83   40   42 1    
    84   42   43 1    
    85   42   44 1    
    86   42  165 1    
    87   43  166 1    
    88   43  167 1    
    89   43  168 1    
    90   44   45 am   BACKBONE|DICT|INTERRES
    91   44  169 1    
    92   45   46 2    
    93   45   47 1    
    94   47   48 1    
    95   47   49 1    
    96   47  170 1    
    97   48  171 1    
    98   48  172 1    
    99   48  173 1    
   100   49   50 am   BACKBONE|DICT|INTERRES
   101   49  174 1    
   102   50   51 2    
   103   50   52 1    
   104   52   53 1    
   105   52   54 1    
   106   52  175 1    
   107   53  176 1    
   108   53  177 1    
   109   53  178 1    
   110   54   55 am   BACKBONE|DICT|INTERRES
   111   54  179 1    
   112   55   56 2    
   113   55   57 1    
   114   57   58 1    
   115   57   59 1    
   116   57  180 1    
   117   58  181 1    
   118   58  182 1    
   119   58  183 1    
   120   59   60 am   BACKBONE|DICT|INTERRES
   121   59  184 1    
   122   60   61 2    
   123   60   62 1    
   124   62   63 1    
   125   62   64 1    
   126   62  185 1    
   127   63  186 1    
   128   63  187 1    
   129   63  188 1    
   130   64   65 am   BACKBONE|DICT|INTERRES
   131   64  189 1    
   132   65   66 2    
   133   67   68 2    
   134   67   69 am   BACKBONE|DICT|INTERRES
   135   69   70 1    
   136   69  190 1    
   137   70   71 1    
   138   70   72 1    
   139   70  191 1    
   140   71  192 1    
   141   71  193 1    
   142   71  194 1    
   143   72   73 2    
   144   72   74 am   BACKBONE|DICT|INTERRES
   145   74   75 1    
   146   74  195 1    
   147   75   76 1    
   148   75   77 1    
   149   75  196 1    
   150   76  197 1    
   151   76  198 1    
   152   76  199 1    
   153   77   78 2    
   154   77   79 am   BACKBONE|DICT|INTERRES
   155   79   80 1    
   156   79  200 1    
   157   80   81 1    
   158   80   82 1    
   159   80  201 1    
   160   81  202 1    
   161   81  203 1    
   162   81  204 1    
   163   82   83 2    
   164   82   84 am   BACKBONE|DICT|INTERRES
   165   84   85 1    
   166   84  205 1    
   167   85   86 1    
   168   85   87 1    
   169   85  206 1    
   170   86  207 1    
   171   86  208 1    
   172   86  209 1    
   173   87   88 2    
   174   87   89 am   BACKBONE|DICT|INTERRES
   175   89   90 1    
   176   89  210 1    
   177   90   91 1    
   178   90   92 1    
   179   90  211 1    
   180   91  212 1    
   181   91  213 1    
   182   91  214 1    
   183   92   93 2    
   184   92   94 am   BACKBONE|DICT|INTERRES
   185   94   95 1    
   186   94  215 1    
   187   95   96 1    
   188   95   97 1    
   189   95  216 1    
   190   96  217 1    
   191   96  218 1    
   192   96  219 1    
   193   97   98 2    
   194   97   99 am   BACKBONE|DICT|INTERRES
   195   99  100 1    
   196   99  220 1    
   197  100  101 1    
   198  100  102 1    
   199  100  221 1    
   200  101  222 1    
   201  101  223 1    
   202  101  224 1    
   203  102  103 2    
   204  102  104 am   BACKBONE|DICT|INTERRES
   205  104  105 1    
   206  104  225 1    
   207  105  106 1    
   208  105  107 1    
   209  105  226 1    
   210  106  227 1    
   211  106  228 1    
   212  106  229 1    
   213  107  108 2    
   214  107  109 am   BACKBONE|DICT|INTERRES
   215  109  110 1    
   216  109  230 1    
   217  110  111 1    
   218  110  112 1    
   219  110  231 1    
   220  111  232 1    
   221  111  233 1    
   222  111  234 1    
   223  112  113 2    
   224  112  114 am   BACKBONE|DICT|INTERRES
   225  114  115 1    
   226  114  235 1    
   227  115  116 1    
   228  115  117 1    
   229  115  236 1    
   230  116  237 1    
   231  116  238 1    
   232  116  239 1    
   233  117  118 2    
   234  117  119 am   BACKBONE|DICT|INTERRES
   235  119  120 1    
   236  119  240 1    
   237  120  121 1    
   238  120  124 1    
   239  120  241 1    
   240  121  122 am   BACKBONE|DICT|INTERRES
   241  121  123 2    
   242  122  242 1    
   243  122  243 1    
   244  124  125 1    
   245  124  244 1    
   246  124  245 1    
   247  125  126 1    
   248  126  246 1    
   249  126  247 1    
@<TRIPOS>SUBSTRUCTURE
     1 UNK         1 GROUP             0       ****    0 ROOT    
