@<TRIPOS>MOLECULE
3R540
247   249    1
SMALL
USER_CHARGES


@<TRIPOS>ATOM
      1 CA          3.3513  -16.2022  -45.1198 C.3       0 UNK        -0.1800 
      2 C           2.6093  -14.9196  -45.4639 C.2       0 UNK         0.5000 
      3 O           2.7247  -13.9334  -44.7362 O.2       0 UNK        -0.5000 
      4 N           1.8500  -14.9294  -46.5689 N.am      1 UNK        -0.5000 
      5 CA          1.0018  -13.8232  -47.0390 C.3       1 UNK         0.1400 
      6 C6          0.1324  -14.2209  -48.2590 C.3       23 UNK        -0.0398 
      7 S7         -1.0457  -15.5605  -47.8795 S.3       23 UNK        -0.2404 
      8 C8         -1.2801  -16.3274  -49.5207 C.3       23 UNK        -0.0205 
      9 C9         -0.1945  -17.3055  -49.9764 C.ar      23 UNK        -0.0193 
     10 C10        -0.4026  -18.0072  -51.1675 C.ar      23 UNK        -0.1150 
     11 C11         0.5470  -18.9162  -51.6422 C.ar      23 UNK        -0.0193 
     12 C12         1.7241  -19.1197  -50.9209 C.ar      23 UNK        -0.1150 
     13 C13         1.9429  -18.4422  -49.7208 C.ar      23 UNK        -0.0193 
     14 C14         0.9843  -17.5388  -49.2552 C.ar      23 UNK        -0.1150 
     15 C15         3.2113  -18.7004  -48.9231 C.3       23 UNK        -0.0205 
     16 S16         3.2159  -20.3553  -48.1644 S.3       23 UNK        -0.2404 
     17 C17         1.8621  -20.2258  -46.9487 C.3       23 UNK        -0.0398 
     18 CA          0.9485  -21.4761  -46.9393 C.3       11 UNK         0.1400 
     19 N           0.3214  -21.6611  -45.6299 N.am      11 UNK        -0.5000 
     20 C          -0.3394  -22.7575  -45.2378 C.2       10 UNK         0.5000 
     21 O          -0.4837  -23.7589  -45.9377 O.2       10 UNK        -0.5000 
     22 CA         -0.9808  -22.7071  -43.8409 C.3       10 UNK         0.1400 
     23 CB          0.0615  -22.9804  -42.7458 C.3       10 UNK        -0.1800 
     24 N          -1.6390  -21.4262  -43.5844 N.am      10 UNK        -0.5000 
     25 C          -2.7476  -21.0086  -44.2107 C.2       9 UNK         0.5000 
     26 O          -3.3445  -21.6695  -45.0592 O.2       9 UNK        -0.5000 
     27 CA         -3.2519  -19.5990  -43.8567 C.3       9 UNK         0.1400 
     28 CB         -4.0696  -19.6236  -42.5568 C.3       9 UNK        -0.1800 
     29 N          -2.1688  -18.6243  -43.7302 N.am      9 UNK        -0.5000 
     30 C          -1.3732  -18.2426  -44.7390 C.2       8 UNK         0.5000 
     31 O          -1.4478  -18.6893  -45.8828 O.2       8 UNK        -0.5000 
     32 CA         -0.2704  -17.2295  -44.3903 C.3       8 UNK         0.1400 
     33 CB         -0.8767  -15.8262  -44.2306 C.3       8 UNK        -0.1800 
     34 N           0.4833  -17.5692  -43.1788 N.am      8 UNK        -0.5000 
     35 C           1.0726  -18.7497  -42.9237 C.2       7 UNK         0.5000 
     36 O           1.0602  -19.6951  -43.7106 O.2       7 UNK        -0.5000 
     37 CA          1.7954  -18.9319  -41.5730 C.3       7 UNK         0.1400 
     38 CB          3.3151  -19.0037  -41.7883 C.3       7 UNK        -0.1800 
     39 N           1.5118  -17.8852  -40.5926 N.am      7 UNK        -0.5000 
     40 C           0.3330  -17.6626  -39.9943 C.2       6 UNK         0.5000 
     41 O          -0.6579  -18.3769  -40.1495 O.2       6 UNK        -0.5000 
     42 CA          0.2394  -16.3983  -39.1118 C.3       6 UNK         0.1400 
     43 CB          0.4002  -16.7651  -37.6289 C.3       6 UNK        -0.1800 
     44 N           1.2221  -15.3613  -39.4592 N.am      6 UNK        -0.5000 
     45 C           1.2841  -14.7365  -40.6433 C.2       5 UNK         0.5000 
     46 O           0.4989  -14.9598  -41.5658 O.2       5 UNK        -0.5000 
     47 CA          2.4665  -13.7768  -40.8516 C.3       5 UNK         0.1400 
     48 CB          3.7537  -14.5700  -41.1315 C.3       5 UNK        -0.1800 
     49 N           2.2309  -12.8830  -41.9809 N.am      5 UNK        -0.5000 
     50 C           1.5290  -11.7439  -41.9338 C.2       4 UNK         0.5000 
     51 O           0.9993  -11.3092  -40.9090 O.2       4 UNK        -0.5000 
     52 CA          1.4369  -10.9567  -43.2603 C.3       4 UNK         0.1400 
     53 CB          1.0005   -9.4886  -43.0755 C.3       4 UNK        -0.1800 
     54 N           2.6775  -11.0505  -44.0382 N.am      4 UNK        -0.5000 
     55 C           3.9031  -10.6343  -43.6820 C.2       3 UNK         0.5000 
     56 O           4.1372   -9.9422  -42.6906 O.2       3 UNK        -0.5000 
     57 CA          5.0788  -11.1094  -44.5574 C.3       3 UNK         0.1400 
     58 CB          5.8585  -12.2205  -43.8351 C.3       3 UNK        -0.1800 
     59 N           4.6389  -11.6257  -45.8541 N.am      3 UNK        -0.5000 
     60 C           4.4924  -10.8864  -46.9611 C.2       2 UNK         0.5000 
     61 O           4.7595   -9.6860  -47.0251 O.2       2 UNK        -0.5000 
     62 CA          3.9439  -11.6109  -48.2059 C.3       2 UNK         0.1400 
     63 CB          5.0965  -12.1593  -49.0607 C.3       2 UNK        -0.1800 
     64 N           3.0288  -12.7073  -47.8771 N.am      2 UNK        -0.5000 
     65 C           1.8020  -12.5441  -47.3607 C.2       1 UNK         0.5000 
     66 O           1.3070  -11.4448  -47.1128 O.2       1 UNK        -0.5000 
     67 C          -0.0961  -21.4722  -48.0786 C.2       11 UNK         0.5000 
     68 O           0.1110  -22.1348  -49.0963 O.2       11 UNK        -0.5000 
     69 N          -1.2320  -20.7938  -47.8547 N.am      12 UNK        -0.5000 
     70 CA         -2.3934  -20.8044  -48.7431 C.3       12 UNK         0.1400 
     71 CB         -3.4212  -19.7698  -48.2609 C.3       12 UNK        -0.1800 
     72 C          -3.0407  -22.1969  -48.8565 C.2       12 UNK         0.5000 
     73 O          -3.3531  -22.6234  -49.9660 O.2       12 UNK        -0.5000 
     74 N          -3.2117  -22.8886  -47.7195 N.am      13 UNK        -0.5000 
     75 CA         -3.7739  -24.2391  -47.6479 C.3       13 UNK         0.1400 
     76 CB         -4.0306  -24.6265  -46.1850 C.3       13 UNK        -0.1800 
     77 C          -2.9089  -25.3004  -48.3502 C.2       13 UNK         0.5000 
     78 O          -3.4531  -26.1763  -49.0234 O.2       13 UNK        -0.5000 
     79 N          -1.5811  -25.1915  -48.2104 N.am      14 UNK        -0.5000 
     80 CA         -0.6043  -26.0586  -48.8725 C.3       14 UNK         0.1400 
     81 CB          0.7986  -25.7470  -48.3301 C.3       14 UNK        -0.1800 
     82 C          -0.6287  -25.9380  -50.4087 C.2       14 UNK         0.5000 
     83 O          -0.3771  -26.9237  -51.1033 O.2       14 UNK        -0.5000 
     84 N          -0.9629  -24.7455  -50.9146 N.am      15 UNK        -0.5000 
     85 CA         -1.0578  -24.4161  -52.3338 C.3       15 UNK         0.1400 
     86 CB         -0.7784  -22.9182  -52.4950 C.3       15 UNK        -0.1800 
     87 C          -2.4093  -24.8378  -52.9468 C.2       15 UNK         0.5000 
     88 O          -3.1244  -24.0012  -53.5027 O.2       15 UNK        -0.5000 
     89 N          -2.7069  -26.1420  -52.8510 N.am      16 UNK        -0.5000 
     90 CA         -3.8788  -26.8352  -53.3990 C.3       16 UNK         0.1400 
     91 CB         -3.8639  -26.7944  -54.9425 C.3       16 UNK        -0.1800 
     92 C          -5.2140  -26.3527  -52.7935 C.2       16 UNK         0.5000 
     93 O          -6.1928  -26.1837  -53.5226 O.2       16 UNK        -0.5000 
     94 N          -5.2191  -26.1732  -51.4641 N.am      17 UNK        -0.5000 
     95 CA         -6.2876  -25.6355  -50.6159 C.3       17 UNK         0.1400 
     96 CB         -7.6435  -26.3326  -50.8516 C.3       17 UNK        -0.1800 
     97 C          -6.4132  -24.1067  -50.7261 C.2       17 UNK         0.5000 
     98 O          -6.1097  -23.5116  -51.7624 O.2       17 UNK        -0.5000 
     99 N          -6.9112  -23.4922  -49.6447 N.am      18 UNK        -0.5000 
    100 CA        -7.0721  -22.0414  -49.5054 C.3       18 UNK         0.1400 
    101 CB        -7.3869  -21.7123  -48.0386 C.3       18 UNK        -0.1800 
    102 C         -8.1251  -21.4303  -50.4546 C.2       18 UNK         0.5000 
    103 O         -8.1416  -20.2137  -50.6391 O.2       18 UNK        -0.5000 
    104 N         -8.9660  -22.2815  -51.0584 N.am      19 UNK        -0.5000 
    105 CA        -9.8762  -21.9285  -52.1462 C.3       19 UNK         0.1400 
    106 CB       -10.8754  -23.0774  -52.3519 C.3       19 UNK        -0.1800 
    107 C         -9.1385  -21.6116  -53.4639 C.2       19 UNK         0.5000 
    108 O         -9.6497  -20.8205  -54.2576 O.2       19 UNK        -0.5000 
    109 N         -7.9619  -22.2209  -53.6734 N.am      20 UNK        -0.5000 
    110 CA        -7.0821  -21.9501  -54.8074 C.3       20 UNK         0.1400 
    111 CB        -6.4119  -23.2518  -55.2761 C.3       20 UNK        -0.1800 
    112 C         -6.0359  -20.8990  -54.4131 C.2       20 UNK         0.5000 
    113 O         -5.9540  -19.8584  -55.0680 O.2       20 UNK        -0.5000 
    114 N         -5.2674  -21.1924  -53.3499 N.am      21 UNK        -0.5000 
    115 CA        -4.2334  -20.3527  -52.7296 C.3       21 UNK         0.1400 
    116 CB        -4.8931  -19.2981  -51.8196 C.3       21 UNK        -0.1800 
    117 C         -3.2523  -19.7203  -53.7407 C.2       21 UNK         0.5000 
    118 O         -2.9986  -18.5174  -53.6735 O.2       21 UNK        -0.5000 
    119 N         -2.7692  -20.5430  -54.6841 N.am      22 UNK        -0.5000 
    120 CA        -1.9403  -20.1794  -55.8529 C.3       22 UNK         0.1400 
    121 C         -2.4929  -19.0525  -56.7845 C.2       22 UNK         0.5000 
    122 N         -3.7800  -18.7266  -56.7454 N.am      22 UNK        -0.7600 
    123 O         -1.7593  -18.4953  -57.5970 O.2       22 UNK        -0.5000 
    124 C124       -0.4110  -20.0819  -55.5551 C.3       23 UNK        -0.0398 
    125 S125        0.1363  -18.7654  -54.4081 S.3       23 UNK        -0.2404 
    126 C126        0.2647  -19.7445  -52.8822 C.3       23 UNK        -0.0205 
    127 H127        3.0861  -17.0198  -45.7902 H         1 UNK         0.0600 
    128 H128        3.1096  -16.5084  -44.1029 H         1 UNK         0.0600 
    129 H129        4.4273  -16.0409  -45.1813 H         1 UNK         0.0600 
    130 H130        1.8015  -15.7700  -47.1217 H         1 UNK         0.3000 
    131 H131        0.3288  -13.5687  -46.2173 H         1 UNK         0.0600 
    132 H132        0.7648  -14.5198  -49.0969 H         1 UNK         0.0800 
    133 H133       -0.4535  -13.3683  -48.6080 H         1 UNK         0.0800 
    134 H134       -2.2325  -16.8583  -49.5021 H         1 UNK         0.0800 
    135 H135       -1.3870  -15.5401  -50.2681 H         1 UNK         0.0800 
    136 H136       -1.3159  -17.8558  -51.7259 H         1 UNK         0.1150 
    137 H137        2.4572  -19.8330  -51.2709 H         1 UNK         0.1150 
    138 H138        1.1633  -17.0332  -48.3216 H         1 UNK         0.1150 
    139 H139        4.0728  -18.6156  -49.5870 H         1 UNK         0.0800 
    140 H140        3.3497  -17.9461  -48.1476 H         1 UNK         0.0800 
    141 H141        1.2800  -19.3146  -47.0904 H         1 UNK         0.0800 
    142 H142        2.3482  -20.1128  -45.9791 H         1 UNK         0.0800 
    143 H143        1.5802  -22.3541  -47.0923 H         1 UNK         0.0600 
    144 H144        0.4218  -20.8942  -44.9685 H         1 UNK         0.3000 
    145 H145       -1.7370  -23.4934  -43.7918 H         1 UNK         0.0600 
    146 H146       -0.4006  -23.0033  -41.7589 H         1 UNK         0.0600 
    147 H147        0.5436  -23.9464  -42.9012 H         1 UNK         0.0600 
    148 H148        0.8453  -22.2225  -42.7315 H         1 UNK         0.0600 
    149 H149       -1.1816  -20.7981  -42.9405 H         1 UNK         0.3000 
    150 H150       -3.9071  -19.2695  -44.6659 H         1 UNK         0.0600 
    151 H151       -4.8906  -20.3386  -42.6256 H         1 UNK         0.0600 
    152 H152       -4.5069  -18.6471  -42.3481 H         1 UNK         0.0600 
    153 H153       -3.4571  -19.9069  -41.6997 H         1 UNK         0.0600 
    154 H154       -2.0108  -18.2297  -42.8139 H         1 UNK         0.3000 
    155 H155        0.4303  -17.2125  -45.2264 H         1 UNK         0.0600 
    156 H156       -1.4777  -15.7497  -43.3238 H         1 UNK         0.0600 
    157 H157       -1.5276  -15.5721  -45.0660 H         1 UNK         0.0600 
    158 H158       -0.1011  -15.0629  -44.1802 H         1 UNK         0.0600 
    159 H159        0.5426  -16.8352  -42.4817 H         1 UNK         0.3000 
    160 H160        1.4620  -19.8846  -41.1565 H         1 UNK         0.0600 
    161 H161        3.7113  -18.0666  -42.1812 H         1 UNK         0.0600 
    162 H162        3.5749  -19.7922  -42.4960 H         1 UNK         0.0600 
    163 H163        3.8356  -19.2237  -40.8560 H         1 UNK         0.0600 
    164 H164        2.2649  -17.2443  -40.3938 H         1 UNK         0.3000 
    165 H165       -0.7571  -15.9756  -39.2552 H         1 UNK         0.0600 
    166 H166        0.2522  -15.8954  -36.9885 H         1 UNK         0.0600 
    167 H167       -0.3336  -17.5150  -37.3299 H         1 UNK         0.0600 
    168 H168        1.3900  -17.1729  -37.4201 H         1 UNK         0.0600 
    169 H169        1.9054  -15.1368  -38.7498 H         1 UNK         0.3000 
    170 H170        2.6041  -13.1857  -39.9438 H         1 UNK         0.0600 
    171 H171        3.9977  -15.2375  -40.3042 H         1 UNK         0.0600 
    172 H172        3.6637  -15.1791  -42.0318 H         1 UNK         0.0600 
    173 H173        4.6043  -13.9014  -41.2660 H         1 UNK         0.0600 
    174 H174        2.5525  -13.2073  -42.8877 H         1 UNK         0.3000 
    175 H175        0.6703  -11.4558  -43.8548 H         1 UNK         0.0600 
    176 H176        1.6823   -8.9387  -42.4266 H         1 UNK         0.0600 
    177 H177        0.9543   -8.9689  -44.0326 H         1 UNK         0.0600 
    178 H178        0.0079   -9.4315  -42.6275 H         1 UNK         0.0600 
    179 H179        2.6206  -11.6450  -44.8538 H         1 UNK         0.3000 
    180 H180        5.7498  -10.2603  -44.7039 H         1 UNK         0.0600 
    181 H181        5.2378  -13.1005  -43.6616 H         1 UNK         0.0600 
    182 H182        6.2213  -11.8788  -42.8648 H         1 UNK         0.0600 
    183 H183        6.7276  -12.5324  -44.4144 H         1 UNK         0.0600 
    184 H184        4.3699  -12.5993  -45.8813 H         1 UNK         0.3000 
    185 H185        3.3969  -10.8767  -48.8014 H         1 UNK         0.0600 
    186 H186        5.7854  -11.3625  -49.3444 H         1 UNK         0.0600 
    187 H187        5.6719  -12.9153  -48.5248 H         1 UNK         0.0600 
    188 H188        4.7254  -12.6091  -49.9818 H         1 UNK         0.0600 
    189 H189        3.3631  -13.6454  -48.0428 H         1 UNK         0.3000 
    190 H190       -1.3138  -20.2280  -47.0138 H         1 UNK         0.3000 
    191 H191       -2.0544  -20.5098  -49.7388 H         1 UNK         0.0600 
    192 H192       -2.9967  -18.7664  -48.2576 H         1 UNK         0.0600 
    193 H193       -4.2976  -19.7532  -48.9085 H         1 UNK         0.0600 
    194 H194       -3.7666  -19.9863  -47.2497 H         1 UNK         0.0600 
    195 H195       -2.9803  -22.4488  -46.8337 H         1 UNK         0.3000 
    196 H196       -4.7372  -24.2174  -48.1556 H         1 UNK         0.0600 
    197 H197       -4.4533  -25.6294  -46.1137 H         1 UNK         0.0600 
    198 H198       -4.7383  -23.9431  -45.7155 H         1 UNK         0.0600 
    199 H199       -3.1122  -24.6144  -45.5981 H         1 UNK         0.0600 
    200 H200       -1.2112  -24.4825  -47.5828 H         1 UNK         0.3000 
    201 H201       -0.8477  -27.0923  -48.6188 H         1 UNK         0.0600 
    202 H202        0.8508  -25.9132  -47.2539 H         1 UNK         0.0600 
    203 H203        1.0824  -24.7116  -48.5222 H         1 UNK         0.0600 
    204 H204        1.5498  -26.3867  -48.7949 H         1 UNK         0.0600 
    205 H205       -1.1884  -23.9989  -50.2699 H         1 UNK         0.3000 
    206 H206       -0.2776  -24.9540  -52.8762 H         1 UNK         0.0600 
    207 H207        0.2016  -22.6589  -52.0943 H         1 UNK         0.0600 
    208 H208       -0.7925  -22.6303  -53.5459 H         1 UNK         0.0600 
    209 H209       -1.5231  -22.3182  -51.9720 H         1 UNK         0.0600 
    210 H210       -2.0416  -26.7245  -52.3539 H         1 UNK         0.3000 
    211 H211       -3.7766  -27.8798  -53.1021 H         1 UNK         0.0600 
    212 H212       -4.0246  -25.7851  -55.3231 H         1 UNK         0.0600 
    213 H213       -4.6494  -27.4270  -55.3572 H         1 UNK         0.0600 
    214 H214       -2.9150  -27.1560  -55.3384 H         1 UNK         0.0600 
    215 H215       -4.3460  -26.3168  -50.9697 H         1 UNK         0.3000 
    216 H216       -5.9859  -25.8638  -49.5937 H         1 UNK         0.0600 
    217 H217       -8.3543  -26.0737  -50.0664 H         1 UNK         0.0600 
    218 H218       -7.5375  -27.4174  -50.8462 H         1 UNK         0.0600 
    219 H219       -8.0969  -26.0422  -51.7998 H         1 UNK         0.0600 
    220 H220       -7.1814  -24.0465  -48.8450 H         1 UNK         0.3000 
    221 H221       -6.1130  -21.5835  -49.7523 H         1 UNK         0.0600 
    222 H222       -8.3224  -22.1702  -47.7153 H         1 UNK         0.0600 
    223 H223       -6.5926  -22.0609  -47.3776 H         1 UNK         0.0600 
    224 H224       -7.4791  -20.6355  -47.8905 H         1 UNK         0.0600 
    225 H225       -8.8929  -23.2610  -50.8289 H         1 UNK         0.3000 
    226 H226      -10.4336  -21.0364  -51.8527 H         1 UNK         0.0600 
    227 H227      -11.4499  -23.2682  -51.4453 H         1 UNK         0.0600 
    228 H228      -11.5877  -22.8380  -53.1426 H         1 UNK         0.0600 
    229 H229      -10.3720  -24.0035  -52.6329 H         1 UNK         0.0600 
    230 H230       -7.5738  -22.8136  -52.9473 H         1 UNK         0.3000 
    231 H231       -7.6605  -21.5573  -55.6464 H         1 UNK         0.0600 
    232 H232       -7.1543  -23.9963  -55.5637 H         1 UNK         0.0600 
    233 H233       -5.7858  -23.6918  -54.4997 H         1 UNK         0.0600 
    234 H234       -5.7758  -23.0719  -56.1434 H         1 UNK         0.0600 
    235 H235       -5.4147  -22.0916  -52.8960 H         1 UNK         0.3000 
    236 H236       -3.6388  -21.0130  -52.0982 H         1 UNK         0.0600 
    237 H237       -4.1432  -18.7104  -51.2885 H         1 UNK         0.0600 
    238 H238       -5.5129  -18.6063  -52.3910 H         1 UNK         0.0600 
    239 H239       -5.5241  -19.7655  -51.0678 H         1 UNK         0.0600 
    240 H240       -3.0659  -21.5092  -54.6483 H         1 UNK         0.3000 
    241 H241       -2.0360  -21.0574  -56.4925 H         1 UNK         0.0600 
    242 H242       -4.1238  -18.0090  -57.3631 H         1 UNK         0.3800 
    243 H243       -4.4159  -19.1594  -56.0824 H         1 UNK         0.3800 
    244 H244       -0.0625  -21.0424  -55.1761 H         1 UNK         0.0800 
    245 H245        0.1386  -19.9465  -56.4879 H         1 UNK         0.0800 
    246 H246       -0.6770  -20.2610  -52.7183 H         1 UNK         0.0800 
    247 H247        1.0278  -20.5125  -53.0162 H         1 UNK         0.0800 
@<TRIPOS>BOND
     1    1    2 1    
     2    1  127 1    
     3    1  128 1    
     4    1  129 1    
     5    2    3 2    
     6    2    4 am   BACKBONE|DICT|INTERRES
     7    4    5 1    
     8    4  130 1    
     9    5    6 1    
    10    5   65 1    
    11    5  131 1    
    12    6    7 1    
    13    6  132 1    
    14    6  133 1    
    15    7    8 1    
    16    8    9 1    
    17    8  134 1    
    18    8  135 1    
    19    9   10 ar   
    20    9   14 ar   
    21   10   11 ar   
    22   10  136 1    
    23   11   12 ar   
    24   11  126 1    
    25   12   13 ar   
    26   12  137 1    
    27   13   14 ar   
    28   13   15 1    
    29   14  138 1    
    30   15   16 1    
    31   15  139 1    
    32   15  140 1    
    33   16   17 1    
    34   17   18 1    
    35   17  141 1    
    36   17  142 1    
    37   18   19 1    
    38   18   67 1    
    39   18  143 1    
    40   19   20 am   BACKBONE|DICT|INTERRES
    41   19  144 1    
    42   20   21 2    
    43   20   22 1    
    44   22   23 1    
    45   22   24 1    
    46   22  145 1    
    47   23  146 1    
    48   23  147 1    
    49   23  148 1    
    50   24   25 am   BACKBONE|DICT|INTERRES
    51   24  149 1    
    52   25   26 2    
    53   25   27 1    
    54   27   28 1    
    55   27   29 1    
    56   27  150 1    
    57   28  151 1    
    58   28  152 1    
    59   28  153 1    
    60   29   30 am   BACKBONE|DICT|INTERRES
    61   29  154 1    
    62   30   31 2    
    63   30   32 1    
    64   32   33 1    
    65   32   34 1    
    66   32  155 1    
    67   33  156 1    
    68   33  157 1    
    69   33  158 1    
    70   34   35 am   BACKBONE|DICT|INTERRES
    71   34  159 1    
    72   35   36 2    
    73   35   37 1    
    74   37   38 1    
    75   37   39 1    
    76   37  160 1    
    77   38  161 1    
    78   38  162 1    
    79   38  163 1    
    80   39   40 am   BACKBONE|DICT|INTERRES
    81   39  164 1    
    82   40   41 2    
    83   40   42 1    
    84   42   43 1    
    85   42   44 1    
    86   42  165 1    
    87   43  166 1    
    88   43  167 1    
    89   43  168 1    
    90   44   45 am   BACKBONE|DICT|INTERRES
    91   44  169 1    
    92   45   46 2    
    93   45   47 1    
    94   47   48 1    
    95   47   49 1    
    96   47  170 1    
    97   48  171 1    
    98   48  172 1    
    99   48  173 1    
   100   49   50 am   BACKBONE|DICT|INTERRES
   101   49  174 1    
   102   50   51 2    
   103   50   52 1    
   104   52   53 1    
   105   52   54 1    
   106   52  175 1    
   107   53  176 1    
   108   53  177 1    
   109   53  178 1    
   110   54   55 am   BACKBONE|DICT|INTERRES
   111   54  179 1    
   112   55   56 2    
   113   55   57 1    
   114   57   58 1    
   115   57   59 1    
   116   57  180 1    
   117   58  181 1    
   118   58  182 1    
   119   58  183 1    
   120   59   60 am   BACKBONE|DICT|INTERRES
   121   59  184 1    
   122   60   61 2    
   123   60   62 1    
   124   62   63 1    
   125   62   64 1    
   126   62  185 1    
   127   63  186 1    
   128   63  187 1    
   129   63  188 1    
   130   64   65 am   BACKBONE|DICT|INTERRES
   131   64  189 1    
   132   65   66 2    
   133   67   68 2    
   134   67   69 am   BACKBONE|DICT|INTERRES
   135   69   70 1    
   136   69  190 1    
   137   70   71 1    
   138   70   72 1    
   139   70  191 1    
   140   71  192 1    
   141   71  193 1    
   142   71  194 1    
   143   72   73 2    
   144   72   74 am   BACKBONE|DICT|INTERRES
   145   74   75 1    
   146   74  195 1    
   147   75   76 1    
   148   75   77 1    
   149   75  196 1    
   150   76  197 1    
   151   76  198 1    
   152   76  199 1    
   153   77   78 2    
   154   77   79 am   BACKBONE|DICT|INTERRES
   155   79   80 1    
   156   79  200 1    
   157   80   81 1    
   158   80   82 1    
   159   80  201 1    
   160   81  202 1    
   161   81  203 1    
   162   81  204 1    
   163   82   83 2    
   164   82   84 am   BACKBONE|DICT|INTERRES
   165   84   85 1    
   166   84  205 1    
   167   85   86 1    
   168   85   87 1    
   169   85  206 1    
   170   86  207 1    
   171   86  208 1    
   172   86  209 1    
   173   87   88 2    
   174   87   89 am   BACKBONE|DICT|INTERRES
   175   89   90 1    
   176   89  210 1    
   177   90   91 1    
   178   90   92 1    
   179   90  211 1    
   180   91  212 1    
   181   91  213 1    
   182   91  214 1    
   183   92   93 2    
   184   92   94 am   BACKBONE|DICT|INTERRES
   185   94   95 1    
   186   94  215 1    
   187   95   96 1    
   188   95   97 1    
   189   95  216 1    
   190   96  217 1    
   191   96  218 1    
   192   96  219 1    
   193   97   98 2    
   194   97   99 am   BACKBONE|DICT|INTERRES
   195   99  100 1    
   196   99  220 1    
   197  100  101 1    
   198  100  102 1    
   199  100  221 1    
   200  101  222 1    
   201  101  223 1    
   202  101  224 1    
   203  102  103 2    
   204  102  104 am   BACKBONE|DICT|INTERRES
   205  104  105 1    
   206  104  225 1    
   207  105  106 1    
   208  105  107 1    
   209  105  226 1    
   210  106  227 1    
   211  106  228 1    
   212  106  229 1    
   213  107  108 2    
   214  107  109 am   BACKBONE|DICT|INTERRES
   215  109  110 1    
   216  109  230 1    
   217  110  111 1    
   218  110  112 1    
   219  110  231 1    
   220  111  232 1    
   221  111  233 1    
   222  111  234 1    
   223  112  113 2    
   224  112  114 am   BACKBONE|DICT|INTERRES
   225  114  115 1    
   226  114  235 1    
   227  115  116 1    
   228  115  117 1    
   229  115  236 1    
   230  116  237 1    
   231  116  238 1    
   232  116  239 1    
   233  117  118 2    
   234  117  119 am   BACKBONE|DICT|INTERRES
   235  119  120 1    
   236  119  240 1    
   237  120  121 1    
   238  120  124 1    
   239  120  241 1    
   240  121  122 am   BACKBONE|DICT|INTERRES
   241  121  123 2    
   242  122  242 1    
   243  122  243 1    
   244  124  125 1    
   245  124  244 1    
   246  124  245 1    
   247  125  126 1    
   248  126  246 1    
   249  126  247 1    
@<TRIPOS>SUBSTRUCTURE
     1 UNK         1 GROUP             0       ****    0 ROOT    
