@<TRIPOS>MOLECULE
3R540
247   249    1
SMALL
USER_CHARGES


@<TRIPOS>ATOM
      1 CA          8.1460  -12.1259  -50.5440 C.3       0 UNK        -0.1800 
      2 C           6.9798  -12.3863  -49.6006 C.2       0 UNK         0.5000 
      3 O           6.8521  -11.7068  -48.5815 O.2       0 UNK        -0.5000 
      4 N           6.1377  -13.3723  -49.9302 N.am      1 UNK        -0.5000 
      5 CA          4.9190  -13.7223  -49.1952 C.3       1 UNK         0.1400 
      6 C6          4.4049  -15.1461  -49.5474 C.3       23 UNK        -0.0398 
      7 S7          4.3000  -15.5074  -51.3369 S.3       23 UNK        -0.2404 
      8 C8          2.5337  -15.2033  -51.6892 C.3       23 UNK        -0.0205 
      9 C9          1.5434  -16.2322  -51.1395 C.ar      23 UNK        -0.0193 
     10 C10         0.1973  -15.8647  -51.0479 C.ar      23 UNK        -0.1150 
     11 C11        -0.7708  -16.7728  -50.6109 C.ar      23 UNK        -0.0193 
     12 C12        -0.3809  -18.0697  -50.2635 C.ar      23 UNK        -0.1150 
     13 C13         0.9627  -18.4486  -50.3189 C.ar      23 UNK        -0.0193 
     14 C14         1.9180  -17.5313  -50.7679 C.ar      23 UNK        -0.1150 
     15 C15         1.3793  -19.8468  -49.8882 C.3       23 UNK        -0.0205 
     16 S16         1.7383  -19.9046  -48.1031 S.3       23 UNK        -0.2404 
     17 C17         2.1789  -21.6620  -47.8788 C.3       23 UNK        -0.0398 
     18 CA          1.0969  -22.5241  -47.1827 C.3       11 UNK         0.1400 
     19 N           0.7763  -22.0725  -45.8220 N.am      11 UNK        -0.5000 
     20 C           0.0991  -22.8082  -44.9262 C.2       10 UNK         0.5000 
     21 O          -0.3531  -23.9253  -45.1832 O.2       10 UNK        -0.5000 
     22 CA         -0.1459  -22.1854  -43.5365 C.3       10 UNK         0.1400 
     23 CB         -0.3850  -23.2373  -42.4340 C.3       10 UNK        -0.1800 
     24 N           0.8924  -21.2319  -43.1437 N.am      10 UNK        -0.5000 
     25 C           2.1856  -21.4673  -42.8830 C.2       9 UNK         0.5000 
     26 O           2.7052  -22.5835  -42.8964 O.2       9 UNK        -0.5000 
     27 CA          3.0522  -20.2319  -42.5699 C.3       9 UNK         0.1400 
     28 CB          3.7751  -19.7624  -43.8423 C.3       9 UNK        -0.1800 
     29 N           2.2824  -19.1126  -42.0200 N.am      9 UNK        -0.5000 
     30 C           1.7412  -19.0801  -40.7941 C.2       8 UNK         0.5000 
     31 O           1.8887  -19.9718  -39.9575 O.2       8 UNK        -0.5000 
     32 CA          0.8641  -17.8587  -40.4565 C.3       8 UNK         0.1400 
     33 CB          1.7267  -16.6528  -40.0538 C.3       8 UNK        -0.1800 
     34 N          -0.0248  -17.4822  -41.5579 N.am      8 UNK        -0.5000 
     35 C          -1.0644  -18.2183  -41.9784 C.2       7 UNK         0.5000 
     36 O          -1.4110  -19.2765  -41.4537 O.2       7 UNK        -0.5000 
     37 CA         -1.8283  -17.7061  -43.2131 C.3       7 UNK         0.1400 
     38 CB         -2.8725  -16.6537  -42.8126 C.3       7 UNK        -0.1800 
     39 N          -0.9366  -17.1529  -44.2308 N.am      7 UNK        -0.5000 
     40 C          -0.0535  -17.8748  -44.9346 C.2       6 UNK         0.5000 
     41 O           0.0512  -19.0983  -44.8536 O.2       6 UNK        -0.5000 
     42 CA          0.8997  -17.0990  -45.8556 C.3       6 UNK         0.1400 
     43 CB          0.2124  -16.7848  -47.1855 C.3       6 UNK        -0.1800 
     44 N           1.3799  -15.8554  -45.2648 N.am      6 UNK        -0.5000 
     45 C           2.1296  -15.7559  -44.1618 C.2       5 UNK         0.5000 
     46 O           2.5395  -16.7221  -43.5221 O.2       5 UNK        -0.5000 
     47 CA          2.4269  -14.3311  -43.6675 C.3       5 UNK         0.1400 
     48 CB          3.6134  -13.7216  -44.4299 C.3       5 UNK        -0.1800 
     49 N           1.2595  -13.4581  -43.7956 N.am      5 UNK        -0.5000 
     50 C           0.1487  -13.5681  -43.0541 C.2       4 UNK         0.5000 
     51 O           0.0037  -14.4021  -42.1594 O.2       4 UNK        -0.5000 
     52 CA         -1.0020  -12.6030  -43.3955 C.3       4 UNK         0.1400 
     53 CB         -0.7581  -11.2224  -42.7678 C.3       4 UNK        -0.1800 
     54 N          -1.2040  -12.4527  -44.8389 N.am      4 UNK        -0.5000 
     55 C          -1.6779  -13.4222  -45.6338 C.2       3 UNK         0.5000 
     56 O          -2.0029  -14.5369  -45.2266 O.2       3 UNK        -0.5000 
     57 CA         -1.7692  -13.1097  -47.1418 C.3       3 UNK         0.1400 
     58 CB         -3.0814  -12.3780  -47.4614 C.3       3 UNK        -0.1800 
     59 N          -0.6413  -12.3436  -47.6890 N.am      3 UNK        -0.5000 
     60 C           0.6470  -12.6913  -47.5804 C.2       2 UNK         0.5000 
     61 O           1.0432  -13.6358  -46.8939 O.2       2 UNK        -0.5000 
     62 CA          1.6761  -11.8476  -48.3451 C.3       2 UNK         0.1400 
     63 CB          1.9398  -10.5093  -47.6359 C.3       2 UNK        -0.1800 
     64 N           2.9046  -12.6297  -48.3856 N.am      2 UNK        -0.5000 
     65 C           3.8134  -12.6559  -49.3607 C.2       1 UNK         0.5000 
     66 O           3.7815  -11.9225  -50.3525 O.2       1 UNK        -0.5000 
     67 C          -0.1627  -22.7042  -48.0556 C.2       11 UNK         0.5000 
     68 O          -0.2057  -23.6152  -48.8810 O.2       11 UNK        -0.5000 
     69 N          -1.1834  -21.8685  -47.8175 N.am      12 UNK        -0.5000 
     70 CA         -2.4969  -21.9501  -48.4538 C.3       12 UNK         0.1400 
     71 CB         -3.3037  -20.6964  -48.0842 C.3       12 UNK        -0.1800 
     72 C          -3.2623  -23.2338  -48.0824 C.2       12 UNK         0.5000 
     73 O          -3.9263  -23.8172  -48.9414 O.2       12 UNK        -0.5000 
     74 N          -3.1268  -23.6647  -46.8207 N.am      13 UNK        -0.5000 
     75 CA         -3.6883  -24.9146  -46.3132 C.3       13 UNK         0.1400 
     76 CB         -3.7378  -24.8780  -44.7784 C.3       13 UNK        -0.1800 
     77 C          -2.8940  -26.1323  -46.8126 C.2       13 UNK         0.5000 
     78 O          -3.5027  -27.1166  -47.2305 O.2       13 UNK        -0.5000 
     79 N          -1.5560  -26.0291  -46.8067 N.am      14 UNK        -0.5000 
     80 CA         -0.6324  -27.0568  -47.2987 C.3       14 UNK         0.1400 
     81 CB          0.8111  -26.6466  -46.9739 C.3       14 UNK        -0.1800 
     82 C          -0.7859  -27.3474  -48.8048 C.2       14 UNK         0.5000 
     83 O          -0.6219  -28.4949  -49.2205 O.2       14 UNK        -0.5000 
     84 N          -1.1358  -26.3152  -49.5859 N.am      15 UNK        -0.5000 
     85 CA         -1.4803  -26.4099  -51.0063 C.3       15 UNK         0.1400 
     86 CB         -1.5552  -24.9918  -51.5970 C.3       15 UNK        -0.1800 
     87 C          -2.7971  -27.1686  -51.2751 C.2       15 UNK         0.5000 
     88 O          -3.0031  -27.6254  -52.3995 O.2       15 UNK        -0.5000 
     89 N          -3.6631  -27.2735  -50.2532 N.am      16 UNK        -0.5000 
     90 CA         -4.9623  -27.9591  -50.2378 C.3       16 UNK         0.1400 
     91 CB         -4.7768  -29.4791  -50.4257 C.3       16 UNK        -0.1800 
     92 C          -6.0037  -27.3614  -51.2095 C.2       16 UNK         0.5000 
     93 O          -6.9576  -28.0455  -51.5849 O.2       16 UNK        -0.5000 
     94 N          -5.8091  -26.0941  -51.5922 N.am      17 UNK        -0.5000 
     95 CA         -6.6323  -25.3681  -52.5603 C.3       17 UNK         0.1400 
     96 CB         -6.0935  -25.6246  -53.9812 C.3       17 UNK        -0.1800 
     97 C          -6.7057  -23.8662  -52.2312 C.2       17 UNK         0.5000 
     98 O          -7.0142  -23.0665  -53.1163 O.2       17 UNK        -0.5000 
     99 N          -6.3808  -23.4913  -50.9818 N.am      18 UNK        -0.5000 
    100 CA        -6.3607  -22.1194  -50.4506 C.3       18 UNK         0.1400 
    101 CB        -7.7942  -21.5474  -50.4083 C.3       18 UNK        -0.1800 
    102 C         -5.3789  -21.1845  -51.1951 C.2       18 UNK         0.5000 
    103 O         -5.5929  -19.9707  -51.2271 O.2       18 UNK        -0.5000 
    104 N         -4.3573  -21.7736  -51.8396 N.am      19 UNK        -0.5000 
    105 CA        -3.4287  -21.1559  -52.8001 C.3       19 UNK         0.1400 
    106 CB        -2.4727  -20.1827  -52.0794 C.3       19 UNK        -0.1800 
    107 C         -4.1288  -20.4938  -54.0131 C.2       19 UNK         0.5000 
    108 O         -3.5229  -19.6553  -54.6816 O.2       19 UNK        -0.5000 
    109 N         -5.4016  -20.8547  -54.2519 N.am      20 UNK        -0.5000 
    110 CA        -6.3605  -20.2154  -55.1575 C.3       20 UNK         0.1400 
    111 CB        -5.9666  -20.4640  -56.6282 C.3       20 UNK        -0.1800 
    112 C         -6.6003  -18.7189  -54.8419 C.2       20 UNK         0.5000 
    113 O         -6.9538  -17.9580  -55.7454 O.2       20 UNK        -0.5000 
    114 N         -6.3936  -18.3114  -53.5803 N.am      21 UNK        -0.5000 
    115 CA        -6.4067  -16.9184  -53.1499 C.3       21 UNK         0.1400 
    116 CB        -5.0881  -16.2276  -53.5669 C.3       21 UNK        -0.1800 
    117 C         -6.7089  -16.8248  -51.6444 C.2       21 UNK         0.5000 
    118 O         -7.8769  -16.8944  -51.2601 O.2       21 UNK        -0.5000 
    119 N         -5.6660  -16.6134  -50.8317 N.am      22 UNK        -0.5000 
    120 CA        -5.7465  -16.2524  -49.4069 C.3       22 UNK         0.1400 
    121 C         -6.2208  -17.3625  -48.4246 C.2       22 UNK         0.5000 
    122 N         -6.2936  -18.6232  -48.8230 N.am      22 UNK        -0.7600 
    123 O         -6.5470  -17.0665  -47.2782 O.2       22 UNK        -0.5000 
    124 C124       -4.4418  -15.5636  -48.9282 C.3       23 UNK        -0.0398 
    125 S125       -2.9665  -16.6436  -48.8978 S.3       23 UNK        -0.2404 
    126 C126       -2.2332  -16.3500  -50.5400 C.3       23 UNK        -0.0205 
    127 H127        8.0976  -11.1067  -50.9273 H         1 UNK         0.0600 
    128 H128        9.0914  -12.2484  -50.0155 H         1 UNK         0.0600 
    129 H129        8.1404  -12.8092  -51.3936 H         1 UNK         0.0600 
    130 H130        6.2724  -13.8764  -50.7954 H         1 UNK         0.3000 
    131 H131        5.1819  -13.7346  -48.1347 H         1 UNK         0.0600 
    132 H132        3.4442  -15.3530  -49.0715 H         1 UNK         0.0800 
    133 H133        5.0922  -15.8781  -49.1215 H         1 UNK         0.0800 
    134 H134        2.4113  -15.1711  -52.7724 H         1 UNK         0.0800 
    135 H135        2.2706  -14.2091  -51.3264 H         1 UNK         0.0800 
    136 H136       -0.1004  -14.8658  -51.3347 H         1 UNK         0.1150 
    137 H137       -1.1214  -18.7755  -49.9169 H         1 UNK         0.1150 
    138 H138        2.9509  -17.8412  -50.8273 H         1 UNK         0.1150 
    139 H139        0.5883  -20.5593  -50.1269 H         1 UNK         0.0800 
    140 H140        2.2611  -20.1625  -50.4477 H         1 UNK         0.0800 
    141 H141        3.0937  -21.6936  -47.2857 H         1 UNK         0.0800 
    142 H142        2.4473  -22.0987  -48.8425 H         1 UNK         0.0800 
    143 H143        1.5312  -23.5194  -47.0745 H         1 UNK         0.0600 
    144 H144        1.0569  -21.1337  -45.5692 H         1 UNK         0.3000 
    145 H145       -1.0613  -21.5998  -43.6308 H         1 UNK         0.0600 
    146 H146       -0.5401  -22.7623  -41.4651 H         1 UNK         0.0600 
    147 H147       -1.2726  -23.8331  -42.6467 H         1 UNK         0.0600 
    148 H148        0.4544  -23.9267  -42.3408 H         1 UNK         0.0600 
    149 H149        0.6040  -20.2616  -43.1836 H         1 UNK         0.3000 
    150 H150        3.8032  -20.5278  -41.8346 H         1 UNK         0.0600 
    151 H151        4.3809  -20.5632  -44.2682 H         1 UNK         0.0600 
    152 H152        4.4424  -18.9266  -43.6310 H         1 UNK         0.0600 
    153 H153        3.0695  -19.4405  -44.6095 H         1 UNK         0.0600 
    154 H154        2.1815  -18.2955  -42.6189 H         1 UNK         0.3000 
    155 H155        0.2412  -18.1251  -39.6000 H         1 UNK         0.0600 
    156 H156        2.3728  -16.3254  -40.8681 H         1 UNK         0.0600 
    157 H157        2.3671  -16.8980  -39.2057 H         1 UNK         0.0600 
    158 H158        1.1065  -15.8058  -39.7596 H         1 UNK         0.0600 
    159 H159        0.1710  -16.6038  -42.0230 H         1 UNK         0.3000 
    160 H160       -2.3553  -18.5551  -43.6537 H         1 UNK         0.0600 
    161 H161       -3.4783  -16.3563  -43.6688 H         1 UNK         0.0600 
    162 H162       -2.4058  -15.7560  -42.4060 H         1 UNK         0.0600 
    163 H163       -3.5517  -17.0448  -42.0541 H         1 UNK         0.0600 
    164 H164       -1.0128  -16.1578  -44.4124 H         1 UNK         0.3000 
    165 H165        1.7653  -17.7339  -46.0512 H         1 UNK         0.0600 
    166 H166        0.9224  -16.4060  -47.9206 H         1 UNK         0.0600 
    167 H167       -0.2486  -17.6808  -47.5989 H         1 UNK         0.0600 
    168 H168       -0.5762  -16.0437  -47.0663 H         1 UNK         0.0600 
    169 H169        1.1255  -15.0003  -45.7559 H         1 UNK         0.3000 
    170 H170        2.6958  -14.3922  -42.6108 H         1 UNK         0.0600 
    171 H171        4.5027  -14.3448  -44.3272 H         1 UNK         0.0600 
    172 H172        3.4044  -13.6226  -45.4949 H         1 UNK         0.0600 
    173 H173        3.8634  -12.7331  -44.0443 H         1 UNK         0.0600 
    174 H174        1.2703  -12.7932  -44.5547 H         1 UNK         0.3000 
    175 H175       -1.9174  -13.0142  -42.9642 H         1 UNK         0.0600 
    176 H176       -1.6067  -10.5587  -42.9344 H         1 UNK         0.0600 
    177 H177       -0.6176  -11.3041  -41.6891 H         1 UNK         0.0600 
    178 H178        0.1303  -10.7416  -43.1792 H         1 UNK         0.0600 
    179 H179       -0.9518  -11.5671  -45.2520 H         1 UNK         0.3000 
    180 H180       -1.7860  -14.0670  -47.6655 H         1 UNK         0.0600 
    181 H181       -3.0963  -11.3744  -47.0348 H         1 UNK         0.0600 
    182 H182       -3.9398  -12.9170  -47.0587 H         1 UNK         0.0600 
    183 H183       -3.2313  -12.2889  -48.5375 H         1 UNK         0.0600 
    184 H184       -0.8816  -11.5409  -48.2526 H         1 UNK         0.3000 
    185 H185        1.3065  -11.6747  -49.3579 H         1 UNK         0.0600 
    186 H186        2.2874  -10.6581  -46.6126 H         1 UNK         0.0600 
    187 H187        2.6963   -9.9280  -48.1634 H         1 UNK         0.0600 
    188 H188        1.0356   -9.9012  -47.5928 H         1 UNK         0.0600 
    189 H189        2.9464  -13.3162  -47.6425 H         1 UNK         0.3000 
    190 H190       -1.0512  -21.1406  -47.1300 H         1 UNK         0.3000 
    191 H191       -2.3513  -21.9666  -49.5337 H         1 UNK         0.0600 
    192 H192       -2.8264  -19.7938  -48.4658 H         1 UNK         0.0600 
    193 H193       -3.4094  -20.5870  -47.0043 H         1 UNK         0.0600 
    194 H194       -4.3068  -20.7302  -48.5054 H         1 UNK         0.0600 
    195 H195       -2.5235  -23.1522  -46.1951 H         1 UNK         0.3000 
    196 H196       -4.7129  -25.0077  -46.6803 H         1 UNK         0.0600 
    197 H197       -4.2041  -25.7817  -44.3841 H         1 UNK         0.0600 
    198 H198       -4.3215  -24.0292  -44.4220 H         1 UNK         0.0600 
    199 H199       -2.7422  -24.8084  -44.3411 H         1 UNK         0.0600 
    200 H200       -1.1346  -25.2024  -46.3921 H         1 UNK         0.3000 
    201 H201       -0.8532  -27.9802  -46.7595 H         1 UNK         0.0600 
    202 H202        0.9365  -26.4388  -45.9110 H         1 UNK         0.0600 
    203 H203        1.1078  -25.7577  -47.5294 H         1 UNK         0.0600 
    204 H204        1.5093  -27.4425  -47.2356 H         1 UNK         0.0600 
    205 H205       -1.1491  -25.3856  -49.1791 H         1 UNK         0.3000 
    206 H206       -0.6804  -26.9523  -51.5144 H         1 UNK         0.0600 
    207 H207       -0.5980  -24.4778  -51.5079 H         1 UNK         0.0600 
    208 H208       -1.8093  -25.0193  -52.6575 H         1 UNK         0.0600 
    209 H209       -2.3074  -24.3844  -51.0933 H         1 UNK         0.0600 
    210 H210       -3.3842  -26.8844  -49.3603 H         1 UNK         0.3000 
    211 H211       -5.3689  -27.8026  -49.2378 H         1 UNK         0.0600 
    212 H212       -4.4395  -29.7248  -51.4330 H         1 UNK         0.0600 
    213 H213       -5.7120  -30.0133  -50.2549 H         1 UNK         0.0600 
    214 H214       -4.0458  -29.8754  -49.7206 H         1 UNK         0.0600 
    215 H215       -4.9901  -25.6175  -51.2431 H         1 UNK         0.3000 
    216 H216       -7.6597  -25.7338  -52.5089 H         1 UNK         0.0600 
    217 H217       -6.7132  -25.1380  -54.7353 H         1 UNK         0.0600 
    218 H218       -6.0837  -26.6897  -54.2134 H         1 UNK         0.0600 
    219 H219       -5.0760  -25.2492  -54.0959 H         1 UNK         0.0600 
    220 H220       -6.1319  -24.2099  -50.3159 H         1 UNK         0.3000 
    221 H221       -6.0055  -22.1883  -49.4227 H         1 UNK         0.0600 
    222 H222       -8.1880  -21.3626  -51.4081 H         1 UNK         0.0600 
    223 H223       -8.4757  -22.2305  -49.9016 H         1 UNK         0.0600 
    224 H224       -7.8319  -20.6018  -49.8695 H         1 UNK         0.0600 
    225 H225       -4.2770  -22.7748  -51.7422 H         1 UNK         0.3000 
    226 H226       -2.8261  -21.9665  -53.2121 H         1 UNK         0.0600 
    227 H227       -1.8843  -20.6968  -51.3224 H         1 UNK         0.0600 
    228 H228       -1.7605  -19.7337  -52.7725 H         1 UNK         0.0600 
    229 H229       -3.0114  -19.3690  -51.5942 H         1 UNK         0.0600 
    230 H230       -5.8055  -21.5822  -53.6700 H         1 UNK         0.3000 
    231 H231       -7.3147  -20.7146  -54.9832 H         1 UNK         0.0600 
    232 H232       -5.8097  -21.5255  -56.8195 H         1 UNK         0.0600 
    233 H233       -5.0519  -19.9352  -56.8973 H         1 UNK         0.0600 
    234 H234       -6.7508  -20.1266  -57.3067 H         1 UNK         0.0600 
    235 H235       -6.1399  -18.9896  -52.8670 H         1 UNK         0.3000 
    236 H236       -7.2281  -16.4015  -53.6508 H         1 UNK         0.0600 
    237 H237       -5.0203  -15.2171  -53.1615 H         1 UNK         0.0600 
    238 H238       -4.2133  -16.7874  -53.2353 H         1 UNK         0.0600 
    239 H239       -5.0216  -16.1382  -54.6512 H         1 UNK         0.0600 
    240 H240       -4.7402  -16.6232  -51.2282 H         1 UNK         0.3000 
    241 H241       -6.5258  -15.4903  -49.3436 H         1 UNK         0.0600 
    242 H242       -6.6174  -19.3171  -48.1713 H         1 UNK         0.3800 
    243 H243       -6.0312  -18.8906  -49.7676 H         1 UNK         0.3800 
    244 H244       -4.2369  -14.6867  -49.5433 H         1 UNK         0.0800 
    245 H245       -4.5809  -15.1753  -47.9180 H         1 UNK         0.0800 
    246 H246       -2.3320  -15.2939  -50.7947 H         1 UNK         0.0800 
    247 H247       -2.7911  -16.9092  -51.2897 H         1 UNK         0.0800 
@<TRIPOS>BOND
     1    1    2 1    
     2    1  127 1    
     3    1  128 1    
     4    1  129 1    
     5    2    3 2    
     6    2    4 am   BACKBONE|DICT|INTERRES
     7    4    5 1    
     8    4  130 1    
     9    5    6 1    
    10    5   65 1    
    11    5  131 1    
    12    6    7 1    
    13    6  132 1    
    14    6  133 1    
    15    7    8 1    
    16    8    9 1    
    17    8  134 1    
    18    8  135 1    
    19    9   10 ar   
    20    9   14 ar   
    21   10   11 ar   
    22   10  136 1    
    23   11   12 ar   
    24   11  126 1    
    25   12   13 ar   
    26   12  137 1    
    27   13   14 ar   
    28   13   15 1    
    29   14  138 1    
    30   15   16 1    
    31   15  139 1    
    32   15  140 1    
    33   16   17 1    
    34   17   18 1    
    35   17  141 1    
    36   17  142 1    
    37   18   19 1    
    38   18   67 1    
    39   18  143 1    
    40   19   20 am   BACKBONE|DICT|INTERRES
    41   19  144 1    
    42   20   21 2    
    43   20   22 1    
    44   22   23 1    
    45   22   24 1    
    46   22  145 1    
    47   23  146 1    
    48   23  147 1    
    49   23  148 1    
    50   24   25 am   BACKBONE|DICT|INTERRES
    51   24  149 1    
    52   25   26 2    
    53   25   27 1    
    54   27   28 1    
    55   27   29 1    
    56   27  150 1    
    57   28  151 1    
    58   28  152 1    
    59   28  153 1    
    60   29   30 am   BACKBONE|DICT|INTERRES
    61   29  154 1    
    62   30   31 2    
    63   30   32 1    
    64   32   33 1    
    65   32   34 1    
    66   32  155 1    
    67   33  156 1    
    68   33  157 1    
    69   33  158 1    
    70   34   35 am   BACKBONE|DICT|INTERRES
    71   34  159 1    
    72   35   36 2    
    73   35   37 1    
    74   37   38 1    
    75   37   39 1    
    76   37  160 1    
    77   38  161 1    
    78   38  162 1    
    79   38  163 1    
    80   39   40 am   BACKBONE|DICT|INTERRES
    81   39  164 1    
    82   40   41 2    
    83   40   42 1    
    84   42   43 1    
    85   42   44 1    
    86   42  165 1    
    87   43  166 1    
    88   43  167 1    
    89   43  168 1    
    90   44   45 am   BACKBONE|DICT|INTERRES
    91   44  169 1    
    92   45   46 2    
    93   45   47 1    
    94   47   48 1    
    95   47   49 1    
    96   47  170 1    
    97   48  171 1    
    98   48  172 1    
    99   48  173 1    
   100   49   50 am   BACKBONE|DICT|INTERRES
   101   49  174 1    
   102   50   51 2    
   103   50   52 1    
   104   52   53 1    
   105   52   54 1    
   106   52  175 1    
   107   53  176 1    
   108   53  177 1    
   109   53  178 1    
   110   54   55 am   BACKBONE|DICT|INTERRES
   111   54  179 1    
   112   55   56 2    
   113   55   57 1    
   114   57   58 1    
   115   57   59 1    
   116   57  180 1    
   117   58  181 1    
   118   58  182 1    
   119   58  183 1    
   120   59   60 am   BACKBONE|DICT|INTERRES
   121   59  184 1    
   122   60   61 2    
   123   60   62 1    
   124   62   63 1    
   125   62   64 1    
   126   62  185 1    
   127   63  186 1    
   128   63  187 1    
   129   63  188 1    
   130   64   65 am   BACKBONE|DICT|INTERRES
   131   64  189 1    
   132   65   66 2    
   133   67   68 2    
   134   67   69 am   BACKBONE|DICT|INTERRES
   135   69   70 1    
   136   69  190 1    
   137   70   71 1    
   138   70   72 1    
   139   70  191 1    
   140   71  192 1    
   141   71  193 1    
   142   71  194 1    
   143   72   73 2    
   144   72   74 am   BACKBONE|DICT|INTERRES
   145   74   75 1    
   146   74  195 1    
   147   75   76 1    
   148   75   77 1    
   149   75  196 1    
   150   76  197 1    
   151   76  198 1    
   152   76  199 1    
   153   77   78 2    
   154   77   79 am   BACKBONE|DICT|INTERRES
   155   79   80 1    
   156   79  200 1    
   157   80   81 1    
   158   80   82 1    
   159   80  201 1    
   160   81  202 1    
   161   81  203 1    
   162   81  204 1    
   163   82   83 2    
   164   82   84 am   BACKBONE|DICT|INTERRES
   165   84   85 1    
   166   84  205 1    
   167   85   86 1    
   168   85   87 1    
   169   85  206 1    
   170   86  207 1    
   171   86  208 1    
   172   86  209 1    
   173   87   88 2    
   174   87   89 am   BACKBONE|DICT|INTERRES
   175   89   90 1    
   176   89  210 1    
   177   90   91 1    
   178   90   92 1    
   179   90  211 1    
   180   91  212 1    
   181   91  213 1    
   182   91  214 1    
   183   92   93 2    
   184   92   94 am   BACKBONE|DICT|INTERRES
   185   94   95 1    
   186   94  215 1    
   187   95   96 1    
   188   95   97 1    
   189   95  216 1    
   190   96  217 1    
   191   96  218 1    
   192   96  219 1    
   193   97   98 2    
   194   97   99 am   BACKBONE|DICT|INTERRES
   195   99  100 1    
   196   99  220 1    
   197  100  101 1    
   198  100  102 1    
   199  100  221 1    
   200  101  222 1    
   201  101  223 1    
   202  101  224 1    
   203  102  103 2    
   204  102  104 am   BACKBONE|DICT|INTERRES
   205  104  105 1    
   206  104  225 1    
   207  105  106 1    
   208  105  107 1    
   209  105  226 1    
   210  106  227 1    
   211  106  228 1    
   212  106  229 1    
   213  107  108 2    
   214  107  109 am   BACKBONE|DICT|INTERRES
   215  109  110 1    
   216  109  230 1    
   217  110  111 1    
   218  110  112 1    
   219  110  231 1    
   220  111  232 1    
   221  111  233 1    
   222  111  234 1    
   223  112  113 2    
   224  112  114 am   BACKBONE|DICT|INTERRES
   225  114  115 1    
   226  114  235 1    
   227  115  116 1    
   228  115  117 1    
   229  115  236 1    
   230  116  237 1    
   231  116  238 1    
   232  116  239 1    
   233  117  118 2    
   234  117  119 am   BACKBONE|DICT|INTERRES
   235  119  120 1    
   236  119  240 1    
   237  120  121 1    
   238  120  124 1    
   239  120  241 1    
   240  121  122 am   BACKBONE|DICT|INTERRES
   241  121  123 2    
   242  122  242 1    
   243  122  243 1    
   244  124  125 1    
   245  124  244 1    
   246  124  245 1    
   247  125  126 1    
   248  126  246 1    
   249  126  247 1    
@<TRIPOS>SUBSTRUCTURE
     1 UNK         1 GROUP             0       ****    0 ROOT    
