@<TRIPOS>MOLECULE
3R540
247   249    1
SMALL
USER_CHARGES


@<TRIPOS>ATOM
      1 CA         -0.4669   -7.2733  -47.9791 C.3       0 UNK        -0.1800 
      2 C           0.3682   -8.3967  -48.5778 C.2       0 UNK         0.5000 
      3 O           1.0801   -8.1750  -49.5580 O.2       0 UNK        -0.5000 
      4 N           0.2777   -9.6004  -47.9987 N.am      1 UNK        -0.5000 
      5 CA          1.0584  -10.7787  -48.3895 C.3       1 UNK         0.1400 
      6 C6          0.4192  -12.0800  -47.8414 C.3       23 UNK        -0.0398 
      7 S7          0.7414  -13.5211  -48.9114 S.3       23 UNK        -0.2404 
      8 C8          0.0401  -14.8354  -47.8729 C.3       23 UNK        -0.0205 
      9 C9         -0.0101  -16.1694  -48.5998 C.ar      23 UNK        -0.0193 
     10 C10        -1.2133  -16.6340  -49.1396 C.ar      23 UNK        -0.1150 
     11 C11        -1.2753  -17.8656  -49.7995 C.ar      23 UNK        -0.0193 
     12 C12        -0.1090  -18.6333  -49.9075 C.ar      23 UNK        -0.1150 
     13 C13         1.1021  -18.1816  -49.3747 C.ar      23 UNK        -0.0193 
     14 C14         1.1434  -16.9483  -48.7190 C.ar      23 UNK        -0.1150 
     15 C15         2.3716  -19.0157  -49.5107 C.3       23 UNK        -0.0205 
     16 S16         2.1461  -20.7650  -49.0460 S.3       23 UNK        -0.2404 
     17 C17         1.6222  -20.6012  -47.3079 C.3       23 UNK        -0.0398 
     18 CA          0.7774  -21.7939  -46.8071 C.3       11 UNK         0.1400 
     19 N           0.6975  -21.7951  -45.3470 N.am      11 UNK        -0.5000 
     20 C           0.2483  -22.8085  -44.5983 C.2       10 UNK         0.5000 
     21 O          -0.1376  -23.8805  -45.0627 O.2       10 UNK        -0.5000 
     22 CA          0.1852  -22.5667  -43.0786 C.3       10 UNK         0.1400 
     23 CB          1.5715  -22.7329  -42.4388 C.3       10 UNK        -0.1800 
     24 N          -0.3572  -21.2497  -42.7387 N.am      10 UNK        -0.5000 
     25 C          -1.6093  -20.8574  -43.0151 C.2       9 UNK         0.5000 
     26 O          -2.4467  -21.5768  -43.5587 O.2       9 UNK        -0.5000 
     27 CA         -1.9776  -19.4045  -42.6682 C.3       9 UNK         0.1400 
     28 CB         -2.2565  -19.2542  -41.1654 C.3       9 UNK        -0.1800 
     29 N          -0.9516  -18.4466  -43.0797 N.am      9 UNK        -0.5000 
     30 C          -0.5677  -18.2437  -44.3490 C.2       8 UNK         0.5000 
     31 O          -1.0529  -18.8267  -45.3161 O.2       8 UNK        -0.5000 
     32 CA          0.5928  -17.2631  -44.5714 C.3       8 UNK         0.1400 
     33 CB          0.1149  -15.8138  -44.3921 C.3       8 UNK        -0.1800 
     34 N           1.7110  -17.5205  -43.6686 N.am      8 UNK        -0.5000 
     35 C           2.4022  -18.6635  -43.5765 C.2       7 UNK         0.5000 
     36 O           2.2107  -19.6425  -44.2942 O.2       7 UNK        -0.5000 
     37 CA          3.4473  -18.7433  -42.4526 C.3       7 UNK         0.1400 
     38 CB          4.7593  -18.0577  -42.8638 C.3       7 UNK        -0.1800 
     39 N           2.9529  -18.1538  -41.2091 N.am      7 UNK        -0.5000 
     40 C           1.9832  -18.6830  -40.4511 C.2       6 UNK         0.5000 
     41 O           1.4180  -19.7477  -40.7056 O.2       6 UNK        -0.5000 
     42 CA          1.5566  -17.8646  -39.2181 C.3       6 UNK         0.1400 
     43 CB          2.5316  -18.0899  -38.0527 C.3       6 UNK        -0.1800 
     44 N           1.4565  -16.4299  -39.4985 N.am      6 UNK        -0.5000 
     45 C           0.5132  -15.8865  -40.2797 C.2       5 UNK         0.5000 
     46 O          -0.3692  -16.5402  -40.8366 O.2       5 UNK        -0.5000 
     47 CA          0.5851  -14.3625  -40.5098 C.3       5 UNK         0.1400 
     48 CB         -0.0427  -13.6116  -39.3257 C.3       5 UNK        -0.1800 
     49 N           1.9252  -13.8182  -40.7735 N.am      5 UNK        -0.5000 
     50 C           2.7856  -14.2798  -41.6906 C.2       4 UNK         0.5000 
     51 O           2.6258  -15.3346  -42.3026 O.2       4 UNK        -0.5000 
     52 CA          4.0510  -13.4448  -41.9622 C.3       4 UNK         0.1400 
     53 CB          5.1262  -13.7496  -40.9080 C.3       4 UNK        -0.1800 
     54 N           4.5965  -13.7421  -43.2904 N.am      4 UNK        -0.5000 
     55 C           4.0018  -13.4234  -44.4480 C.2       3 UNK         0.5000 
     56 O           3.0049  -12.7015  -44.5351 O.2       3 UNK        -0.5000 
     57 CA          4.5914  -14.0725  -45.7131 C.3       3 UNK         0.1400 
     58 CB          3.8905  -15.4095  -46.0055 C.3       3 UNK        -0.1800 
     59 N           4.4440  -13.2009  -46.8764 N.am      3 UNK        -0.5000 
     60 C           5.2382  -12.1575  -47.1486 C.2       2 UNK         0.5000 
     61 O           6.2249  -11.8554  -46.4757 O.2       2 UNK        -0.5000 
     62 CA          4.8766  -11.3119  -48.3858 C.3       2 UNK         0.1400 
     63 CB          5.6308  -11.8215  -49.6237 C.3       2 UNK        -0.1800 
     64 N           3.4403  -11.2965  -48.6748 N.am      2 UNK        -0.5000 
     65 C           2.5311  -10.6393  -47.9435 C.2       1 UNK         0.5000 
     66 O           2.8146   -9.9614  -46.9519 O.2       1 UNK        -0.5000 
     67 C          -0.6221  -21.8596  -47.4594 C.2       11 UNK         0.5000 
     68 O          -0.8235  -22.6519  -48.3796 O.2       11 UNK        -0.5000 
     69 N          -1.5840  -21.0858  -46.9368 N.am      12 UNK        -0.5000 
     70 CA         -2.9831  -21.1095  -47.3660 C.3       12 UNK         0.1400 
     71 CB         -3.7414  -19.9399  -46.7219 C.3       12 UNK        -0.1800 
     72 C          -3.6837  -22.4477  -47.0648 C.2       12 UNK         0.5000 
     73 O          -4.4928  -22.8975  -47.8751 O.2       12 UNK        -0.5000 
     74 N          -3.3474  -23.0733  -45.9272 N.am      13 UNK        -0.5000 
     75 CA         -3.8146  -24.4089  -45.5535 C.3       13 UNK         0.1400 
     76 CB         -3.5005  -24.6772  -44.0741 C.3       13 UNK        -0.1800 
     77 C          -3.2251  -25.5134  -46.4503 C.2       13 UNK         0.5000 
     78 O          -3.9385  -26.4588  -46.7860 O.2       13 UNK        -0.5000 
     79 N          -1.9490  -25.3696  -46.8387 N.am      14 UNK        -0.5000 
     80 CA         -1.2672  -26.2491  -47.7906 C.3       14 UNK         0.1400 
     81 CB          0.2416  -25.9606  -47.7830 C.3       14 UNK        -0.1800 
     82 C          -1.8504  -26.1320  -49.2114 C.2       14 UNK         0.5000 
     83 O          -2.0570  -27.1520  -49.8700 O.2       14 UNK        -0.5000 
     84 N          -2.1755  -24.9031  -49.6352 N.am      15 UNK        -0.5000 
     85 CA         -2.8877  -24.5759  -50.8747 C.3       15 UNK         0.1400 
     86 CB         -2.5601  -23.1226  -51.2594 C.3       15 UNK        -0.1800 
     87 C          -4.4107  -24.8284  -50.7616 C.2       15 UNK         0.5000 
     88 O          -5.2141  -23.9639  -51.1245 O.2       15 UNK        -0.5000 
     89 N          -4.7709  -26.0113  -50.2445 N.am      16 UNK        -0.5000 
     90 CA         -6.1209  -26.4597  -49.9075 C.3       16 UNK         0.1400 
     91 CB         -6.0478  -27.9072  -49.3973 C.3       16 UNK        -0.1800 
     92 C          -7.1180  -26.3593  -51.0746 C.2       16 UNK         0.5000 
     93 O          -6.7550  -26.6329  -52.2206 O.2       16 UNK        -0.5000 
     94 N          -8.3593  -25.9788  -50.7408 N.am      17 UNK        -0.5000 
     95 CA         -9.4805  -25.7292  -51.6551 C.3       17 UNK         0.1400 
     96 CB         -9.9167  -27.0277  -52.3674 C.3       17 UNK        -0.1800 
     97 C          -9.2185  -24.5591  -52.6297 C.2       17 UNK         0.5000 
     98 O          -9.7291  -24.5722  -53.7511 O.2       17 UNK        -0.5000 
     99 N          -8.4404  -23.5655  -52.1675 N.am      18 UNK        -0.5000 
    100 CA        -8.0219  -22.3546  -52.8820 C.3       18 UNK         0.1400 
    101 CB        -9.2373  -21.4430  -53.1582 C.3       18 UNK        -0.1800 
    102 C         -7.2076  -22.6886  -54.1481 C.2       18 UNK         0.5000 
    103 O         -7.5812  -22.2935  -55.2547 O.2       18 UNK        -0.5000 
    104 N         -6.1272  -23.4572  -53.9616 N.am      19 UNK        -0.5000 
    105 CA        -5.2453  -23.8995  -55.0395 C.3       19 UNK         0.1400 
    106 CB        -4.3546  -25.0433  -54.5331 C.3       19 UNK        -0.1800 
    107 C         -4.3785  -22.7493  -55.5818 C.2       19 UNK         0.5000 
    108 O         -3.8382  -21.9660  -54.7967 O.2       19 UNK        -0.5000 
    109 N         -4.2257  -22.7098  -56.9129 N.am      20 UNK        -0.5000 
    110 CA        -3.3840  -21.7847  -57.6780 C.3       20 UNK         0.1400 
    111 CB        -1.8969  -22.1735  -57.5103 C.3       20 UNK        -0.1800 
    112 C         -3.6917  -20.3037  -57.3609 C.2       20 UNK         0.5000 
    113 O         -4.8545  -19.8984  -57.4304 O.2       20 UNK        -0.5000 
    114 N         -2.6592  -19.5279  -57.0038 N.am      21 UNK        -0.5000 
    115 CA        -2.7344  -18.1065  -56.6570 C.3       21 UNK         0.1400 
    116 CB        -1.3069  -17.5663  -56.4786 C.3       21 UNK        -0.1800 
    117 C         -3.5856  -17.7983  -55.4082 C.2       21 UNK         0.5000 
    118 O         -4.0395  -16.6626  -55.2608 O.2       21 UNK        -0.5000 
    119 N         -3.7982  -18.7998  -54.5451 N.am      22 UNK        -0.5000 
    120 CA        -4.6731  -18.7104  -53.3661 C.3       22 UNK         0.1400 
    121 C         -6.1855  -18.8715  -53.6959 C.2       22 UNK         0.5000 
    122 N         -6.5770  -19.1761  -54.9285 N.am      22 UNK        -0.7600 
    123 O         -7.0231  -18.7045  -52.8144 O.2       22 UNK        -0.5000 
    124 C124       -4.2394  -19.6821  -52.2379 C.3       23 UNK        -0.0398 
    125 S125       -2.4859  -19.4789  -51.7778 S.3       23 UNK        -0.2404 
    126 C126       -2.6174  -18.3430  -50.3557 C.3       23 UNK        -0.0205 
    127 H127        0.1803   -6.4634  -47.6427 H         1 UNK         0.0600 
    128 H128       -1.0550   -7.6147  -47.1268 H         1 UNK         0.0600 
    129 H129       -1.1524   -6.8753  -48.7273 H         1 UNK         0.0600 
    130 H130       -0.2954   -9.7066  -47.1742 H         1 UNK         0.3000 
    131 H131        1.0401  -10.8173  -49.4813 H         1 UNK         0.0600 
    132 H132        0.7450  -12.2912  -46.8202 H         1 UNK         0.0800 
    133 H133       -0.6655  -11.9711  -47.7916 H         1 UNK         0.0800 
    134 H134       -0.9591  -14.5474  -47.5421 H         1 UNK         0.0800 
    135 H135        0.6490  -14.9313  -46.9763 H         1 UNK         0.0800 
    136 H136       -2.1075  -16.0342  -49.0426 H         1 UNK         0.1150 
    137 H137       -0.1351  -19.5938  -50.4010 H         1 UNK         0.1150 
    138 H138        2.0743  -16.5883  -48.3042 H         1 UNK         0.1150 
    139 H139        2.7099  -18.9682  -50.5464 H         1 UNK         0.0800 
    140 H140        3.1757  -18.5970  -48.9032 H         1 UNK         0.0800 
    141 H141        1.0857  -19.6651  -47.1470 H         1 UNK         0.0800 
    142 H142        2.5381  -20.5256  -46.7212 H         1 UNK         0.0800 
    143 H143        1.3031  -22.7094  -47.0874 H         1 UNK         0.0600 
    144 H144        1.0410  -20.9587  -44.8801 H         1 UNK         0.3000 
    145 H145       -0.4781  -23.3212  -42.6507 H         1 UNK         0.0600 
    146 H146        1.5181  -22.6380  -41.3541 H         1 UNK         0.0600 
    147 H147        1.9884  -23.7162  -42.6601 H         1 UNK         0.0600 
    148 H148        2.2772  -21.9863  -42.8040 H         1 UNK         0.0600 
    149 H149        0.2670  -20.6053  -42.2657 H         1 UNK         0.3000 
    150 H150       -2.8941  -19.1589  -43.2086 H         1 UNK         0.0600 
    151 H151       -3.0186  -19.9615  -40.8360 H         1 UNK         0.0600 
    152 H152       -2.6194  -18.2533  -40.9314 H         1 UNK         0.0600 
    153 H153       -1.3613  -19.4321  -40.5687 H         1 UNK         0.0600 
    154 H154       -0.5217  -17.8976  -42.3421 H         1 UNK         0.3000 
    155 H155        0.9526  -17.3878  -45.5947 H         1 UNK         0.0600 
    156 H156       -0.2400  -15.6292  -43.3790 H         1 UNK         0.0600 
    157 H157       -0.7095  -15.5874  -45.0686 H         1 UNK         0.0600 
    158 H158        0.9161  -15.1024  -44.5927 H         1 UNK         0.0600 
    159 H159        1.9787  -16.7505  -43.0554 H         1 UNK         0.3000 
    160 H160        3.6592  -19.7990  -42.2707 H         1 UNK         0.0600 
    161 H161        5.5326  -18.2079  -42.1105 H         1 UNK         0.0600 
    162 H162        4.6317  -16.9839  -42.9998 H         1 UNK         0.0600 
    163 H163        5.1359  -18.4660  -43.8025 H         1 UNK         0.0600 
    164 H164        3.3002  -17.2351  -40.9755 H         1 UNK         0.3000 
    165 H165        0.5717  -18.2216  -38.9091 H         1 UNK         0.0600 
    166 H166        2.1919  -17.5801  -37.1510 H         1 UNK         0.0600 
    167 H167        2.6143  -19.1509  -37.8133 H         1 UNK         0.0600 
    168 H168        3.5331  -17.7269  -38.2869 H         1 UNK         0.0600 
    169 H169        2.1542  -15.8269  -39.0882 H         1 UNK         0.3000 
    170 H170       -0.0173  -14.1486  -41.3945 H         1 UNK         0.0600 
    171 H171       -1.0472  -13.9816  -39.1153 H         1 UNK         0.0600 
    172 H172        0.5476  -13.7288  -38.4161 H         1 UNK         0.0600 
    173 H173       -0.1294  -12.5453  -39.5350 H         1 UNK         0.0600 
    174 H174        2.1522  -12.9595  -40.2932 H         1 UNK         0.3000 
    175 H175        3.7918  -12.3851  -41.9176 H         1 UNK         0.0600 
    176 H176        5.4100  -14.8030  -40.9149 H         1 UNK         0.0600 
    177 H177        6.0259  -13.1586  -41.0804 H         1 UNK         0.0600 
    178 H178        4.7714  -13.5120  -39.9043 H         1 UNK         0.0600 
    179 H179        5.3908  -14.3639  -43.3101 H         1 UNK         0.3000 
    180 H180        5.6533  -14.2686  -45.5492 H         1 UNK         0.0600 
    181 H181        2.8257  -15.2726  -46.1889 H         1 UNK         0.0600 
    182 H182        3.9883  -16.0968  -45.1652 H         1 UNK         0.0600 
    183 H183        4.3214  -15.9005  -46.8782 H         1 UNK         0.0600 
    184 H184        3.6299  -13.3480  -47.4536 H         1 UNK         0.3000 
    185 H185        5.1992  -10.2869  -48.1906 H         1 UNK         0.0600 
    186 H186        6.7080  -11.8230  -49.4514 H         1 UNK         0.0600 
    187 H187        5.3386  -12.8400  -49.8829 H         1 UNK         0.0600 
    188 H188        5.4427  -11.1866  -50.4897 H         1 UNK         0.0600 
    189 H189        3.1331  -11.8372  -49.4711 H         1 UNK         0.3000 
    190 H190       -1.3462  -20.4157  -46.2082 H         1 UNK         0.3000 
    191 H191       -2.9984  -20.9694  -48.4485 H         1 UNK         0.0600 
    192 H192       -3.7358  -20.0097  -45.6335 H         1 UNK         0.0600 
    193 H193       -4.7823  -19.9218  -47.0469 H         1 UNK         0.0600 
    194 H194       -3.2971  -18.9832  -46.9972 H         1 UNK         0.0600 
    195 H195       -2.7326  -22.6038  -45.2700 H         1 UNK         0.3000 
    196 H196       -4.8997  -24.4309  -45.6743 H         1 UNK         0.0600 
    197 H197       -3.9844  -23.9432  -43.4297 H         1 UNK         0.0600 
    198 H198       -2.4296  -24.6424  -43.8746 H         1 UNK         0.0600 
    199 H199       -3.8589  -25.6618  -43.7715 H         1 UNK         0.0600 
    200 H200       -1.4063  -24.6024  -46.4556 H         1 UNK         0.3000 
    201 H201       -1.4128  -27.2785  -47.4564 H         1 UNK         0.0600 
    202 H202        0.6622  -26.0894  -46.7856 H         1 UNK         0.0600 
    203 H203        0.4635  -24.9451  -48.1099 H         1 UNK         0.0600 
    204 H204        0.7708  -26.6417  -48.4503 H         1 UNK         0.0600 
    205 H205       -1.9326  -24.1145  -49.0421 H         1 UNK         0.3000 
    206 H206       -2.5123  -25.2230  -51.6695 H         1 UNK         0.0600 
    207 H207       -3.0090  -22.8546  -52.2163 H         1 UNK         0.0600 
    208 H208       -2.9325  -22.4194  -50.5136 H         1 UNK         0.0600 
    209 H209       -1.4850  -22.9689  -51.3527 H         1 UNK         0.0600 
    210 H210       -4.0216  -26.6540  -50.0160 H         1 UNK         0.3000 
    211 H211       -6.4691  -25.8219  -49.0927 H         1 UNK         0.0600 
    212 H212       -5.6646  -28.5825  -50.1634 H         1 UNK         0.0600 
    213 H213       -7.0332  -28.2699  -49.1022 H         1 UNK         0.0600 
    214 H214       -5.3990  -27.9883  -48.5252 H         1 UNK         0.0600 
    215 H215       -8.5546  -25.7949  -49.7662 H         1 UNK         0.3000 
    216 H216      -10.3141  -25.4098  -51.0280 H         1 UNK         0.0600 
    217 H217      -10.8475  -26.8785  -52.9158 H         1 UNK         0.0600 
    218 H218      -10.0893  -27.8315  -51.6518 H         1 UNK         0.0600 
    219 H219       -9.1694  -27.3700  -53.0836 H         1 UNK         0.0600 
    220 H220       -8.0370  -23.6826  -51.2487 H         1 UNK         0.3000 
    221 H221       -7.3482  -21.8127  -52.2160 H         1 UNK         0.0600 
    222 H222       -9.9554  -21.9093  -53.8330 H         1 UNK         0.0600 
    223 H223       -9.7586  -21.1924  -52.2345 H         1 UNK         0.0600 
    224 H224       -8.9265  -20.5053  -53.6176 H         1 UNK         0.0600 
    225 H225       -5.8682  -23.7231  -53.0166 H         1 UNK         0.3000 
    226 H226       -5.8693  -24.2887  -55.8469 H         1 UNK         0.0600 
    227 H227       -3.7445  -25.4482  -55.3413 H         1 UNK         0.0600 
    228 H228       -3.6757  -24.7051  -53.7518 H         1 UNK         0.0600 
    229 H229       -4.9498  -25.8638  -54.1324 H         1 UNK         0.0600 
    230 H230       -4.7406  -23.3773  -57.4695 H         1 UNK         0.3000 
    231 H231       -3.6451  -21.9260  -58.7277 H         1 UNK         0.0600 
    232 H232       -1.7358  -23.2156  -57.7869 H         1 UNK         0.0600 
    233 H233       -1.5545  -22.0522  -56.4817 H         1 UNK         0.0600 
    234 H234       -1.2527  -21.5737  -58.1545 H         1 UNK         0.0600 
    235 H235       -1.7442  -19.9511  -56.9507 H         1 UNK         0.3000 
    236 H236       -3.1953  -17.5851  -57.4984 H         1 UNK         0.0600 
    237 H237       -0.7169  -17.6990  -57.3857 H         1 UNK         0.0600 
    238 H238       -1.3174  -16.4990  -56.2533 H         1 UNK         0.0600 
    239 H239       -0.7875  -18.0686  -55.6613 H         1 UNK         0.0600 
    240 H240       -3.4214  -19.7181  -54.7444 H         1 UNK         0.3000 
    241 H241       -4.5752  -17.7018  -52.9604 H         1 UNK         0.0600 
    242 H242       -5.9025  -19.3410  -55.6659 H         1 UNK         0.3800 
    243 H243       -7.5587  -19.2801  -55.1262 H         1 UNK         0.3800 
    244 H244       -4.8571  -19.5447  -51.3488 H         1 UNK         0.0800 
    245 H245       -4.3901  -20.7168  -52.5482 H         1 UNK         0.0800 
    246 H246       -3.2090  -17.4799  -50.6648 H         1 UNK         0.0800 
    247 H247       -3.1726  -18.8327  -49.5562 H         1 UNK         0.0800 
@<TRIPOS>BOND
     1    1    2 1    
     2    1  127 1    
     3    1  128 1    
     4    1  129 1    
     5    2    3 2    
     6    2    4 am   BACKBONE|DICT|INTERRES
     7    4    5 1    
     8    4  130 1    
     9    5    6 1    
    10    5   65 1    
    11    5  131 1    
    12    6    7 1    
    13    6  132 1    
    14    6  133 1    
    15    7    8 1    
    16    8    9 1    
    17    8  134 1    
    18    8  135 1    
    19    9   10 ar   
    20    9   14 ar   
    21   10   11 ar   
    22   10  136 1    
    23   11   12 ar   
    24   11  126 1    
    25   12   13 ar   
    26   12  137 1    
    27   13   14 ar   
    28   13   15 1    
    29   14  138 1    
    30   15   16 1    
    31   15  139 1    
    32   15  140 1    
    33   16   17 1    
    34   17   18 1    
    35   17  141 1    
    36   17  142 1    
    37   18   19 1    
    38   18   67 1    
    39   18  143 1    
    40   19   20 am   BACKBONE|DICT|INTERRES
    41   19  144 1    
    42   20   21 2    
    43   20   22 1    
    44   22   23 1    
    45   22   24 1    
    46   22  145 1    
    47   23  146 1    
    48   23  147 1    
    49   23  148 1    
    50   24   25 am   BACKBONE|DICT|INTERRES
    51   24  149 1    
    52   25   26 2    
    53   25   27 1    
    54   27   28 1    
    55   27   29 1    
    56   27  150 1    
    57   28  151 1    
    58   28  152 1    
    59   28  153 1    
    60   29   30 am   BACKBONE|DICT|INTERRES
    61   29  154 1    
    62   30   31 2    
    63   30   32 1    
    64   32   33 1    
    65   32   34 1    
    66   32  155 1    
    67   33  156 1    
    68   33  157 1    
    69   33  158 1    
    70   34   35 am   BACKBONE|DICT|INTERRES
    71   34  159 1    
    72   35   36 2    
    73   35   37 1    
    74   37   38 1    
    75   37   39 1    
    76   37  160 1    
    77   38  161 1    
    78   38  162 1    
    79   38  163 1    
    80   39   40 am   BACKBONE|DICT|INTERRES
    81   39  164 1    
    82   40   41 2    
    83   40   42 1    
    84   42   43 1    
    85   42   44 1    
    86   42  165 1    
    87   43  166 1    
    88   43  167 1    
    89   43  168 1    
    90   44   45 am   BACKBONE|DICT|INTERRES
    91   44  169 1    
    92   45   46 2    
    93   45   47 1    
    94   47   48 1    
    95   47   49 1    
    96   47  170 1    
    97   48  171 1    
    98   48  172 1    
    99   48  173 1    
   100   49   50 am   BACKBONE|DICT|INTERRES
   101   49  174 1    
   102   50   51 2    
   103   50   52 1    
   104   52   53 1    
   105   52   54 1    
   106   52  175 1    
   107   53  176 1    
   108   53  177 1    
   109   53  178 1    
   110   54   55 am   BACKBONE|DICT|INTERRES
   111   54  179 1    
   112   55   56 2    
   113   55   57 1    
   114   57   58 1    
   115   57   59 1    
   116   57  180 1    
   117   58  181 1    
   118   58  182 1    
   119   58  183 1    
   120   59   60 am   BACKBONE|DICT|INTERRES
   121   59  184 1    
   122   60   61 2    
   123   60   62 1    
   124   62   63 1    
   125   62   64 1    
   126   62  185 1    
   127   63  186 1    
   128   63  187 1    
   129   63  188 1    
   130   64   65 am   BACKBONE|DICT|INTERRES
   131   64  189 1    
   132   65   66 2    
   133   67   68 2    
   134   67   69 am   BACKBONE|DICT|INTERRES
   135   69   70 1    
   136   69  190 1    
   137   70   71 1    
   138   70   72 1    
   139   70  191 1    
   140   71  192 1    
   141   71  193 1    
   142   71  194 1    
   143   72   73 2    
   144   72   74 am   BACKBONE|DICT|INTERRES
   145   74   75 1    
   146   74  195 1    
   147   75   76 1    
   148   75   77 1    
   149   75  196 1    
   150   76  197 1    
   151   76  198 1    
   152   76  199 1    
   153   77   78 2    
   154   77   79 am   BACKBONE|DICT|INTERRES
   155   79   80 1    
   156   79  200 1    
   157   80   81 1    
   158   80   82 1    
   159   80  201 1    
   160   81  202 1    
   161   81  203 1    
   162   81  204 1    
   163   82   83 2    
   164   82   84 am   BACKBONE|DICT|INTERRES
   165   84   85 1    
   166   84  205 1    
   167   85   86 1    
   168   85   87 1    
   169   85  206 1    
   170   86  207 1    
   171   86  208 1    
   172   86  209 1    
   173   87   88 2    
   174   87   89 am   BACKBONE|DICT|INTERRES
   175   89   90 1    
   176   89  210 1    
   177   90   91 1    
   178   90   92 1    
   179   90  211 1    
   180   91  212 1    
   181   91  213 1    
   182   91  214 1    
   183   92   93 2    
   184   92   94 am   BACKBONE|DICT|INTERRES
   185   94   95 1    
   186   94  215 1    
   187   95   96 1    
   188   95   97 1    
   189   95  216 1    
   190   96  217 1    
   191   96  218 1    
   192   96  219 1    
   193   97   98 2    
   194   97   99 am   BACKBONE|DICT|INTERRES
   195   99  100 1    
   196   99  220 1    
   197  100  101 1    
   198  100  102 1    
   199  100  221 1    
   200  101  222 1    
   201  101  223 1    
   202  101  224 1    
   203  102  103 2    
   204  102  104 am   BACKBONE|DICT|INTERRES
   205  104  105 1    
   206  104  225 1    
   207  105  106 1    
   208  105  107 1    
   209  105  226 1    
   210  106  227 1    
   211  106  228 1    
   212  106  229 1    
   213  107  108 2    
   214  107  109 am   BACKBONE|DICT|INTERRES
   215  109  110 1    
   216  109  230 1    
   217  110  111 1    
   218  110  112 1    
   219  110  231 1    
   220  111  232 1    
   221  111  233 1    
   222  111  234 1    
   223  112  113 2    
   224  112  114 am   BACKBONE|DICT|INTERRES
   225  114  115 1    
   226  114  235 1    
   227  115  116 1    
   228  115  117 1    
   229  115  236 1    
   230  116  237 1    
   231  116  238 1    
   232  116  239 1    
   233  117  118 2    
   234  117  119 am   BACKBONE|DICT|INTERRES
   235  119  120 1    
   236  119  240 1    
   237  120  121 1    
   238  120  124 1    
   239  120  241 1    
   240  121  122 am   BACKBONE|DICT|INTERRES
   241  121  123 2    
   242  122  242 1    
   243  122  243 1    
   244  124  125 1    
   245  124  244 1    
   246  124  245 1    
   247  125  126 1    
   248  126  246 1    
   249  126  247 1    
@<TRIPOS>SUBSTRUCTURE
     1 UNK         1 GROUP             0       ****    0 ROOT    
