@<TRIPOS>MOLECULE
3R540
247   249    1
SMALL
USER_CHARGES


@<TRIPOS>ATOM
      1 CA          3.2365  -18.8821  -50.8977 C.3       0 UNK        -0.1800 
      2 C           2.4570  -18.0156  -49.9198 C.2       0 UNK         0.5000 
      3 O           2.2252  -18.4245  -48.7810 O.2       0 UNK        -0.5000 
      4 N           2.0555  -16.8133  -50.3455 N.am      1 UNK        -0.5000 
      5 CA          1.2988  -15.8482  -49.5438 C.3       1 UNK         0.1400 
      6 C6          0.4002  -14.9405  -50.4193 C.3       23 UNK        -0.0398 
      7 S7         -0.9676  -15.8847  -51.1710 S.3       23 UNK        -0.2404 
      8 C8         -2.2110  -15.7210  -49.8532 C.3       23 UNK        -0.0205 
      9 C9         -3.4819  -16.4873  -50.1757 C.ar      23 UNK        -0.0193 
     10 C10        -4.5689  -15.8299  -50.7583 C.ar      23 UNK        -0.1150 
     11 C11        -5.7516  -16.5217  -51.0313 C.ar      23 UNK        -0.0193 
     12 C12        -5.8476  -17.8763  -50.7020 C.ar      23 UNK        -0.1150 
     13 C13        -4.7659  -18.5460  -50.1247 C.ar      23 UNK        -0.0193 
     14 C14        -3.5808  -17.8484  -49.8711 C.ar      23 UNK        -0.1150 
     15 C15        -4.8835  -20.0264  -49.8007 C.3       23 UNK        -0.0205 
     16 S16        -5.5860  -20.3134  -48.1443 S.3       23 UNK        -0.2404 
     17 C17        -4.1005  -20.1606  -47.1003 C.3       23 UNK        -0.0398 
     18 CA         -3.2448  -21.4568  -47.1314 C.3       11 UNK         0.1400 
     19 N          -1.8382  -21.1780  -47.4362 N.am      11 UNK        -0.5000 
     20 C          -0.8925  -22.1053  -47.6392 C.2       10 UNK         0.5000 
     21 O          -1.1259  -23.3109  -47.6876 O.2       10 UNK        -0.5000 
     22 CA          0.5639  -21.6270  -47.7709 C.3       10 UNK         0.1400 
     23 CB          0.9804  -21.6232  -49.2455 C.3       10 UNK        -0.1800 
     24 N           0.8290  -20.3037  -47.2049 N.am      10 UNK        -0.5000 
     25 C           0.5886  -19.9073  -45.9502 C.2       9 UNK         0.5000 
     26 O           0.0801  -20.6232  -45.0824 O.2       9 UNK        -0.5000 
     27 CA          0.8720  -18.4230  -45.6745 C.3       9 UNK         0.1400 
     28 CB         -0.3308  -17.5828  -46.1332 C.3       9 UNK        -0.1800 
     29 N           1.1455  -18.1448  -44.2698 N.am      9 UNK        -0.5000 
     30 C           2.1905  -18.6193  -43.5775 C.2       8 UNK         0.5000 
     31 O           3.0793  -19.3194  -44.0635 O.2       8 UNK        -0.5000 
     32 CA          2.2655  -18.2268  -42.0940 C.3       8 UNK         0.1400 
     33 CB          3.1730  -17.0000  -41.9140 C.3       8 UNK        -0.1800 
     34 N           0.9335  -17.9543  -41.5462 N.am      8 UNK        -0.5000 
     35 C           0.1285  -18.9117  -41.0610 C.2       7 UNK         0.5000 
     36 O           0.4737  -20.0854  -40.9205 O.2       7 UNK        -0.5000 
     37 CA         -1.3029  -18.5046  -40.6724 C.3       7 UNK         0.1400 
     38 CB         -1.3642  -18.0969  -39.1928 C.3       7 UNK        -0.1800 
     39 N          -1.8251  -17.4221  -41.5077 N.am      7 UNK        -0.5000 
     40 C          -2.3453  -17.6044  -42.7318 C.2       6 UNK         0.5000 
     41 O          -2.4061  -18.7057  -43.2774 O.2       6 UNK        -0.5000 
     42 CA         -2.8607  -16.3681  -43.5026 C.3       6 UNK         0.1400 
     43 CB         -4.1806  -16.6469  -44.2506 C.3       6 UNK        -0.1800 
     44 N          -2.9462  -15.1441  -42.7022 N.am      6 UNK        -0.5000 
     45 C          -3.7530  -14.8691  -41.6668 C.2       5 UNK         0.5000 
     46 O          -4.6548  -15.6108  -41.2755 O.2       5 UNK        -0.5000 
     47 CA         -3.4556  -13.5394  -40.9338 C.3       5 UNK         0.1400 
     48 CB         -3.9513  -13.5393  -39.4724 C.3       5 UNK        -0.1800 
     49 N          -2.0354  -13.1524  -41.0053 N.am      5 UNK        -0.5000 
     50 C          -0.9903  -13.8600  -40.5462 C.2       4 UNK         0.5000 
     51 O          -1.1009  -14.9362  -39.9597 O.2       4 UNK        -0.5000 
     52 CA          0.4041  -13.3074  -40.8996 C.3       4 UNK         0.1400 
     53 CB          1.5498  -14.1440  -40.2969 C.3       4 UNK        -0.1800 
     54 N           0.5668  -13.1625  -42.3522 N.am      4 UNK        -0.5000 
     55 C           0.4873  -14.1191  -43.2913 C.2       3 UNK         0.5000 
     56 O           0.3118  -15.3168  -43.0494 O.2       3 UNK        -0.5000 
     57 CA          0.5200  -13.6563  -44.7634 C.3       3 UNK         0.1400 
     58 CB          0.6886  -12.1319  -44.9598 C.3       3 UNK        -0.1800 
     59 N           1.4914  -14.3942  -45.5723 N.am      3 UNK        -0.5000 
     60 C           2.8281  -14.3882  -45.4665 C.2       2 UNK         0.5000 
     61 O           3.4428  -13.7812  -44.5891 O.2       2 UNK        -0.5000 
     62 CA          3.6213  -15.1758  -46.5366 C.3       2 UNK         0.1400 
     63 CB          4.4387  -16.3077  -45.8961 C.3       2 UNK        -0.1800 
     64 N           2.7871  -15.7405  -47.6055 N.am      2 UNK        -0.5000 
     65 C           2.2366  -15.0498  -48.6134 C.2       1 UNK         0.5000 
     66 O           2.4331  -13.8491  -48.8036 O.2       1 UNK        -0.5000 
     67 C          -3.4211  -22.3070  -45.8539 C.2       11 UNK         0.5000 
     68 O          -4.2712  -23.1976  -45.8336 O.2       11 UNK        -0.5000 
     69 N          -2.5794  -22.0532  -44.8431 N.am      12 UNK        -0.5000 
     70 CA         -2.4957  -22.8509  -43.6233 C.3       12 UNK         0.1400 
     71 CB         -2.3755  -21.9135  -42.4131 C.3       12 UNK        -0.1800 
     72 C          -1.2965  -23.8099  -43.6774 C.2       12 UNK         0.5000 
     73 O          -1.4422  -24.9812  -43.3278 O.2       12 UNK        -0.5000 
     74 N          -0.1322  -23.3012  -44.1053 N.am      13 UNK        -0.5000 
     75 CA          1.1532  -23.9973  -44.0193 C.3       13 UNK         0.1400 
     76 CB          2.2875  -22.9719  -44.1736 C.3       13 UNK        -0.1800 
     77 C           1.3311  -25.1566  -45.0183 C.2       13 UNK         0.5000 
     78 O           2.1469  -26.0421  -44.7578 O.2       13 UNK        -0.5000 
     79 N           0.5928  -25.1372  -46.1352 N.am      14 UNK        -0.5000 
     80 CA          0.6925  -26.1221  -47.2151 C.3       14 UNK         0.1400 
     81 CB          1.6129  -25.5697  -48.3195 C.3       14 UNK        -0.1800 
     82 C          -0.6907  -26.5223  -47.7605 C.2       14 UNK         0.5000 
     83 O          -0.7732  -27.0269  -48.8799 O.2       14 UNK        -0.5000 
     84 N          -1.7552  -26.2754  -46.9807 N.am      15 UNK        -0.5000 
     85 CA         -3.1603  -26.5815  -47.2824 C.3       15 UNK         0.1400 
     86 CB         -3.4020  -28.1019  -47.1809 C.3       15 UNK        -0.1800 
     87 C          -3.6685  -25.9835  -48.6166 C.2       15 UNK         0.5000 
     88 O          -4.4566  -26.6207  -49.3175 O.2       15 UNK        -0.5000 
     89 N          -3.1993  -24.7691  -48.9378 N.am      16 UNK        -0.5000 
     90 CA         -3.5197  -23.9700  -50.1255 C.3       16 UNK         0.1400 
     91 CB         -5.0308  -23.6678  -50.2158 C.3       16 UNK        -0.1800 
     92 C          -2.9332  -24.5237  -51.4394 C.2       16 UNK         0.5000 
     93 O          -3.4302  -24.1867  -52.5147 O.2       16 UNK        -0.5000 
     94 N          -1.8510  -25.3120  -51.3499 N.am      17 UNK        -0.5000 
     95 CA         -1.1071  -25.8289  -52.5054 C.3       17 UNK         0.1400 
     96 CB         -0.1129  -26.8988  -52.0312 C.3       17 UNK        -0.1800 
     97 C          -0.3714  -24.7403  -53.3171 C.2       17 UNK         0.5000 
     98 O          -0.0618  -24.9694  -54.4869 O.2       17 UNK        -0.5000 
     99 N          -0.1114  -23.5840  -52.6932 N.am      18 UNK        -0.5000 
    100 CA         0.5357  -22.4207  -53.2953 C.3       18 UNK         0.1400 
    101 CB         2.0100  -22.3620  -52.8538 C.3       18 UNK        -0.1800 
    102 C         -0.2626  -21.1532  -52.9461 C.2       18 UNK         0.5000 
    103 O          0.2806  -20.2088  -52.3753 O.2       18 UNK        -0.5000 
    104 N         -1.5562  -21.1603  -53.2965 N.am      19 UNK        -0.5000 
    105 CA        -2.5067  -20.0600  -53.0819 C.3       19 UNK         0.1400 
    106 CB        -3.9309  -20.6089  -53.2636 C.3       19 UNK        -0.1800 
    107 C         -2.2795  -18.8201  -53.9792 C.2       19 UNK         0.5000 
    108 O         -3.0084  -17.8368  -53.8408 O.2       19 UNK        -0.5000 
    109 N         -1.2936  -18.8868  -54.8877 N.am      20 UNK        -0.5000 
    110 CA        -0.8538  -17.8314  -55.8032 C.3       20 UNK         0.1400 
    111 CB        -0.1663  -16.6929  -55.0145 C.3       20 UNK        -0.1800 
    112 C         -2.0019  -17.3686  -56.7230 C.2       20 UNK         0.5000 
    113 O         -2.5625  -18.1979  -57.4430 O.2       20 UNK        -0.5000 
    114 N         -2.3549  -16.0770  -56.6689 N.am      21 UNK        -0.5000 
    115 CA        -3.4374  -15.4555  -57.4372 C.3       21 UNK         0.1400 
    116 CB        -3.4310  -13.9427  -57.1682 C.3       21 UNK        -0.1800 
    117 C         -4.8347  -16.0462  -57.1568 C.2       21 UNK         0.5000 
    118 O         -5.7068  -15.9610  -58.0228 O.2       21 UNK        -0.5000 
    119 N         -5.0173  -16.6455  -55.9738 N.am      22 UNK        -0.5000 
    120 CA        -6.2326  -17.3747  -55.5840 C.3       22 UNK         0.1400 
    121 C         -6.2503  -18.8582  -56.0614 C.2       22 UNK         0.5000 
    122 N         -5.2100  -19.3775  -56.7051 N.am      22 UNK        -0.7600 
    123 O         -7.2410  -19.5541  -55.8568 O.2       22 UNK        -0.5000 
    124 C124       -6.4913  -17.2766  -54.0605 C.3       23 UNK        -0.0398 
    125 S125       -6.6482  -15.5543  -53.4737 S.3       23 UNK        -0.2404 
    126 C126       -6.9228  -15.8097  -51.6914 C.3       23 UNK        -0.0205 
    127 H127        2.6936  -19.8058  -51.0934 H         1 UNK         0.0600 
    128 H128        4.2092  -19.1388  -50.4788 H         1 UNK         0.0600 
    129 H129        3.3959  -18.3755  -51.8497 H         1 UNK         0.0600 
    130 H130        2.2807  -16.5206  -51.2853 H         1 UNK         0.3000 
    131 H131        0.6310  -16.4025  -48.8826 H         1 UNK         0.0600 
    132 H132       -0.0259  -14.1233  -49.8342 H         1 UNK         0.0800 
    133 H133        0.9829  -14.4704  -51.2131 H         1 UNK         0.0800 
    134 H134       -2.4402  -14.6650  -49.7015 H         1 UNK         0.0800 
    135 H135       -1.7987  -16.0839  -48.9110 H         1 UNK         0.0800 
    136 H136       -4.4932  -14.7811  -51.0090 H         1 UNK         0.1150 
    137 H137       -6.7617  -18.4155  -50.9076 H         1 UNK         0.1150 
    138 H138       -2.7342  -18.3600  -49.4366 H         1 UNK         0.1150 
    139 H139       -5.5314  -20.5054  -50.5359 H         1 UNK         0.0800 
    140 H140       -3.9128  -20.5155  -49.8918 H         1 UNK         0.0800 
    141 H141       -4.4183  -19.9023  -46.0879 H         1 UNK         0.0800 
    142 H142       -3.5317  -19.2955  -47.4387 H         1 UNK         0.0800 
    143 H143       -3.5951  -22.0872  -47.9476 H         1 UNK         0.0600 
    144 H144       -1.5464  -20.2139  -47.3990 H         1 UNK         0.3000 
    145 H145        1.1873  -22.3483  -47.2412 H         1 UNK         0.0600 
    146 H146        0.7484  -22.5716  -49.7301 H         1 UNK         0.0600 
    147 H147        2.0531  -21.4597  -49.3472 H         1 UNK         0.0600 
    148 H148        0.4672  -20.8367  -49.7990 H         1 UNK         0.0600 
    149 H149        1.2714  -19.6376  -47.8373 H         1 UNK         0.3000 
    150 H150        1.7545  -18.1245  -46.2398 H         1 UNK         0.0600 
    151 H151       -0.4799  -17.6685  -47.2097 H         1 UNK         0.0600 
    152 H152       -0.1982  -16.5275  -45.9045 H         1 UNK         0.0600 
    153 H153       -1.2528  -17.9158  -45.6565 H         1 UNK         0.0600 
    154 H154        0.4799  -17.5651  -43.7798 H         1 UNK         0.3000 
    155 H155        2.7220  -19.0585  -41.5530 H         1 UNK         0.0600 
    156 H156        2.7920  -16.1284  -42.4466 H         1 UNK         0.0600 
    157 H157        4.1744  -17.1991  -42.2978 H         1 UNK         0.0600 
    158 H158        3.2787  -16.7386  -40.8614 H         1 UNK         0.0600 
    159 H159        0.5746  -17.0136  -41.6609 H         1 UNK         0.3000 
    160 H160       -1.9449  -19.3789  -40.7981 H         1 UNK         0.0600 
    161 H161       -0.6611  -17.2961  -38.9633 H         1 UNK         0.0600 
    162 H162       -1.1138  -18.9409  -38.5492 H         1 UNK         0.0600 
    163 H163       -2.3628  -17.7591  -38.9148 H         1 UNK         0.0600 
    164 H164       -1.7692  -16.4866  -41.1193 H         1 UNK         0.3000 
    165 H165       -2.1037  -16.1585  -44.2577 H         1 UNK         0.0600 
    166 H166       -4.5179  -15.7671  -44.7985 H         1 UNK         0.0600 
    167 H167       -4.9774  -16.9460  -43.5695 H         1 UNK         0.0600 
    168 H168       -4.0564  -17.4506  -44.9774 H         1 UNK         0.0600 
    169 H169       -2.2287  -14.4628  -42.8978 H         1 UNK         0.3000 
    170 H170       -4.0119  -12.7691  -41.4697 H         1 UNK         0.0600 
    171 H171       -5.0318  -13.6796  -39.4258 H         1 UNK         0.0600 
    172 H172       -3.4940  -14.3383  -38.8880 H         1 UNK         0.0600 
    173 H173       -3.7273  -12.5930  -38.9801 H         1 UNK         0.0600 
    174 H174       -1.8450  -12.2873  -41.4922 H         1 UNK         0.3000 
    175 H175        0.4663  -12.3053  -40.4727 H         1 UNK         0.0600 
    176 H176        1.4789  -15.1902  -40.5884 H         1 UNK         0.0600 
    177 H177        2.5242  -13.7707  -40.6116 H         1 UNK         0.0600 
    178 H178        1.5214  -14.1109  -39.2074 H         1 UNK         0.0600 
    179 H179        0.7118  -12.2156  -42.6736 H         1 UNK         0.3000 
    180 H180       -0.4582  -13.9200  -45.1677 H         1 UNK         0.0600 
    181 H181        1.6304  -11.7638  -44.5511 H         1 UNK         0.0600 
    182 H182       -0.1225  -11.5773  -44.4864 H         1 UNK         0.0600 
    183 H183        0.6696  -11.8742  -46.0189 H         1 UNK         0.0600 
    184 H184        1.1007  -14.9504  -46.3156 H         1 UNK         0.3000 
    185 H185        4.3234  -14.4724  -46.9889 H         1 UNK         0.0600 
    186 H186        5.1093  -15.9233  -45.1266 H         1 UNK         0.0600 
    187 H187        3.7961  -17.0500  -45.4271 H         1 UNK         0.0600 
    188 H188        5.0548  -16.8180  -46.6367 H         1 UNK         0.0600 
    189 H189        2.6406  -16.7430  -47.5912 H         1 UNK         0.3000 
    190 H190       -1.8825  -21.3239  -44.9492 H         1 UNK         0.3000 
    191 H191       -3.3993  -23.4498  -43.4919 H         1 UNK         0.0600 
    192 H192       -2.2916  -22.4776  -41.4835 H         1 UNK         0.0600 
    193 H193       -3.2504  -21.2690  -42.3272 H         1 UNK         0.0600 
    194 H194       -1.4969  -21.2722  -42.4907 H         1 UNK         0.0600 
    195 H195       -0.0915  -22.3224  -44.3810 H         1 UNK         0.3000 
    196 H196        1.2304  -24.4259  -43.0177 H         1 UNK         0.0600 
    197 H197        2.2807  -22.5036  -45.1573 H         1 UNK         0.0600 
    198 H198        2.2075  -22.1794  -43.4287 H         1 UNK         0.0600 
    199 H199        3.2624  -23.4430  -44.0425 H         1 UNK         0.0600 
    200 H200       -0.0571  -24.3762  -46.2956 H         1 UNK         0.3000 
    201 H201        1.1337  -27.0457  -46.8358 H         1 UNK         0.0600 
    202 H202        1.1728  -24.7001  -48.8058 H         1 UNK         0.0600 
    203 H203        1.7974  -26.3194  -49.0896 H         1 UNK         0.0600 
    204 H204        2.5827  -25.2760  -47.9178 H         1 UNK         0.0600 
    205 H205       -1.5843  -25.8589  -46.0765 H         1 UNK         0.3000 
    206 H206       -3.7492  -26.1016  -46.4993 H         1 UNK         0.0600 
    207 H207       -3.0665  -28.4909  -46.2196 H         1 UNK         0.0600 
    208 H208       -4.4627  -28.3389  -47.2718 H         1 UNK         0.0600 
    209 H209       -2.8754  -28.6465  -47.9654 H         1 UNK         0.0600 
    210 H210       -2.5028  -24.3572  -48.3200 H         1 UNK         0.3000 
    211 H211       -3.0120  -23.0162  -49.9810 H         1 UNK         0.0600 
    212 H212       -5.2385  -22.9281  -50.9887 H         1 UNK         0.0600 
    213 H213       -5.4126  -23.2698  -49.2758 H         1 UNK         0.0600 
    214 H214       -5.6099  -24.5577  -50.4623 H         1 UNK         0.0600 
    215 H215       -1.5263  -25.6026  -50.4352 H         1 UNK         0.3000 
    216 H216       -1.8223  -26.3063  -53.1784 H         1 UNK         0.0600 
    217 H217        0.6124  -26.4886  -51.3279 H         1 UNK         0.0600 
    218 H218        0.4436  -27.3184  -52.8703 H         1 UNK         0.0600 
    219 H219       -0.6278  -27.7250  -51.5405 H         1 UNK         0.0600 
    220 H220       -0.4220  -23.4780  -51.7390 H         1 UNK         0.3000 
    221 H221        0.5169  -22.4988  -54.3843 H         1 UNK         0.0600 
    222 H222        2.5511  -23.2507  -53.1789 H         1 UNK         0.0600 
    223 H223        2.1079  -22.2913  -51.7715 H         1 UNK         0.0600 
    224 H224        2.5154  -21.4983  -53.2876 H         1 UNK         0.0600 
    225 H225       -1.9274  -21.9860  -53.7459 H         1 UNK         0.3000 
    226 H226       -2.4027  -19.7221  -52.0488 H         1 UNK         0.0600 
    227 H227       -4.1060  -20.9404  -54.2876 H         1 UNK         0.0600 
    228 H228       -4.1159  -21.4538  -52.6013 H         1 UNK         0.0600 
    229 H229       -4.6783  -19.8504  -53.0318 H         1 UNK         0.0600 
    230 H230       -0.7860  -19.7558  -54.9506 H         1 UNK         0.3000 
    231 H231       -0.1038  -18.2796  -56.4562 H         1 UNK         0.0600 
    232 H232       -0.8535  -16.1867  -54.3354 H         1 UNK         0.0600 
    233 H233        0.2556  -15.9442  -55.6861 H         1 UNK         0.0600 
    234 H234        0.6560  -17.0809  -54.4129 H         1 UNK         0.0600 
    235 H235       -1.8607  -15.4762  -56.0255 H         1 UNK         0.3000 
    236 H236       -3.2242  -15.6164  -58.4959 H         1 UNK         0.0600 
    237 H237       -2.4765  -13.4952  -57.4457 H         1 UNK         0.0600 
    238 H238       -4.2053  -13.4390  -57.7485 H         1 UNK         0.0600 
    239 H239       -3.6142  -13.7221  -56.1157 H         1 UNK         0.0600 
    240 H240       -4.2439  -16.7015  -55.3216 H         1 UNK         0.3000 
    241 H241       -7.0846  -16.9040  -56.0780 H         1 UNK         0.0600 
    242 H242       -4.3822  -18.8275  -56.9079 H         1 UNK         0.3800 
    243 H243       -5.2551  -20.3347  -57.0152 H         1 UNK         0.3800 
    244 H244       -7.4039  -17.8090  -53.7872 H         1 UNK         0.0800 
    245 H245       -5.6768  -17.7578  -53.5199 H         1 UNK         0.0800 
    246 H246       -7.0739  -14.8407  -51.2136 H         1 UNK         0.0800 
    247 H247       -7.8479  -16.3695  -51.5457 H         1 UNK         0.0800 
@<TRIPOS>BOND
     1    1    2 1    
     2    1  127 1    
     3    1  128 1    
     4    1  129 1    
     5    2    3 2    
     6    2    4 am   BACKBONE|DICT|INTERRES
     7    4    5 1    
     8    4  130 1    
     9    5    6 1    
    10    5   65 1    
    11    5  131 1    
    12    6    7 1    
    13    6  132 1    
    14    6  133 1    
    15    7    8 1    
    16    8    9 1    
    17    8  134 1    
    18    8  135 1    
    19    9   10 ar   
    20    9   14 ar   
    21   10   11 ar   
    22   10  136 1    
    23   11   12 ar   
    24   11  126 1    
    25   12   13 ar   
    26   12  137 1    
    27   13   14 ar   
    28   13   15 1    
    29   14  138 1    
    30   15   16 1    
    31   15  139 1    
    32   15  140 1    
    33   16   17 1    
    34   17   18 1    
    35   17  141 1    
    36   17  142 1    
    37   18   19 1    
    38   18   67 1    
    39   18  143 1    
    40   19   20 am   BACKBONE|DICT|INTERRES
    41   19  144 1    
    42   20   21 2    
    43   20   22 1    
    44   22   23 1    
    45   22   24 1    
    46   22  145 1    
    47   23  146 1    
    48   23  147 1    
    49   23  148 1    
    50   24   25 am   BACKBONE|DICT|INTERRES
    51   24  149 1    
    52   25   26 2    
    53   25   27 1    
    54   27   28 1    
    55   27   29 1    
    56   27  150 1    
    57   28  151 1    
    58   28  152 1    
    59   28  153 1    
    60   29   30 am   BACKBONE|DICT|INTERRES
    61   29  154 1    
    62   30   31 2    
    63   30   32 1    
    64   32   33 1    
    65   32   34 1    
    66   32  155 1    
    67   33  156 1    
    68   33  157 1    
    69   33  158 1    
    70   34   35 am   BACKBONE|DICT|INTERRES
    71   34  159 1    
    72   35   36 2    
    73   35   37 1    
    74   37   38 1    
    75   37   39 1    
    76   37  160 1    
    77   38  161 1    
    78   38  162 1    
    79   38  163 1    
    80   39   40 am   BACKBONE|DICT|INTERRES
    81   39  164 1    
    82   40   41 2    
    83   40   42 1    
    84   42   43 1    
    85   42   44 1    
    86   42  165 1    
    87   43  166 1    
    88   43  167 1    
    89   43  168 1    
    90   44   45 am   BACKBONE|DICT|INTERRES
    91   44  169 1    
    92   45   46 2    
    93   45   47 1    
    94   47   48 1    
    95   47   49 1    
    96   47  170 1    
    97   48  171 1    
    98   48  172 1    
    99   48  173 1    
   100   49   50 am   BACKBONE|DICT|INTERRES
   101   49  174 1    
   102   50   51 2    
   103   50   52 1    
   104   52   53 1    
   105   52   54 1    
   106   52  175 1    
   107   53  176 1    
   108   53  177 1    
   109   53  178 1    
   110   54   55 am   BACKBONE|DICT|INTERRES
   111   54  179 1    
   112   55   56 2    
   113   55   57 1    
   114   57   58 1    
   115   57   59 1    
   116   57  180 1    
   117   58  181 1    
   118   58  182 1    
   119   58  183 1    
   120   59   60 am   BACKBONE|DICT|INTERRES
   121   59  184 1    
   122   60   61 2    
   123   60   62 1    
   124   62   63 1    
   125   62   64 1    
   126   62  185 1    
   127   63  186 1    
   128   63  187 1    
   129   63  188 1    
   130   64   65 am   BACKBONE|DICT|INTERRES
   131   64  189 1    
   132   65   66 2    
   133   67   68 2    
   134   67   69 am   BACKBONE|DICT|INTERRES
   135   69   70 1    
   136   69  190 1    
   137   70   71 1    
   138   70   72 1    
   139   70  191 1    
   140   71  192 1    
   141   71  193 1    
   142   71  194 1    
   143   72   73 2    
   144   72   74 am   BACKBONE|DICT|INTERRES
   145   74   75 1    
   146   74  195 1    
   147   75   76 1    
   148   75   77 1    
   149   75  196 1    
   150   76  197 1    
   151   76  198 1    
   152   76  199 1    
   153   77   78 2    
   154   77   79 am   BACKBONE|DICT|INTERRES
   155   79   80 1    
   156   79  200 1    
   157   80   81 1    
   158   80   82 1    
   159   80  201 1    
   160   81  202 1    
   161   81  203 1    
   162   81  204 1    
   163   82   83 2    
   164   82   84 am   BACKBONE|DICT|INTERRES
   165   84   85 1    
   166   84  205 1    
   167   85   86 1    
   168   85   87 1    
   169   85  206 1    
   170   86  207 1    
   171   86  208 1    
   172   86  209 1    
   173   87   88 2    
   174   87   89 am   BACKBONE|DICT|INTERRES
   175   89   90 1    
   176   89  210 1    
   177   90   91 1    
   178   90   92 1    
   179   90  211 1    
   180   91  212 1    
   181   91  213 1    
   182   91  214 1    
   183   92   93 2    
   184   92   94 am   BACKBONE|DICT|INTERRES
   185   94   95 1    
   186   94  215 1    
   187   95   96 1    
   188   95   97 1    
   189   95  216 1    
   190   96  217 1    
   191   96  218 1    
   192   96  219 1    
   193   97   98 2    
   194   97   99 am   BACKBONE|DICT|INTERRES
   195   99  100 1    
   196   99  220 1    
   197  100  101 1    
   198  100  102 1    
   199  100  221 1    
   200  101  222 1    
   201  101  223 1    
   202  101  224 1    
   203  102  103 2    
   204  102  104 am   BACKBONE|DICT|INTERRES
   205  104  105 1    
   206  104  225 1    
   207  105  106 1    
   208  105  107 1    
   209  105  226 1    
   210  106  227 1    
   211  106  228 1    
   212  106  229 1    
   213  107  108 2    
   214  107  109 am   BACKBONE|DICT|INTERRES
   215  109  110 1    
   216  109  230 1    
   217  110  111 1    
   218  110  112 1    
   219  110  231 1    
   220  111  232 1    
   221  111  233 1    
   222  111  234 1    
   223  112  113 2    
   224  112  114 am   BACKBONE|DICT|INTERRES
   225  114  115 1    
   226  114  235 1    
   227  115  116 1    
   228  115  117 1    
   229  115  236 1    
   230  116  237 1    
   231  116  238 1    
   232  116  239 1    
   233  117  118 2    
   234  117  119 am   BACKBONE|DICT|INTERRES
   235  119  120 1    
   236  119  240 1    
   237  120  121 1    
   238  120  124 1    
   239  120  241 1    
   240  121  122 am   BACKBONE|DICT|INTERRES
   241  121  123 2    
   242  122  242 1    
   243  122  243 1    
   244  124  125 1    
   245  124  244 1    
   246  124  245 1    
   247  125  126 1    
   248  126  246 1    
   249  126  247 1    
@<TRIPOS>SUBSTRUCTURE
     1 UNK         1 GROUP             0       ****    0 ROOT    
