@<TRIPOS>MOLECULE
3R540
247   249    1
SMALL
USER_CHARGES


@<TRIPOS>ATOM
      1 CA          2.6948   -9.1483  -50.2680 C.3       0 UNK        -0.1800 
      2 C           2.9043   -9.8307  -48.9239 C.2       0 UNK         0.5000 
      3 O           3.3854   -9.1995  -47.9817 O.2       0 UNK        -0.5000 
      4 N           2.5427  -11.1155  -48.8258 N.am      1 UNK        -0.5000 
      5 CA          2.6374  -11.9469  -47.6218 C.3       1 UNK         0.1400 
      6 C6          2.7965  -13.4502  -47.9700 C.3       23 UNK        -0.0398 
      7 S7          1.5562  -14.1322  -49.1295 S.3       23 UNK        -0.2404 
      8 C8          1.3829  -15.8170  -48.4671 C.3       23 UNK        -0.0205 
      9 C9          0.5118  -16.6843  -49.3620 C.ar      23 UNK        -0.0193 
     10 C10         1.0732  -17.3742  -50.4412 C.ar      23 UNK        -0.1150 
     11 C11         0.2774  -18.1872  -51.2548 C.ar      23 UNK        -0.0193 
     12 C12        -1.0862  -18.3135  -50.9782 C.ar      23 UNK        -0.1150 
     13 C13        -1.6568  -17.6336  -49.8987 C.ar      23 UNK        -0.0193 
     14 C14        -0.8546  -16.8130  -49.1007 C.ar      23 UNK        -0.1150 
     15 C15        -3.1387  -17.7753  -49.5915 C.3       23 UNK        -0.0205 
     16 S16        -3.4525  -19.0964  -48.3784 S.3       23 UNK        -0.2404 
     17 C17        -3.4105  -20.5918  -49.4267 C.3       23 UNK        -0.0398 
     18 CA         -2.5027  -21.7332  -48.9146 C.3       11 UNK         0.1400 
     19 N          -1.0926  -21.3523  -48.7893 N.am      11 UNK        -0.5000 
     20 C          -0.0926  -22.2394  -48.6626 C.2       10 UNK         0.5000 
     21 O          -0.2602  -23.4559  -48.6903 O.2       10 UNK        -0.5000 
     22 CA          1.3187  -21.6875  -48.3948 C.3       10 UNK         0.1400 
     23 CB          2.0393  -21.3697  -49.7107 C.3       10 UNK        -0.1800 
     24 N           1.3022  -20.4988  -47.5439 N.am      10 UNK        -0.5000 
     25 C           0.8728  -20.4896  -46.2757 C.2       9 UNK         0.5000 
     26 O           0.4812  -21.4931  -45.6745 O.2       9 UNK        -0.5000 
     27 CA          0.7633  -19.1023  -45.6252 C.3       9 UNK         0.1400 
     28 CB         -0.5913  -18.4825  -45.9986 C.3       9 UNK        -0.1800 
     29 N           0.8952  -19.1156  -44.1688 N.am      9 UNK        -0.5000 
     30 C           1.9849  -19.4958  -43.4882 C.2       8 UNK         0.5000 
     31 O           3.0116  -19.9101  -44.0295 O.2       8 UNK        -0.5000 
     32 CA          1.9303  -19.3562  -41.9537 C.3       8 UNK         0.1400 
     33 CB          3.3208  -19.1319  -41.3270 C.3       8 UNK        -0.1800 
     34 N           1.0189  -18.2875  -41.5347 N.am      8 UNK        -0.5000 
     35 C           0.3499  -18.2609  -40.3761 C.2       7 UNK         0.5000 
     36 O           0.4094  -19.1622  -39.5367 O.2       7 UNK        -0.5000 
     37 CA         -0.5312  -17.0180  -40.1211 C.3       7 UNK         0.1400 
     38 CB         -1.1834  -17.0102  -38.7230 C.3       7 UNK        -0.1800 
     39 N           0.1669  -15.7527  -40.3670 N.am      7 UNK        -0.5000 
     40 C           1.2793  -15.2896  -39.7789 C.2       6 UNK         0.5000 
     41 O           1.8889  -15.8805  -38.8853 O.2       6 UNK        -0.5000 
     42 CA          1.7856  -13.9268  -40.3057 C.3       6 UNK         0.1400 
     43 CB          3.0857  -13.4486  -39.6263 C.3       6 UNK        -0.1800 
     44 N           1.9226  -13.9187  -41.7672 N.am      6 UNK        -0.5000 
     45 C           2.6860  -14.7363  -42.5082 C.2       5 UNK         0.5000 
     46 O           3.5090  -15.5219  -42.0367 O.2       5 UNK        -0.5000 
     47 CA          2.4589  -14.6860  -44.0360 C.3       5 UNK         0.1400 
     48 CB          3.0503  -15.9178  -44.7536 C.3       5 UNK        -0.1800 
     49 N           1.0456  -14.5099  -44.3960 N.am      5 UNK        -0.5000 
     50 C           0.0181  -15.2984  -44.0496 C.2       4 UNK         0.5000 
     51 O           0.1369  -16.3401  -43.4045 O.2       4 UNK        -0.5000 
     52 CA         -1.3820  -14.7886  -44.4456 C.3       4 UNK         0.1400 
     53 CB         -2.5210  -15.7255  -43.9885 C.3       4 UNK        -0.1800 
     54 N          -1.6104  -13.4238  -43.9589 N.am      4 UNK        -0.5000 
     55 C          -1.5501  -12.9995  -42.6859 C.2       3 UNK         0.5000 
     56 O          -1.3570  -13.7440  -41.7243 O.2       3 UNK        -0.5000 
     57 CA         -1.6871  -11.4772  -42.4650 C.3       3 UNK         0.1400 
     58 CB         -1.1490  -11.0172  -41.0934 C.3       3 UNK        -0.1800 
     59 N          -1.0843  -10.6880  -43.5469 N.am      3 UNK        -0.5000 
     60 C           0.1939  -10.7205  -43.9520 C.2       2 UNK         0.5000 
     61 O           1.0756  -11.4017  -43.4202 O.2       2 UNK        -0.5000 
     62 CA          0.5236   -9.8377  -45.1711 C.3       2 UNK         0.1400 
     63 CB          1.0279   -8.4619  -44.7103 C.3       2 UNK        -0.1800 
     64 N           1.5104  -10.4176  -46.0843 N.am      2 UNK        -0.5000 
     65 C           1.4865  -11.6390  -46.6350 C.2       1 UNK         0.5000 
     66 O           0.6101  -12.4764  -46.4078 O.2       1 UNK        -0.5000 
     67 C          -3.0584  -22.3876  -47.6344 C.2       11 UNK         0.5000 
     68 O          -3.8558  -23.3182  -47.7401 O.2       11 UNK        -0.5000 
     69 N          -2.6050  -21.9310  -46.4582 N.am      12 UNK        -0.5000 
     70 CA         -2.9604  -22.5171  -45.1663 C.3       12 UNK         0.1400 
     71 CB         -2.5640  -21.5640  -44.0271 C.3       12 UNK        -0.1800 
     72 C          -2.3258  -23.9071  -44.9892 C.2       12 UNK         0.5000 
     73 O          -3.0193  -24.8441  -44.5931 O.2       12 UNK        -0.5000 
     74 N          -1.0390  -24.0277  -45.3478 N.am      13 UNK        -0.5000 
     75 CA         -0.2842  -25.2836  -45.3492 C.3       13 UNK         0.1400 
     76 CB          1.1910  -24.9871  -45.6574 C.3       13 UNK        -0.1800 
     77 C          -0.8489  -26.3292  -46.3324 C.2       13 UNK         0.5000 
     78 O          -0.8967  -27.5140  -46.0008 O.2       13 UNK        -0.5000 
     79 N          -1.2970  -25.8670  -47.5071 N.am      14 UNK        -0.5000 
     80 CA         -1.9294  -26.6746  -48.5521 C.3       14 UNK         0.1400 
     81 CB         -1.7883  -25.9381  -49.8944 C.3       14 UNK        -0.1800 
     82 C          -3.4111  -27.0068  -48.2782 C.2       14 UNK         0.5000 
     83 O          -4.0180  -27.7039  -49.0909 O.2       14 UNK        -0.5000 
     84 N          -3.9817  -26.4922  -47.1777 N.am      15 UNK        -0.5000 
     85 CA         -5.3794  -26.6457  -46.7558 C.3       15 UNK         0.1400 
     86 CB         -5.6707  -28.1045  -46.3464 C.3       15 UNK        -0.1800 
     87 C          -6.3736  -26.0944  -47.8009 C.2       15 UNK         0.5000 
     88 O          -7.3370  -26.7678  -48.1692 O.2       15 UNK        -0.5000 
     89 N          -6.0853  -24.8736  -48.2706 N.am      16 UNK        -0.5000 
     90 CA         -6.8086  -24.0647  -49.2557 C.3       16 UNK         0.1400 
     91 CB         -8.2873  -23.8647  -48.8673 C.3       16 UNK        -0.1800 
     92 C          -6.6474  -24.5224  -50.7183 C.2       16 UNK         0.5000 
     93 O          -7.1635  -23.8458  -51.6078 O.2       16 UNK        -0.5000 
     94 N          -5.8987  -25.6046  -50.9799 N.am      17 UNK        -0.5000 
     95 CA         -5.6483  -26.1117  -52.3353 C.3       17 UNK         0.1400 
     96 CB         -5.0010  -27.5013  -52.2565 C.3       17 UNK        -0.1800 
     97 C          -4.7971  -25.1607  -53.2032 C.2       17 UNK         0.5000 
     98 O          -4.9362  -25.1736  -54.4263 O.2       17 UNK        -0.5000 
     99 N          -3.9612  -24.3374  -52.5551 N.am      18 UNK        -0.5000 
    100 CA        -3.1217  -23.3157  -53.1862 C.3       18 UNK         0.1400 
    101 CB        -1.6809  -23.4500  -52.6593 C.3       18 UNK        -0.1800 
    102 C         -3.6796  -21.8912  -52.9795 C.2       18 UNK         0.5000 
    103 O         -2.9478  -20.9229  -53.1829 O.2       18 UNK        -0.5000 
    104 N         -4.9523  -21.7627  -52.5680 N.am      19 UNK        -0.5000 
    105 CA        -5.6263  -20.4672  -52.4191 C.3       19 UNK         0.1400 
    106 CB        -6.8563  -20.6172  -51.5108 C.3       19 UNK        -0.1800 
    107 C         -6.0349  -19.8527  -53.7707 C.2       19 UNK         0.5000 
    108 O         -6.0826  -18.6278  -53.8862 O.2       19 UNK        -0.5000 
    109 N         -6.3252  -20.7072  -54.7633 N.am      20 UNK        -0.5000 
    110 CA        -6.7029  -20.3050  -56.1204 C.3       20 UNK         0.1400 
    111 CB        -7.2873  -21.5164  -56.8634 C.3       20 UNK        -0.1800 
    112 C         -5.5237  -19.7011  -56.9053 C.2       20 UNK         0.5000 
    113 O         -5.7072  -18.7195  -57.6261 O.2       20 UNK        -0.5000 
    114 N         -4.3366  -20.2889  -56.7275 N.am      21 UNK        -0.5000 
    115 CA        -3.0613  -19.8570  -57.2830 C.3       21 UNK         0.1400 
    116 CB        -2.9896  -20.1572  -58.7921 C.3       21 UNK        -0.1800 
    117 C         -1.9549  -20.6008  -56.5266 C.2       21 UNK         0.5000 
    118 O         -2.1356  -21.7755  -56.1936 O.2       21 UNK        -0.5000 
    119 N         -0.8392  -19.9111  -56.2735 N.am      22 UNK        -0.5000 
    120 CA         0.3413  -20.4598  -55.5913 C.3       22 UNK         0.1400 
    121 C          1.0868  -21.5214  -56.4476 C.2       22 UNK         0.5000 
    122 N          1.6362  -22.5558  -55.8256 N.am      22 UNK        -0.7600 
    123 O          1.2108  -21.3923  -57.6639 O.2       22 UNK        -0.5000 
    124 C124        1.3180  -19.3401  -55.1505 C.3       23 UNK        -0.0398 
    125 S125        0.5511  -18.1401  -54.0085 S.3       23 UNK        -0.2404 
    126 C126        0.8878  -18.9521  -52.4181 C.3       23 UNK        -0.0205 
    127 H127        2.2647   -9.8274  -51.0046 H         1 UNK         0.0600 
    128 H128        3.6460   -8.7839  -50.6559 H         1 UNK         0.0600 
    129 H129        2.0225   -8.2977  -50.1558 H         1 UNK         0.0600 
    130 H130        2.1273  -11.5763  -49.6239 H         1 UNK         0.3000 
    131 H131        3.5542  -11.6675  -47.0975 H         1 UNK         0.0600 
    132 H132        2.8059  -14.0378  -47.0537 H         1 UNK         0.0800 
    133 H133        3.7767  -13.6073  -48.4221 H         1 UNK         0.0800 
    134 H134        0.9579  -15.7657  -47.4632 H         1 UNK         0.0800 
    135 H135        2.3698  -16.2711  -48.3652 H         1 UNK         0.0800 
    136 H136        2.1296  -17.2754  -50.6483 H         1 UNK         0.1150 
    137 H137       -1.6994  -18.9389  -51.6120 H         1 UNK         0.1150 
    138 H138       -1.2934  -16.2827  -48.2671 H         1 UNK         0.1150 
    139 H139       -3.5177  -16.8354  -49.1874 H         1 UNK         0.0800 
    140 H140       -3.7068  -17.9596  -50.5046 H         1 UNK         0.0800 
    141 H141       -3.0912  -20.3188  -50.4305 H         1 UNK         0.0800 
    142 H142       -4.4340  -20.9510  -49.5390 H         1 UNK         0.0800 
    143 H143       -2.5477  -22.5129  -49.6755 H         1 UNK         0.0600 
    144 H144       -0.8889  -20.3642  -48.7578 H         1 UNK         0.3000 
    145 H145        1.8850  -22.4639  -47.8764 H         1 UNK         0.0600 
    146 H146        3.0709  -21.0652  -49.5334 H         1 UNK         0.0600 
    147 H147        2.0649  -22.2425  -50.3647 H         1 UNK         0.0600 
    148 H148        1.5408  -20.5679  -50.2510 H         1 UNK         0.0600 
    149 H149        1.5933  -19.6335  -47.9746 H         1 UNK         0.3000 
    150 H150        1.5596  -18.4734  -46.0285 H         1 UNK         0.0600 
    151 H151       -0.8178  -18.6317  -47.0529 H         1 UNK         0.0600 
    152 H152       -0.5921  -17.4087  -45.8314 H         1 UNK         0.0600 
    153 H153       -1.4115  -18.9192  -45.4280 H         1 UNK         0.0600 
    154 H154        0.1085  -18.7577  -43.6475 H         1 UNK         0.3000 
    155 H155        1.5433  -20.3095  -41.5884 H         1 UNK         0.0600 
    156 H156        3.7768  -18.2119  -41.6933 H         1 UNK         0.0600 
    157 H157        3.9983  -19.9533  -41.5625 H         1 UNK         0.0600 
    158 H158        3.2623  -19.0655  -40.2406 H         1 UNK         0.0600 
    159 H159        0.8948  -17.5129  -42.1859 H         1 UNK         0.3000 
    160 H160       -1.3358  -17.0634  -40.8564 H         1 UNK         0.0600 
    161 H161       -0.4378  -16.9935  -37.9275 H         1 UNK         0.0600 
    162 H162       -1.8007  -17.8969  -38.5748 H         1 UNK         0.0600 
    163 H163       -1.8293  -16.1415  -38.5955 H         1 UNK         0.0600 
    164 H164       -0.2659  -15.1594  -41.0710 H         1 UNK         0.3000 
    165 H165        1.0075  -13.2013  -40.0662 H         1 UNK         0.0600 
    166 H166        3.9093  -14.1455  -39.7832 H         1 UNK         0.0600 
    167 H167        3.3929  -12.4747  -40.0072 H         1 UNK         0.0600 
    168 H168        2.9461  -13.3469  -38.5496 H         1 UNK         0.0600 
    169 H169        1.3096  -13.2818  -42.2628 H         1 UNK         0.3000 
    170 H170        2.9808  -13.7997  -44.3990 H         1 UNK         0.0600 
    171 H171        4.1368  -15.9375  -44.6627 H         1 UNK         0.0600 
    172 H172        2.6739  -16.8446  -44.3252 H         1 UNK         0.0600 
    173 H173        2.8118  -15.9288  -45.8145 H         1 UNK         0.0600 
    174 H174        0.8321  -13.6702  -44.9286 H         1 UNK         0.3000 
    175 H175       -1.4013  -14.7448  -45.5357 H         1 UNK         0.0600 
    176 H176       -2.5413  -15.8460  -42.9051 H         1 UNK         0.0600 
    177 H177       -3.4927  -15.3424  -44.2997 H         1 UNK         0.0600 
    178 H178       -2.4128  -16.7193  -44.4221 H         1 UNK         0.0600 
    179 H179       -1.7320  -12.7240  -44.6775 H         1 UNK         0.3000 
    180 H180       -2.7573  -11.2668  -42.4858 H         1 UNK         0.0600 
    181 H181       -0.0833  -11.2187  -40.9857 H         1 UNK         0.0600 
    182 H182       -1.6631  -11.5268  -40.2776 H         1 UNK         0.0600 
    183 H183       -1.3012   -9.9474  -40.9514 H         1 UNK         0.0600 
    184 H184       -1.7270  -10.0904  -44.0488 H         1 UNK         0.3000 
    185 H185       -0.3914   -9.6940  -45.7490 H         1 UNK         0.0600 
    186 H186        0.3047   -7.9775  -44.0528 H         1 UNK         0.0600 
    187 H187        1.9671   -8.5439  -44.1616 H         1 UNK         0.0600 
    188 H188        1.1915   -7.7961  -45.5581 H         1 UNK         0.0600 
    189 H189        2.2594   -9.8004  -46.3791 H         1 UNK         0.3000 
    190 H190       -1.9199  -21.1910  -46.4519 H         1 UNK         0.3000 
    191 H191       -4.0454  -22.6395  -45.1363 H         1 UNK         0.0600 
    192 H192       -2.8736  -21.9661  -43.0618 H         1 UNK         0.0600 
    193 H193       -3.0437  -20.5920  -44.1423 H         1 UNK         0.0600 
    194 H194       -1.4874  -21.4025  -43.9805 H         1 UNK         0.0600 
    195 H195       -0.5341  -23.1917  -45.6277 H         1 UNK         0.3000 
    196 H196       -0.3441  -25.7067  -44.3444 H         1 UNK         0.0600 
    197 H197        1.3158  -24.5609  -46.6529 H         1 UNK         0.0600 
    198 H198        1.6112  -24.2838  -44.9380 H         1 UNK         0.0600 
    199 H199        1.7898  -25.8975  -45.6124 H         1 UNK         0.0600 
    200 H200       -1.1404  -24.8892  -47.7343 H         1 UNK         0.3000 
    201 H201       -1.3948  -27.6234  -48.6290 H         1 UNK         0.0600 
    202 H202       -2.3347  -24.9951  -49.8895 H         1 UNK         0.0600 
    203 H203       -2.1699  -26.5384  -50.7196 H         1 UNK         0.0600 
    204 H204       -0.7439  -25.7206  -50.1181 H         1 UNK         0.0600 
    205 H205       -3.4098  -25.9116  -46.5776 H         1 UNK         0.3000 
    206 H206       -5.4982  -26.0259  -45.8658 H         1 UNK         0.0600 
    207 H207       -4.9650  -28.4487  -45.5904 H         1 UNK         0.0600 
    208 H208       -6.6712  -28.1976  -45.9224 H         1 UNK         0.0600 
    209 H209       -5.6116  -28.7860  -47.1954 H         1 UNK         0.0600 
    210 H210       -5.2339  -24.4285  -47.9271 H         1 UNK         0.3000 
    211 H211       -6.3344  -23.0838  -49.2086 H         1 UNK         0.0600 
    212 H212       -8.7586  -23.1160  -49.5053 H         1 UNK         0.0600 
    213 H213       -8.3824  -23.5180  -47.8384 H         1 UNK         0.0600 
    214 H214       -8.8645  -24.7837  -48.9694 H         1 UNK         0.0600 
    215 H215       -5.5115  -26.1351  -50.2104 H         1 UNK         0.3000 
    216 H216       -6.6156  -26.2229  -52.8302 H         1 UNK         0.0600 
    217 H217       -4.0104  -27.4611  -51.8055 H         1 UNK         0.0600 
    218 H218       -4.8888  -27.9355  -53.2508 H         1 UNK         0.0600 
    219 H219       -5.6092  -28.1887  -51.6682 H         1 UNK         0.0600 
    220 H220       -3.9278  -24.3944  -51.5486 H         1 UNK         0.3000 
    221 H221       -3.0874  -23.4767  -54.2652 H         1 UNK         0.0600 
    222 H222       -1.2949  -24.4557  -52.8259 H         1 UNK         0.0600 
    223 H223       -1.6101  -23.2391  -51.5939 H         1 UNK         0.0600 
    224 H224       -1.0104  -22.7608  -53.1737 H         1 UNK         0.0600 
    225 H225       -5.5168  -22.5901  -52.4194 H         1 UNK         0.3000 
    226 H226       -4.9401  -19.7682  -51.9372 H         1 UNK         0.0600 
    227 H227       -7.6177  -21.2523  -51.9647 H         1 UNK         0.0600 
    228 H228       -6.5933  -21.0455  -50.5449 H         1 UNK         0.0600 
    229 H229       -7.3162  -19.6471  -51.3189 H         1 UNK         0.0600 
    230 H230       -6.2743  -21.6978  -54.5778 H         1 UNK         0.3000 
    231 H231       -7.4815  -19.5425  -56.0480 H         1 UNK         0.0600 
    232 H232       -6.5636  -22.3284  -56.9455 H         1 UNK         0.0600 
    233 H233       -7.5911  -21.2437  -57.8749 H         1 UNK         0.0600 
    234 H234       -8.1697  -21.9034  -56.3534 H         1 UNK         0.0600 
    235 H235       -4.2626  -21.0834  -56.1056 H         1 UNK         0.3000 
    236 H236       -2.9504  -18.7835  -57.1158 H         1 UNK         0.0600 
    237 H237       -3.7414  -19.5982  -59.3489 H         1 UNK         0.0600 
    238 H238       -2.0158  -19.8805  -59.1980 H         1 UNK         0.0600 
    239 H239       -3.1411  -21.2179  -58.9962 H         1 UNK         0.0600 
    240 H240       -0.7622  -18.9559  -56.5896 H         1 UNK         0.3000 
    241 H241       -0.0190  -20.9608  -54.6904 H         1 UNK         0.0600 
    242 H242        1.5577  -22.6813  -54.8286 H         1 UNK         0.3800 
    243 H243        2.1356  -23.2422  -56.3699 H         1 UNK         0.3800 
    244 H244        2.2020  -19.7642  -54.6705 H         1 UNK         0.0800 
    245 H245        1.6842  -18.7931  -56.0210 H         1 UNK         0.0800 
    246 H246        0.4804  -19.9643  -52.4368 H         1 UNK         0.0800 
    247 H247        1.9660  -19.0520  -52.2835 H         1 UNK         0.0800 
@<TRIPOS>BOND
     1    1    2 1    
     2    1  127 1    
     3    1  128 1    
     4    1  129 1    
     5    2    3 2    
     6    2    4 am   BACKBONE|DICT|INTERRES
     7    4    5 1    
     8    4  130 1    
     9    5    6 1    
    10    5   65 1    
    11    5  131 1    
    12    6    7 1    
    13    6  132 1    
    14    6  133 1    
    15    7    8 1    
    16    8    9 1    
    17    8  134 1    
    18    8  135 1    
    19    9   10 ar   
    20    9   14 ar   
    21   10   11 ar   
    22   10  136 1    
    23   11   12 ar   
    24   11  126 1    
    25   12   13 ar   
    26   12  137 1    
    27   13   14 ar   
    28   13   15 1    
    29   14  138 1    
    30   15   16 1    
    31   15  139 1    
    32   15  140 1    
    33   16   17 1    
    34   17   18 1    
    35   17  141 1    
    36   17  142 1    
    37   18   19 1    
    38   18   67 1    
    39   18  143 1    
    40   19   20 am   BACKBONE|DICT|INTERRES
    41   19  144 1    
    42   20   21 2    
    43   20   22 1    
    44   22   23 1    
    45   22   24 1    
    46   22  145 1    
    47   23  146 1    
    48   23  147 1    
    49   23  148 1    
    50   24   25 am   BACKBONE|DICT|INTERRES
    51   24  149 1    
    52   25   26 2    
    53   25   27 1    
    54   27   28 1    
    55   27   29 1    
    56   27  150 1    
    57   28  151 1    
    58   28  152 1    
    59   28  153 1    
    60   29   30 am   BACKBONE|DICT|INTERRES
    61   29  154 1    
    62   30   31 2    
    63   30   32 1    
    64   32   33 1    
    65   32   34 1    
    66   32  155 1    
    67   33  156 1    
    68   33  157 1    
    69   33  158 1    
    70   34   35 am   BACKBONE|DICT|INTERRES
    71   34  159 1    
    72   35   36 2    
    73   35   37 1    
    74   37   38 1    
    75   37   39 1    
    76   37  160 1    
    77   38  161 1    
    78   38  162 1    
    79   38  163 1    
    80   39   40 am   BACKBONE|DICT|INTERRES
    81   39  164 1    
    82   40   41 2    
    83   40   42 1    
    84   42   43 1    
    85   42   44 1    
    86   42  165 1    
    87   43  166 1    
    88   43  167 1    
    89   43  168 1    
    90   44   45 am   BACKBONE|DICT|INTERRES
    91   44  169 1    
    92   45   46 2    
    93   45   47 1    
    94   47   48 1    
    95   47   49 1    
    96   47  170 1    
    97   48  171 1    
    98   48  172 1    
    99   48  173 1    
   100   49   50 am   BACKBONE|DICT|INTERRES
   101   49  174 1    
   102   50   51 2    
   103   50   52 1    
   104   52   53 1    
   105   52   54 1    
   106   52  175 1    
   107   53  176 1    
   108   53  177 1    
   109   53  178 1    
   110   54   55 am   BACKBONE|DICT|INTERRES
   111   54  179 1    
   112   55   56 2    
   113   55   57 1    
   114   57   58 1    
   115   57   59 1    
   116   57  180 1    
   117   58  181 1    
   118   58  182 1    
   119   58  183 1    
   120   59   60 am   BACKBONE|DICT|INTERRES
   121   59  184 1    
   122   60   61 2    
   123   60   62 1    
   124   62   63 1    
   125   62   64 1    
   126   62  185 1    
   127   63  186 1    
   128   63  187 1    
   129   63  188 1    
   130   64   65 am   BACKBONE|DICT|INTERRES
   131   64  189 1    
   132   65   66 2    
   133   67   68 2    
   134   67   69 am   BACKBONE|DICT|INTERRES
   135   69   70 1    
   136   69  190 1    
   137   70   71 1    
   138   70   72 1    
   139   70  191 1    
   140   71  192 1    
   141   71  193 1    
   142   71  194 1    
   143   72   73 2    
   144   72   74 am   BACKBONE|DICT|INTERRES
   145   74   75 1    
   146   74  195 1    
   147   75   76 1    
   148   75   77 1    
   149   75  196 1    
   150   76  197 1    
   151   76  198 1    
   152   76  199 1    
   153   77   78 2    
   154   77   79 am   BACKBONE|DICT|INTERRES
   155   79   80 1    
   156   79  200 1    
   157   80   81 1    
   158   80   82 1    
   159   80  201 1    
   160   81  202 1    
   161   81  203 1    
   162   81  204 1    
   163   82   83 2    
   164   82   84 am   BACKBONE|DICT|INTERRES
   165   84   85 1    
   166   84  205 1    
   167   85   86 1    
   168   85   87 1    
   169   85  206 1    
   170   86  207 1    
   171   86  208 1    
   172   86  209 1    
   173   87   88 2    
   174   87   89 am   BACKBONE|DICT|INTERRES
   175   89   90 1    
   176   89  210 1    
   177   90   91 1    
   178   90   92 1    
   179   90  211 1    
   180   91  212 1    
   181   91  213 1    
   182   91  214 1    
   183   92   93 2    
   184   92   94 am   BACKBONE|DICT|INTERRES
   185   94   95 1    
   186   94  215 1    
   187   95   96 1    
   188   95   97 1    
   189   95  216 1    
   190   96  217 1    
   191   96  218 1    
   192   96  219 1    
   193   97   98 2    
   194   97   99 am   BACKBONE|DICT|INTERRES
   195   99  100 1    
   196   99  220 1    
   197  100  101 1    
   198  100  102 1    
   199  100  221 1    
   200  101  222 1    
   201  101  223 1    
   202  101  224 1    
   203  102  103 2    
   204  102  104 am   BACKBONE|DICT|INTERRES
   205  104  105 1    
   206  104  225 1    
   207  105  106 1    
   208  105  107 1    
   209  105  226 1    
   210  106  227 1    
   211  106  228 1    
   212  106  229 1    
   213  107  108 2    
   214  107  109 am   BACKBONE|DICT|INTERRES
   215  109  110 1    
   216  109  230 1    
   217  110  111 1    
   218  110  112 1    
   219  110  231 1    
   220  111  232 1    
   221  111  233 1    
   222  111  234 1    
   223  112  113 2    
   224  112  114 am   BACKBONE|DICT|INTERRES
   225  114  115 1    
   226  114  235 1    
   227  115  116 1    
   228  115  117 1    
   229  115  236 1    
   230  116  237 1    
   231  116  238 1    
   232  116  239 1    
   233  117  118 2    
   234  117  119 am   BACKBONE|DICT|INTERRES
   235  119  120 1    
   236  119  240 1    
   237  120  121 1    
   238  120  124 1    
   239  120  241 1    
   240  121  122 am   BACKBONE|DICT|INTERRES
   241  121  123 2    
   242  122  242 1    
   243  122  243 1    
   244  124  125 1    
   245  124  244 1    
   246  124  245 1    
   247  125  126 1    
   248  126  246 1    
   249  126  247 1    
@<TRIPOS>SUBSTRUCTURE
     1 UNK         1 GROUP             0       ****    0 ROOT    
