@<TRIPOS>MOLECULE
3R540
247   249    1
SMALL
USER_CHARGES


@<TRIPOS>ATOM
      1 CA         -3.9399  -13.8893  -48.0061 C.3       0 UNK        -0.1800 
      2 C          -2.8839  -13.0122  -48.6637 C.2       0 UNK         0.5000 
      3 O          -3.2237  -12.1773  -49.5022 O.2       0 UNK        -0.5000 
      4 N          -1.6152  -13.1951  -48.2819 N.am      1 UNK        -0.5000 
      5 CA         -0.4696  -12.4141  -48.7488 C.3       1 UNK         0.1400 
      6 C6          0.5056  -13.2520  -49.6134 C.3       23 UNK        -0.0398 
      7 S7         -0.2152  -13.6865  -51.2302 S.3       23 UNK        -0.2404 
      8 C8         -0.6989  -15.4189  -50.9587 C.3       23 UNK        -0.0205 
      9 C9          0.4769  -16.3760  -51.0866 C.ar      23 UNK        -0.0193 
     10 C10         1.0863  -16.5662  -52.3313 C.ar      23 UNK        -0.1150 
     11 C11         2.1477  -17.4634  -52.4754 C.ar      23 UNK        -0.0193 
     12 C12         2.6076  -18.1601  -51.3556 C.ar      23 UNK        -0.1150 
     13 C13         1.9987  -17.9933  -50.1102 C.ar      23 UNK        -0.0193 
     14 C14         0.9346  -17.0960  -49.9773 C.ar      23 UNK        -0.1150 
     15 C15         2.5028  -18.7966  -48.9239 C.3       23 UNK        -0.0205 
     16 S16         1.8621  -20.4994  -48.9686 S.3       23 UNK        -0.2404 
     17 C17         0.5063  -20.4018  -47.7571 C.3       23 UNK        -0.0398 
     18 CA          0.0091  -21.8094  -47.3331 C.3       11 UNK         0.1400 
     19 N          -0.1404  -21.9283  -45.8815 N.am      11 UNK        -0.5000 
     20 C          -0.3780  -23.0693  -45.2202 C.2       10 UNK         0.5000 
     21 O          -0.4487  -24.1732  -45.7586 O.2       10 UNK        -0.5000 
     22 CA         -0.6361  -22.9425  -43.7093 C.3       10 UNK         0.1400 
     23 CB          0.6824  -22.9073  -42.9217 C.3       10 UNK        -0.1800 
     24 N          -1.4311  -21.7524  -43.4036 N.am      10 UNK        -0.5000 
     25 C          -2.7313  -21.6258  -43.7042 C.2       9 UNK         0.5000 
     26 O          -3.4059  -22.5319  -44.1944 O.2       9 UNK        -0.5000 
     27 CA         -3.3698  -20.2459  -43.4545 C.3       9 UNK         0.1400 
     28 CB         -3.8154  -20.1121  -41.9910 C.3       9 UNK        -0.1800 
     29 N          -2.4708  -19.1390  -43.7885 N.am      9 UNK        -0.5000 
     30 C          -2.0788  -18.8263  -45.0323 C.2       8 UNK         0.5000 
     31 O          -2.4717  -19.4109  -46.0396 O.2       8 UNK        -0.5000 
     32 CA         -1.0274  -17.7101  -45.1776 C.3       8 UNK         0.1400 
     33 CB         -1.7115  -16.3519  -45.3791 C.3       8 UNK        -0.1800 
     34 N          -0.0923  -17.6385  -44.0501 N.am      8 UNK        -0.5000 
     35 C           0.7387  -18.6335  -43.6971 C.2       7 UNK         0.5000 
     36 O           0.7803  -19.7092  -44.2927 O.2       7 UNK        -0.5000 
     37 CA          1.6673  -18.4277  -42.4862 C.3       7 UNK         0.1400 
     38 CB          3.1374  -18.4146  -42.9330 C.3       7 UNK        -0.1800 
     39 N           1.3710  -17.2110  -41.7292 N.am      7 UNK        -0.5000 
     40 C           0.3595  -17.0949  -40.8555 C.2       6 UNK         0.5000 
     41 O          -0.4126  -18.0164  -40.5877 O.2       6 UNK        -0.5000 
     42 CA          0.1497  -15.7180  -40.1912 C.3       6 UNK         0.1400 
     43 CB          0.8234  -15.6796  -38.8115 C.3       6 UNK        -0.1800 
     44 N           0.6390  -14.5929  -40.9920 N.am      6 UNK        -0.5000 
     45 C           0.1696  -14.2493  -42.1985 C.2       5 UNK         0.5000 
     46 O          -0.7550  -14.8400  -42.7557 O.2       5 UNK        -0.5000 
     47 CA          0.8756  -13.0961  -42.9396 C.3       5 UNK         0.1400 
     48 CB          1.8151  -12.2522  -42.0498 C.3       5 UNK        -0.1800 
     49 N           1.5921  -13.5884  -44.1187 N.am      5 UNK        -0.5000 
     50 C           2.5424  -14.5356  -44.1525 C.2       4 UNK         0.5000 
     51 O           2.9635  -15.1234  -43.1556 O.2       4 UNK        -0.5000 
     52 CA          3.1326  -14.8680  -45.5324 C.3       4 UNK         0.1400 
     53 CB          2.1816  -15.7621  -46.3444 C.3       4 UNK        -0.1800 
     54 N           3.4075  -13.6456  -46.2841 N.am      4 UNK        -0.5000 
     55 C           4.5633  -12.9683  -46.2340 C.2       3 UNK         0.5000 
     56 O           5.5530  -13.3464  -45.6065 O.2       3 UNK        -0.5000 
     57 CA          4.6286  -11.6408  -47.0157 C.3       3 UNK         0.1400 
     58 CB          5.1871  -11.8763  -48.4275 C.3       3 UNK        -0.1800 
     59 N           3.3277  -10.9791  -47.1232 N.am      3 UNK        -0.5000 
     60 C           2.6779  -10.4037  -46.1016 C.2       2 UNK         0.5000 
     61 O           3.1505  -10.2844  -44.9717 O.2       2 UNK        -0.5000 
     62 CA          1.2488   -9.8984  -46.3826 C.3       2 UNK         0.1400 
     63 CB          1.2583   -8.3881  -46.6632 C.3       2 UNK        -0.1800 
     64 N           0.5791  -10.5873  -47.4926 N.am      2 UNK        -0.5000 
     65 C           0.2469  -11.8850  -47.4999 C.2       1 UNK         0.5000 
     66 O           0.5151  -12.6655  -46.5829 O.2       1 UNK        -0.5000 
     67 C          -1.2780  -22.2281  -48.0754 C.2       11 UNK         0.5000 
     68 O          -1.2000  -23.0034  -49.0259 O.2       11 UNK        -0.5000 
     69 N          -2.4405  -21.7780  -47.5767 N.am      12 UNK        -0.5000 
     70 CA         -3.7714  -22.1724  -48.0421 C.3       12 UNK         0.1400 
     71 CB         -4.8482  -21.4073  -47.2542 C.3       12 UNK        -0.1800 
     72 C          -4.0132  -23.6858  -47.9339 C.2       12 UNK         0.5000 
     73 O          -4.4915  -24.2908  -48.8927 O.2       12 UNK        -0.5000 
     74 N          -3.6501  -24.2736  -46.7849 N.am      13 UNK        -0.5000 
     75 CA         -3.7318  -25.7123  -46.5319 C.3       13 UNK         0.1400 
     76 CB         -3.4256  -25.9989  -45.0544 C.3       13 UNK        -0.1800 
     77 C          -2.8151  -26.5288  -47.4618 C.2       13 UNK         0.5000 
     78 O          -3.2695  -27.5144  -48.0439 O.2       13 UNK        -0.5000 
     79 N          -1.5639  -26.0764  -47.6308 N.am      14 UNK        -0.5000 
     80 CA         -0.5772  -26.6593  -48.5459 C.3       14 UNK         0.1400 
     81 CB          0.7822  -25.9759  -48.3351 C.3       14 UNK        -0.1800 
     82 C          -1.0035  -26.5810  -50.0254 C.2       14 UNK         0.5000 
     83 O          -0.7468  -27.5154  -50.7847 O.2       14 UNK        -0.5000 
     84 N          -1.6899  -25.4916  -50.3914 N.am      15 UNK        -0.5000 
     85 CA         -2.2920  -25.2544  -51.7035 C.3       15 UNK         0.1400 
     86 CB         -2.4065  -23.7369  -51.9202 C.3       15 UNK        -0.1800 
     87 C          -3.6528  -25.9624  -51.9029 C.2       15 UNK         0.5000 
     88 O          -4.3084  -25.7149  -52.9150 O.2       15 UNK        -0.5000 
     89 N          -4.0507  -26.8309  -50.9599 N.am      16 UNK        -0.5000 
     90 CA         -5.2563  -27.6653  -50.9612 C.3       16 UNK         0.1400 
     91 CB         -5.2509  -28.6555  -52.1455 C.3       16 UNK        -0.1800 
     92 C          -6.5568  -26.8453  -50.8500 C.2       16 UNK         0.5000 
     93 O          -7.4983  -27.0599  -51.6155 O.2       16 UNK        -0.5000 
     94 N          -6.5770  -25.9313  -49.8709 N.am      17 UNK        -0.5000 
     95 CA         -7.6795  -25.0422  -49.4909 C.3       17 UNK         0.1400 
     96 CB         -8.9377  -25.8363  -49.0799 C.3       17 UNK        -0.1800 
     97 C          -7.9586  -23.9404  -50.5319 C.2       17 UNK         0.5000 
     98 O          -9.1024  -23.5073  -50.6858 O.2       17 UNK        -0.5000 
     99 N          -6.8980  -23.4834  -51.2080 N.am      18 UNK        -0.5000 
    100 CA        -6.9113  -22.2982  -52.0641 C.3       18 UNK         0.1400 
    101 CB        -5.7324  -22.3846  -53.0421 C.3       18 UNK        -0.1800 
    102 C         -6.8206  -21.0130  -51.2185 C.2       18 UNK         0.5000 
    103 O         -6.5194  -21.0751  -50.0240 O.2       18 UNK        -0.5000 
    104 N         -7.0489  -19.8573  -51.8538 N.am      19 UNK        -0.5000 
    105 CA        -6.9847  -18.5247  -51.2446 C.3       19 UNK         0.1400 
    106 CB        -7.7587  -17.5393  -52.1387 C.3       19 UNK        -0.1800 
    107 C         -5.5324  -18.0676  -50.9774 C.2       19 UNK         0.5000 
    108 O         -5.0690  -17.0935  -51.5731 O.2       19 UNK        -0.5000 
    109 N         -4.8319  -18.8113  -50.1107 N.am      20 UNK        -0.5000 
    110 CA        -3.4340  -18.6837  -49.6757 C.3       20 UNK         0.1400 
    111 CB        -3.1767  -17.3379  -48.9779 C.3       20 UNK        -0.1800 
    112 C         -2.3950  -18.9650  -50.7765 C.2       20 UNK         0.5000 
    113 O         -1.4429  -19.7009  -50.5278 O.2       20 UNK        -0.5000 
    114 N         -2.5980  -18.3997  -51.9704 N.am      21 UNK        -0.5000 
    115 CA        -1.7909  -18.6419  -53.1598 C.3       21 UNK         0.1400 
    116 CB        -2.1902  -17.6338  -54.2483 C.3       21 UNK        -0.1800 
    117 C         -1.9754  -20.0927  -53.6560 C.2       21 UNK         0.5000 
    118 O         -3.1127  -20.4756  -53.9273 O.2       21 UNK        -0.5000 
    119 N         -0.9230  -20.9051  -53.8001 N.am      22 UNK        -0.5000 
    120 CA         0.4879  -20.6565  -53.4880 C.3       22 UNK         0.1400 
    121 C          1.1603  -22.0276  -53.2210 C.2       22 UNK         0.5000 
    122 N          1.7684  -22.2230  -52.0594 N.am      22 UNK        -0.7600 
    123 O          1.1372  -22.9166  -54.0690 O.2       22 UNK        -0.5000 
    124 C124        1.1743  -19.8548  -54.6296 C.3       23 UNK        -0.0398 
    125 S125        2.9198  -19.4230  -54.3125 S.3       23 UNK        -0.2404 
    126 C126        2.8079  -17.6664  -53.8330 C.3       23 UNK        -0.0205 
    127 H127       -3.4987  -14.6063  -47.3126 H         1 UNK         0.0600 
    128 H128       -4.4935  -14.4445  -48.7652 H         1 UNK         0.0600 
    129 H129       -4.6467  -13.2706  -47.4508 H         1 UNK         0.0600 
    130 H130       -1.4018  -13.8387  -47.5326 H         1 UNK         0.3000 
    131 H131       -0.8040  -11.5543  -49.3334 H         1 UNK         0.0600 
    132 H132        0.8203  -14.1562  -49.0892 H         1 UNK         0.0800 
    133 H133        1.4179  -12.6882  -49.8165 H         1 UNK         0.0800 
    134 H134       -1.4605  -15.6901  -51.6899 H         1 UNK         0.0800 
    135 H135       -1.1691  -15.5076  -49.9804 H         1 UNK         0.0800 
    136 H136        0.7254  -16.0154  -53.1887 H         1 UNK         0.1150 
    137 H137        3.4319  -18.8522  -51.4572 H         1 UNK         0.1150 
    138 H138        0.4591  -16.9678  -49.0155 H         1 UNK         0.1150 
    139 H139        3.5928  -18.8318  -48.9491 H         1 UNK         0.0800 
    140 H140        2.2397  -18.3099  -47.9849 H         1 UNK         0.0800 
    141 H141       -0.2946  -19.7722  -48.1488 H         1 UNK         0.0800 
    142 H142        0.8995  -19.8680  -46.8926 H         1 UNK         0.0800 
    143 H143        0.7718  -22.5442  -47.6001 H         1 UNK         0.0600 
    144 H144       -0.0284  -21.0767  -45.3391 H         1 UNK         0.3000 
    145 H145       -1.1968  -23.8236  -43.3898 H         1 UNK         0.0600 
    146 H146        0.4989  -22.8501  -41.8488 H         1 UNK         0.0600 
    147 H147        1.2656  -23.8108  -43.1037 H         1 UNK         0.0600 
    148 H148        1.3041  -22.0570  -43.2015 H         1 UNK         0.0600 
    149 H149       -0.9321  -20.9506  -43.0476 H         1 UNK         0.3000 
    150 H150       -4.2549  -20.1693  -44.0894 H         1 UNK         0.0600 
    151 H151       -4.4942  -20.9198  -41.7140 H         1 UNK         0.0600 
    152 H152       -4.3437  -19.1732  -41.8248 H         1 UNK         0.0600 
    153 H153       -2.9671  -20.1450  -41.3059 H         1 UNK         0.0600 
    154 H154       -2.0906  -18.6097  -43.0168 H         1 UNK         0.3000 
    155 H155       -0.4436  -17.9251  -46.0745 H         1 UNK         0.0600 
    156 H156       -2.3395  -16.0885  -44.5275 H         1 UNK         0.0600 
    157 H157       -2.3508  -16.3704  -46.2605 H         1 UNK         0.0600 
    158 H158       -0.9835  -15.5531  -45.5187 H         1 UNK         0.0600 
    159 H159       -0.1045  -16.7841  -43.5055 H         1 UNK         0.3000 
    160 H160        1.5308  -19.2871  -41.8263 H         1 UNK         0.0600 
    161 H161        3.3272  -17.6516  -43.6873 H         1 UNK         0.0600 
    162 H162        3.4179  -19.3744  -43.3689 H         1 UNK         0.0600 
    163 H163        3.8069  -18.2326  -42.0922 H         1 UNK         0.0600 
    164 H164        1.9435  -16.3990  -41.9397 H         1 UNK         0.3000 
    165 H165       -0.9250  -15.5845  -40.0514 H         1 UNK         0.0600 
    166 H166        0.6117  -14.7436  -38.2943 H         1 UNK         0.0600 
    167 H167        0.4605  -16.4891  -38.1765 H         1 UNK         0.0600 
    168 H168        1.9063  -15.7839  -38.8898 H         1 UNK         0.0600 
    169 H169        1.4256  -14.0806  -40.6204 H         1 UNK         0.3000 
    170 H170        0.0868  -12.4385  -43.3076 H         1 UNK         0.0600 
    171 H171        1.2835  -11.8479  -41.1876 H         1 UNK         0.0600 
    172 H172        2.6662  -12.8254  -41.6810 H         1 UNK         0.0600 
    173 H173        2.2118  -11.4029  -42.6059 H         1 UNK         0.0600 
    174 H174        1.2639  -13.2137  -45.0058 H         1 UNK         0.3000 
    175 H175        4.0608  -15.4227  -45.3788 H         1 UNK         0.0600 
    176 H176        1.2119  -15.2913  -46.5036 H         1 UNK         0.0600 
    177 H177        2.6032  -15.9893  -47.3232 H         1 UNK         0.0600 
    178 H178        2.0095  -16.7105  -45.8357 H         1 UNK         0.0600 
    179 H179        2.6244  -13.2323  -46.7706 H         1 UNK         0.3000 
    180 H180        5.3109  -10.9743  -46.4837 H         1 UNK         0.0600 
    181 H181        4.5385  -12.5280  -49.0144 H         1 UNK         0.0600 
    182 H182        6.1710  -12.3454  -48.3845 H         1 UNK         0.0600 
    183 H183        5.3000  -10.9371  -48.9693 H         1 UNK         0.0600 
    184 H184        2.8775  -11.0017  -48.0256 H         1 UNK         0.3000 
    185 H185        0.6615  -10.0743  -45.4788 H         1 UNK         0.0600 
    186 H186        1.7255   -7.8408  -45.8433 H         1 UNK         0.0600 
    187 H187        1.8113   -8.1513  -47.5731 H         1 UNK         0.0600 
    188 H188        0.2455   -8.0005  -46.7740 H         1 UNK         0.0600 
    189 H189        0.3294  -10.0125  -48.2848 H         1 UNK         0.3000 
    190 H190       -2.4142  -21.0906  -46.8278 H         1 UNK         0.3000 
    191 H191       -3.8521  -21.8988  -49.0959 H         1 UNK         0.0600 
    192 H192       -4.7762  -21.5922  -46.1841 H         1 UNK         0.0600 
    193 H193       -5.8488  -21.7113  -47.5629 H         1 UNK         0.0600 
    194 H194       -4.7758  -20.3315  -47.4065 H         1 UNK         0.0600 
    195 H195       -3.2925  -23.6961  -46.0329 H         1 UNK         0.3000 
    196 H196       -4.7605  -26.0228  -46.7271 H         1 UNK         0.0600 
    197 H197       -3.5261  -27.0625  -44.8352 H         1 UNK         0.0600 
    198 H198       -4.1138  -25.4645  -44.3991 H         1 UNK         0.0600 
    199 H199       -2.4120  -25.7034  -44.7844 H         1 UNK         0.0600 
    200 H200       -1.2575  -25.2741  -47.0857 H         1 UNK         0.3000 
    201 H201       -0.4709  -27.7150  -48.2885 H         1 UNK         0.0600 
    202 H202        1.1227  -26.0843  -47.3052 H         1 UNK         0.0600 
    203 H203        0.7360  -24.9103  -48.5611 H         1 UNK         0.0600 
    204 H204        1.5449  -26.4156  -48.9789 H         1 UNK         0.0600 
    205 H205       -1.7872  -24.7368  -49.7179 H         1 UNK         0.3000 
    206 H206       -1.6184  -25.6472  -52.4675 H         1 UNK         0.0600 
    207 H207       -1.4369  -23.2497  -51.8156 H         1 UNK         0.0600 
    208 H208       -2.7746  -23.5063  -52.9203 H         1 UNK         0.0600 
    209 H209       -3.0844  -23.2812  -51.1982 H         1 UNK         0.0600 
    210 H210       -3.4633  -26.9345  -50.1415 H         1 UNK         0.3000 
    211 H211       -5.2035  -28.2614  -50.0492 H         1 UNK         0.0600 
    212 H212       -5.3589  -28.1479  -53.1041 H         1 UNK         0.0600 
    213 H213       -6.0733  -29.3667  -52.0609 H         1 UNK         0.0600 
    214 H214       -4.3262  -29.2317  -52.1728 H         1 UNK         0.0600 
    215 H215       -5.7065  -25.7452  -49.3815 H         1 UNK         0.3000 
    216 H216       -7.3330  -24.5153  -48.6008 H         1 UNK         0.0600 
    217 H217       -9.6841  -25.1786  -48.6334 H         1 UNK         0.0600 
    218 H218       -8.6981  -26.6009  -48.3410 H         1 UNK         0.0600 
    219 H219       -9.4073  -26.3269  -49.9324 H         1 UNK         0.0600 
    220 H220       -5.9927  -23.8698  -50.9815 H         1 UNK         0.3000 
    221 H221       -7.8414  -22.2779  -52.6354 H         1 UNK         0.0600 
    222 H222       -4.7803  -22.2731  -52.5257 H         1 UNK         0.0600 
    223 H223       -5.7207  -23.3370  -53.5723 H         1 UNK         0.0600 
    224 H224       -5.7855  -21.5966  -53.7939 H         1 UNK         0.0600 
    225 H225       -7.2518  -19.8801  -52.8426 H         1 UNK         0.3000 
    226 H226       -7.4927  -18.5598  -50.2785 H         1 UNK         0.0600 
    227 H227       -8.7993  -17.8436  -52.2526 H         1 UNK         0.0600 
    228 H228       -7.7611  -16.5378  -51.7065 H         1 UNK         0.0600 
    229 H229       -7.3192  -17.4668  -53.1343 H         1 UNK         0.0600 
    230 H230       -5.3156  -19.6352  -49.7617 H         1 UNK         0.3000 
    231 H231       -3.2851  -19.4556  -48.9234 H         1 UNK         0.0600 
    232 H232       -2.1580  -17.2929  -48.5918 H         1 UNK         0.0600 
    233 H233       -3.8508  -17.2026  -48.1324 H         1 UNK         0.0600 
    234 H234       -3.3131  -16.4953  -49.6547 H         1 UNK         0.0600 
    235 H235       -3.4337  -17.8330  -52.0825 H         1 UNK         0.3000 
    236 H236       -0.7579  -18.4418  -52.8947 H         1 UNK         0.0600 
    237 H237       -1.6058  -17.7865  -55.1559 H         1 UNK         0.0600 
    238 H238       -3.2434  -17.7267  -54.5158 H         1 UNK         0.0600 
    239 H239       -2.0180  -16.6088  -53.9210 H         1 UNK         0.0600 
    240 H240       -1.0923  -21.8479  -54.1207 H         1 UNK         0.3000 
    241 H241        0.5535  -20.0878  -52.5596 H         1 UNK         0.0600 
    242 H242        2.2092  -23.1115  -51.8846 H         1 UNK         0.3800 
    243 H243        1.7756  -21.5158  -51.3391 H         1 UNK         0.3800 
    244 H244        1.1372  -20.4259  -55.5586 H         1 UNK         0.0800 
    245 H245        0.6248  -18.9364  -54.8325 H         1 UNK         0.0800 
    246 H246        2.2822  -17.1138  -54.6129 H         1 UNK         0.0800 
    247 H247        3.8158  -17.2522  -53.7910 H         1 UNK         0.0800 
@<TRIPOS>BOND
     1    1    2 1    
     2    1  127 1    
     3    1  128 1    
     4    1  129 1    
     5    2    3 2    
     6    2    4 am   BACKBONE|DICT|INTERRES
     7    4    5 1    
     8    4  130 1    
     9    5    6 1    
    10    5   65 1    
    11    5  131 1    
    12    6    7 1    
    13    6  132 1    
    14    6  133 1    
    15    7    8 1    
    16    8    9 1    
    17    8  134 1    
    18    8  135 1    
    19    9   10 ar   
    20    9   14 ar   
    21   10   11 ar   
    22   10  136 1    
    23   11   12 ar   
    24   11  126 1    
    25   12   13 ar   
    26   12  137 1    
    27   13   14 ar   
    28   13   15 1    
    29   14  138 1    
    30   15   16 1    
    31   15  139 1    
    32   15  140 1    
    33   16   17 1    
    34   17   18 1    
    35   17  141 1    
    36   17  142 1    
    37   18   19 1    
    38   18   67 1    
    39   18  143 1    
    40   19   20 am   BACKBONE|DICT|INTERRES
    41   19  144 1    
    42   20   21 2    
    43   20   22 1    
    44   22   23 1    
    45   22   24 1    
    46   22  145 1    
    47   23  146 1    
    48   23  147 1    
    49   23  148 1    
    50   24   25 am   BACKBONE|DICT|INTERRES
    51   24  149 1    
    52   25   26 2    
    53   25   27 1    
    54   27   28 1    
    55   27   29 1    
    56   27  150 1    
    57   28  151 1    
    58   28  152 1    
    59   28  153 1    
    60   29   30 am   BACKBONE|DICT|INTERRES
    61   29  154 1    
    62   30   31 2    
    63   30   32 1    
    64   32   33 1    
    65   32   34 1    
    66   32  155 1    
    67   33  156 1    
    68   33  157 1    
    69   33  158 1    
    70   34   35 am   BACKBONE|DICT|INTERRES
    71   34  159 1    
    72   35   36 2    
    73   35   37 1    
    74   37   38 1    
    75   37   39 1    
    76   37  160 1    
    77   38  161 1    
    78   38  162 1    
    79   38  163 1    
    80   39   40 am   BACKBONE|DICT|INTERRES
    81   39  164 1    
    82   40   41 2    
    83   40   42 1    
    84   42   43 1    
    85   42   44 1    
    86   42  165 1    
    87   43  166 1    
    88   43  167 1    
    89   43  168 1    
    90   44   45 am   BACKBONE|DICT|INTERRES
    91   44  169 1    
    92   45   46 2    
    93   45   47 1    
    94   47   48 1    
    95   47   49 1    
    96   47  170 1    
    97   48  171 1    
    98   48  172 1    
    99   48  173 1    
   100   49   50 am   BACKBONE|DICT|INTERRES
   101   49  174 1    
   102   50   51 2    
   103   50   52 1    
   104   52   53 1    
   105   52   54 1    
   106   52  175 1    
   107   53  176 1    
   108   53  177 1    
   109   53  178 1    
   110   54   55 am   BACKBONE|DICT|INTERRES
   111   54  179 1    
   112   55   56 2    
   113   55   57 1    
   114   57   58 1    
   115   57   59 1    
   116   57  180 1    
   117   58  181 1    
   118   58  182 1    
   119   58  183 1    
   120   59   60 am   BACKBONE|DICT|INTERRES
   121   59  184 1    
   122   60   61 2    
   123   60   62 1    
   124   62   63 1    
   125   62   64 1    
   126   62  185 1    
   127   63  186 1    
   128   63  187 1    
   129   63  188 1    
   130   64   65 am   BACKBONE|DICT|INTERRES
   131   64  189 1    
   132   65   66 2    
   133   67   68 2    
   134   67   69 am   BACKBONE|DICT|INTERRES
   135   69   70 1    
   136   69  190 1    
   137   70   71 1    
   138   70   72 1    
   139   70  191 1    
   140   71  192 1    
   141   71  193 1    
   142   71  194 1    
   143   72   73 2    
   144   72   74 am   BACKBONE|DICT|INTERRES
   145   74   75 1    
   146   74  195 1    
   147   75   76 1    
   148   75   77 1    
   149   75  196 1    
   150   76  197 1    
   151   76  198 1    
   152   76  199 1    
   153   77   78 2    
   154   77   79 am   BACKBONE|DICT|INTERRES
   155   79   80 1    
   156   79  200 1    
   157   80   81 1    
   158   80   82 1    
   159   80  201 1    
   160   81  202 1    
   161   81  203 1    
   162   81  204 1    
   163   82   83 2    
   164   82   84 am   BACKBONE|DICT|INTERRES
   165   84   85 1    
   166   84  205 1    
   167   85   86 1    
   168   85   87 1    
   169   85  206 1    
   170   86  207 1    
   171   86  208 1    
   172   86  209 1    
   173   87   88 2    
   174   87   89 am   BACKBONE|DICT|INTERRES
   175   89   90 1    
   176   89  210 1    
   177   90   91 1    
   178   90   92 1    
   179   90  211 1    
   180   91  212 1    
   181   91  213 1    
   182   91  214 1    
   183   92   93 2    
   184   92   94 am   BACKBONE|DICT|INTERRES
   185   94   95 1    
   186   94  215 1    
   187   95   96 1    
   188   95   97 1    
   189   95  216 1    
   190   96  217 1    
   191   96  218 1    
   192   96  219 1    
   193   97   98 2    
   194   97   99 am   BACKBONE|DICT|INTERRES
   195   99  100 1    
   196   99  220 1    
   197  100  101 1    
   198  100  102 1    
   199  100  221 1    
   200  101  222 1    
   201  101  223 1    
   202  101  224 1    
   203  102  103 2    
   204  102  104 am   BACKBONE|DICT|INTERRES
   205  104  105 1    
   206  104  225 1    
   207  105  106 1    
   208  105  107 1    
   209  105  226 1    
   210  106  227 1    
   211  106  228 1    
   212  106  229 1    
   213  107  108 2    
   214  107  109 am   BACKBONE|DICT|INTERRES
   215  109  110 1    
   216  109  230 1    
   217  110  111 1    
   218  110  112 1    
   219  110  231 1    
   220  111  232 1    
   221  111  233 1    
   222  111  234 1    
   223  112  113 2    
   224  112  114 am   BACKBONE|DICT|INTERRES
   225  114  115 1    
   226  114  235 1    
   227  115  116 1    
   228  115  117 1    
   229  115  236 1    
   230  116  237 1    
   231  116  238 1    
   232  116  239 1    
   233  117  118 2    
   234  117  119 am   BACKBONE|DICT|INTERRES
   235  119  120 1    
   236  119  240 1    
   237  120  121 1    
   238  120  124 1    
   239  120  241 1    
   240  121  122 am   BACKBONE|DICT|INTERRES
   241  121  123 2    
   242  122  242 1    
   243  122  243 1    
   244  124  125 1    
   245  124  244 1    
   246  124  245 1    
   247  125  126 1    
   248  126  246 1    
   249  126  247 1    
@<TRIPOS>SUBSTRUCTURE
     1 UNK         1 GROUP             0       ****    0 ROOT    
