@<TRIPOS>MOLECULE
3R540
247   249    1
SMALL
USER_CHARGES


@<TRIPOS>ATOM
      1 CA          0.3748  -13.5865  -49.0552 C.3       0 UNK        -0.1800 
      2 C          -0.6606  -13.9985  -48.0201 C.2       0 UNK         0.5000 
      3 O          -0.2988  -14.2900  -46.8778 O.2       0 UNK        -0.5000 
      4 N          -1.9401  -14.0286  -48.4190 N.am      1 UNK        -0.5000 
      5 CA         -3.0690  -14.4591  -47.5872 C.3       1 UNK         0.1400 
      6 C6         -4.3867  -14.6847  -48.3832 C.3       23 UNK        -0.0398 
      7 S7         -4.2114  -15.4936  -50.0109 S.3       23 UNK        -0.2404 
      8 C8         -3.7604  -17.2071  -49.5693 C.3       23 UNK        -0.0205 
      9 C9         -2.3790  -17.6696  -50.0408 C.ar      23 UNK        -0.0193 
     10 C10        -1.4370  -16.8138  -50.6309 C.ar      23 UNK        -0.1150 
     11 C11        -0.1854  -17.2889  -51.0311 C.ar      23 UNK        -0.0193 
     12 C12         0.1385  -18.6305  -50.8190 C.ar      23 UNK        -0.1150 
     13 C13        -0.7829  -19.4951  -50.2262 C.ar      23 UNK        -0.0193 
     14 C14        -2.0380  -19.0115  -49.8509 C.ar      23 UNK        -0.1150 
     15 C15        -0.4229  -20.9488  -49.9850 C.3       23 UNK        -0.0205 
     16 S16         0.6318  -21.1345  -48.5141 S.3       23 UNK        -0.2404 
     17 C17         0.5849  -22.9475  -48.3102 C.3       23 UNK        -0.0398 
     18 CA         -0.1738  -23.4405  -47.0549 C.3       11 UNK         0.1400 
     19 N           0.5053  -23.0764  -45.8100 N.am      11 UNK        -0.5000 
     20 C           0.2835  -23.6692  -44.6295 C.2       10 UNK         0.5000 
     21 O          -0.5296  -24.5824  -44.4865 O.2       10 UNK        -0.5000 
     22 CA          1.0355  -23.1319  -43.3957 C.3       10 UNK         0.1400 
     23 CB          1.5687  -24.2649  -42.4966 C.3       10 UNK        -0.1800 
     24 N           2.0843  -22.1546  -43.7023 N.am      10 UNK        -0.5000 
     25 C           3.2516  -22.3401  -44.3354 C.2       9 UNK         0.5000 
     26 O           3.6354  -23.4248  -44.7724 O.2       9 UNK        -0.5000 
     27 CA          4.1301  -21.0884  -44.5410 C.3       9 UNK         0.1400 
     28 CB          4.0328  -20.6148  -46.0000 C.3       9 UNK        -0.1800 
     29 N           3.7683  -19.9749  -43.6584 N.am      9 UNK        -0.5000 
     30 C           4.0028  -19.9307  -42.3388 C.2       8 UNK         0.5000 
     31 O           4.6399  -20.7895  -41.7282 O.2       8 UNK        -0.5000 
     32 CA          3.3750  -18.7543  -41.5656 C.3       8 UNK         0.1400 
     33 CB          4.2472  -17.4947  -41.6768 C.3       8 UNK        -0.1800 
     34 N           2.0146  -18.4488  -42.0158 N.am      8 UNK        -0.5000 
     35 C           0.9612  -19.2689  -41.8826 C.2       7 UNK         0.5000 
     36 O           1.0085  -20.3551  -41.3073 O.2       7 UNK        -0.5000 
     37 CA         -0.3510  -18.8340  -42.5557 C.3       7 UNK         0.1400 
     38 CB         -1.1423  -17.8647  -41.6649 C.3       7 UNK        -0.1800 
     39 N          -0.0976  -18.2190  -43.8569 N.am      7 UNK        -0.5000 
     40 C           0.1777  -18.9027  -44.9760 C.2       6 UNK         0.5000 
     41 O           0.1539  -20.1322  -45.0490 O.2       6 UNK        -0.5000 
     42 CA          0.5317  -18.0735  -46.2238 C.3       6 UNK         0.1400 
     43 CB         -0.7327  -17.8034  -47.0346 C.3       6 UNK        -0.1800 
     44 N           1.1560  -16.7905  -45.9147 N.am      6 UNK        -0.5000 
     45 C           2.3764  -16.6434  -45.3843 C.2       5 UNK         0.5000 
     46 O           3.1285  -17.5803  -45.1226 O.2       5 UNK        -0.5000 
     47 CA          2.7812  -15.2073  -45.0145 C.3       5 UNK         0.1400 
     48 CB          3.3487  -14.4653  -46.2333 C.3       5 UNK        -0.1800 
     49 N           1.6460  -14.4588  -44.4770 N.am      5 UNK        -0.5000 
     50 C           1.0304  -14.7296  -43.3178 C.2       4 UNK         0.5000 
     51 O           1.4038  -15.6201  -42.5534 O.2       4 UNK        -0.5000 
     52 CA         -0.2498  -13.9322  -42.9932 C.3       4 UNK         0.1400 
     53 CB         -0.3560  -13.5648  -41.4992 C.3       4 UNK        -0.1800 
     54 N          -0.4471  -12.7626  -43.8563 N.am      4 UNK        -0.5000 
     55 C           0.2824  -11.6359  -43.9019 C.2       3 UNK         0.5000 
     56 O           1.2269  -11.3952  -43.1500 O.2       3 UNK        -0.5000 
     57 CA         -0.0734  -10.6192  -45.0054 C.3       3 UNK         0.1400 
     58 CB          1.0096  -10.6233  -46.0964 C.3       3 UNK        -0.1800 
     59 N          -1.3682  -10.8853  -45.6342 N.am      3 UNK        -0.5000 
     60 C          -2.5594  -10.6315  -45.0758 C.2       2 UNK         0.5000 
     61 O          -2.7002  -10.0774  -43.9854 O.2       2 UNK        -0.5000 
     62 CA         -3.8005  -11.0939  -45.8604 C.3       2 UNK         0.1400 
     63 CB         -4.4071   -9.9213  -46.6461 C.3       2 UNK        -0.1800 
     64 N          -3.5188  -12.1930  -46.7885 N.am      2 UNK        -0.5000 
     65 C          -3.3085  -13.4686  -46.4297 C.2       1 UNK         0.5000 
     66 O          -3.2696  -13.8563  -45.2617 O.2       1 UNK        -0.5000 
     67 C          -1.6641  -23.0340  -47.0349 C.2       11 UNK         0.5000 
     68 O          -2.4934  -23.7488  -47.6008 O.2       11 UNK        -0.5000 
     69 N          -1.9857  -21.9379  -46.3274 N.am      12 UNK        -0.5000 
     70 CA         -3.3590  -21.5036  -46.0709 C.3       12 UNK         0.1400 
     71 CB         -3.3710  -20.0847  -45.4840 C.3       12 UNK        -0.1800 
     72 C          -4.1208  -22.4732  -45.1529 C.2       12 UNK         0.5000 
     73 O          -5.2978  -22.7397  -45.3928 O.2       12 UNK        -0.5000 
     74 N          -3.4289  -23.0113  -44.1400 N.am      13 UNK        -0.5000 
     75 CA         -3.9666  -24.0290  -43.2376 C.3       13 UNK         0.1400 
     76 CB         -3.0484  -24.1668  -42.0130 C.3       13 UNK        -0.1800 
     77 C          -4.1551  -25.3837  -43.9448 C.2       13 UNK         0.5000 
     78 O          -5.1394  -26.0751  -43.6808 O.2       13 UNK        -0.5000 
     79 N          -3.2141  -25.7277  -44.8342 N.am      14 UNK        -0.5000 
     80 CA         -3.2179  -26.9632  -45.6094 C.3       14 UNK         0.1400 
     81 CB         -1.8276  -27.1906  -46.2231 C.3       14 UNK        -0.1800 
     82 C          -4.3017  -26.9987  -46.7010 C.2       14 UNK         0.5000 
     83 O          -5.0202  -27.9959  -46.7896 O.2       14 UNK        -0.5000 
     84 N          -4.3810  -25.9496  -47.5348 N.am      15 UNK        -0.5000 
     85 CA         -5.1517  -25.9883  -48.7814 C.3       15 UNK         0.1400 
     86 CB         -4.3281  -26.7149  -49.8655 C.3       15 UNK        -0.1800 
     87 C          -5.6667  -24.6134  -49.2481 C.2       15 UNK         0.5000 
     88 O          -5.8834  -24.4356  -50.4496 O.2       15 UNK        -0.5000 
     89 N          -5.8841  -23.6752  -48.3134 N.am      16 UNK        -0.5000 
     90 CA         -6.4901  -22.3422  -48.4834 C.3       16 UNK         0.1400 
     91 CB         -7.9545  -22.4500  -48.9535 C.3       16 UNK        -0.1800 
     92 C          -5.6837  -21.3689  -49.3671 C.2       16 UNK         0.5000 
     93 O          -5.2318  -20.3360  -48.8748 O.2       16 UNK        -0.5000 
     94 N          -5.5239  -21.7168  -50.6456 N.am      17 UNK        -0.5000 
     95 CA         -4.7042  -21.0185  -51.6335 C.3       17 UNK         0.1400 
     96 CB         -5.6008  -20.5563  -52.7922 C.3       17 UNK        -0.1800 
     97 C          -3.5721  -21.9168  -52.1616 C.2       17 UNK         0.5000 
     98 O          -2.6107  -21.3931  -52.7224 O.2       17 UNK        -0.5000 
     99 N          -3.7090  -23.2464  -52.0108 N.am      18 UNK        -0.5000 
    100 CA        -2.7503  -24.2970  -52.3866 C.3       18 UNK         0.1400 
    101 CB        -1.5490  -24.2742  -51.4217 C.3       18 UNK        -0.1800 
    102 C         -2.3090  -24.2775  -53.8687 C.2       18 UNK         0.5000 
    103 O         -1.2278  -24.7718  -54.1915 O.2       18 UNK        -0.5000 
    104 N         -3.1465  -23.6851  -54.7344 N.am      19 UNK        -0.5000 
    105 CA        -2.9079  -23.3884  -56.1519 C.3       19 UNK         0.1400 
    106 CB        -2.7973  -24.6889  -56.9754 C.3       19 UNK        -0.1800 
    107 C         -1.7254  -22.4211  -56.4008 C.2       19 UNK         0.5000 
    108 O         -1.1869  -22.3947  -57.5090 O.2       19 UNK        -0.5000 
    109 N         -1.3447  -21.6306  -55.3844 N.am      20 UNK        -0.5000 
    110 CA        -0.2443  -20.6658  -55.4538 C.3       20 UNK         0.1400 
    111 CB         0.2125  -20.3254  -54.0275 C.3       20 UNK        -0.1800 
    112 C         -0.6182  -19.3845  -56.2238 C.2       20 UNK         0.5000 
    113 O          0.2717  -18.7134  -56.7454 O.2       20 UNK        -0.5000 
    114 N         -1.9230  -19.0713  -56.2716 N.am      21 UNK        -0.5000 
    115 CA        -2.5817  -17.9607  -56.9782 C.3       21 UNK         0.1400 
    116 CB        -2.2984  -18.0222  -58.4928 C.3       21 UNK        -0.1800 
    117 C         -2.3130  -16.5502  -56.4069 C.2       21 UNK         0.5000 
    118 O         -2.9664  -15.5984  -56.8364 O.2       21 UNK        -0.5000 
    119 N         -1.3998  -16.4311  -55.4379 N.am      22 UNK        -0.5000 
    120 CA        -1.0731  -15.1992  -54.7012 C.3       22 UNK         0.1400 
    121 C         -2.0539  -14.8494  -53.5428 C.2       22 UNK         0.5000 
    122 N         -3.0970  -15.6303  -53.2916 N.am      22 UNK        -0.7600 
    123 O         -1.8721  -13.8424  -52.8636 O.2       22 UNK        -0.5000 
    124 C124        0.4139  -15.1763  -54.2514 C.3       23 UNK        -0.0398 
    125 S125        1.0065  -16.7129  -53.4553 S.3       23 UNK        -0.2404 
    126 C126        0.8260  -16.3562  -51.6793 C.3       23 UNK        -0.0205 
    127 H127       -0.0819  -13.3778  -50.0231 H         1 UNK         0.0600 
    128 H128        0.9025  -12.6916  -48.7277 H         1 UNK         0.0600 
    129 H129        1.1048  -14.3849  -49.1874 H         1 UNK         0.0600 
    130 H130       -2.1702  -13.7943  -49.3744 H         1 UNK         0.3000 
    131 H131       -2.7897  -15.4162  -47.1441 H         1 UNK         0.0600 
    132 H132       -4.8871  -13.7356  -48.5830 H         1 UNK         0.0800 
    133 H133       -5.0901  -15.2642  -47.7827 H         1 UNK         0.0800 
    134 H134       -4.5133  -17.8677  -50.0014 H         1 UNK         0.0800 
    135 H135       -3.8237  -17.3426  -48.4889 H         1 UNK         0.0800 
    136 H136       -1.6625  -15.7706  -50.7843 H         1 UNK         0.1150 
    137 H137        1.1087  -19.0026  -51.1165 H         1 UNK         0.1150 
    138 H138       -2.7442  -19.6796  -49.3793 H         1 UNK         0.1150 
    139 H139       -1.3309  -21.5418  -49.8634 H         1 UNK         0.0800 
    140 H140        0.0957  -21.3459  -50.8584 H         1 UNK         0.0800 
    141 H141        1.6159  -23.3018  -48.2704 H         1 UNK         0.0800 
    142 H142        0.1613  -23.4080  -49.2030 H         1 UNK         0.0800 
    143 H143       -0.1591  -24.5307  -47.1065 H         1 UNK         0.0600 
    144 H144        1.1179  -22.2737  -45.8411 H         1 UNK         0.3000 
    145 H145        0.2889  -22.5856  -42.8181 H         1 UNK         0.0600 
    146 H146        2.0783  -23.8642  -41.6202 H         1 UNK         0.0600 
    147 H147        0.7542  -24.8947  -42.1367 H         1 UNK         0.0600 
    148 H148        2.2679  -24.9112  -43.0275 H         1 UNK         0.0600 
    149 H149        1.8744  -21.2110  -43.4081 H         1 UNK         0.3000 
    150 H150        5.1647  -21.3710  -44.3369 H         1 UNK         0.0600 
    151 H151        4.3273  -21.4056  -46.6911 H         1 UNK         0.0600 
    152 H152        4.6881  -19.7630  -46.1831 H         1 UNK         0.0600 
    153 H153        3.0161  -20.3160  -46.2579 H         1 UNK         0.0600 
    154 H154        3.3197  -19.1763  -44.1002 H         1 UNK         0.3000 
    155 H155        3.3222  -19.0382  -40.5125 H         1 UNK         0.0600 
    156 H156        4.3386  -17.1558  -42.7088 H         1 UNK         0.0600 
    157 H157        5.2542  -17.6836  -41.3031 H         1 UNK         0.0600 
    158 H158        3.8308  -16.6741  -41.0921 H         1 UNK         0.0600 
    159 H159        1.8731  -17.5386  -42.4425 H         1 UNK         0.3000 
    160 H160       -0.9635  -19.7263  -42.7038 H         1 UNK         0.0600 
    161 H161       -2.0773  -17.5670  -42.1396 H         1 UNK         0.0600 
    162 H162       -0.5770  -16.9609  -41.4402 H         1 UNK         0.0600 
    163 H163       -1.3960  -18.3339  -40.7136 H         1 UNK         0.0600 
    164 H164       -0.0343  -17.2131  -43.8816 H         1 UNK         0.3000 
    165 H165        1.2241  -18.6545  -46.8355 H         1 UNK         0.0600 
    166 H166       -0.5069  -17.2223  -47.9277 H         1 UNK         0.0600 
    167 H167       -1.1760  -18.7443  -47.3539 H         1 UNK         0.0600 
    168 H168       -1.4796  -17.2602  -46.4557 H         1 UNK         0.0600 
    169 H169        0.6138  -15.9566  -46.1187 H         1 UNK         0.3000 
    170 H170        3.5557  -15.2586  -44.2465 H         1 UNK         0.0600 
    171 H171        4.2107  -14.9927  -46.6437 H         1 UNK         0.0600 
    172 H172        3.6785  -13.4615  -45.9647 H         1 UNK         0.0600 
    173 H173        2.6099  -14.3727  -47.0300 H         1 UNK         0.0600 
    174 H174        1.2267  -13.7702  -45.0858 H         1 UNK         0.3000 
    175 H175       -1.0790  -14.6037  -43.2205 H         1 UNK         0.0600 
    176 H176       -1.2657  -12.9998  -41.2958 H         1 UNK         0.0600 
    177 H177       -0.3862  -14.4605  -40.8781 H         1 UNK         0.0600 
    178 H178        0.4931  -12.9691  -41.1639 H         1 UNK         0.0600 
    179 H179       -1.1930  -12.8601  -44.5331 H         1 UNK         0.3000 
    180 H180       -0.1012   -9.6277  -44.5487 H         1 UNK         0.0600 
    181 H181        1.1076  -11.6045  -46.5615 H         1 UNK         0.0600 
    182 H182        1.9835  -10.3609  -45.6811 H         1 UNK         0.0600 
    183 H183        0.7866   -9.8986  -46.8797 H         1 UNK         0.0600 
    184 H184       -1.3518  -11.3429  -46.5333 H         1 UNK         0.3000 
    185 H185       -4.5399  -11.4372  -45.1336 H         1 UNK         0.0600 
    186 H186       -3.7166   -9.5406  -47.3998 H         1 UNK         0.0600 
    187 H187       -5.3264  -10.2183  -47.1512 H         1 UNK         0.0600 
    188 H188       -4.6566   -9.0930  -45.9815 H         1 UNK         0.0600 
    189 H189       -3.5036  -11.9574  -47.7704 H         1 UNK         0.3000 
    190 H190       -1.2393  -21.3962  -45.9031 H         1 UNK         0.3000 
    191 H191       -3.8820  -21.4815  -47.0253 H         1 UNK         0.0600 
    192 H192       -3.0216  -19.3573  -46.2132 H         1 UNK         0.0600 
    193 H193       -2.7463  -20.0067  -44.5939 H         1 UNK         0.0600 
    194 H194       -4.3819  -19.7863  -45.2033 H         1 UNK         0.0600 
    195 H195       -2.4569  -22.7673  -44.0294 H         1 UNK         0.3000 
    196 H196       -4.9463  -23.6948  -42.8891 H         1 UNK         0.0600 
    197 H197       -3.4538  -24.8899  -41.3042 H         1 UNK         0.0600 
    198 H198       -2.9475  -23.2178  -41.4863 H         1 UNK         0.0600 
    199 H199       -2.0495  -24.5057  -42.2881 H         1 UNK         0.0600 
    200 H200       -2.3945  -25.1369  -44.9254 H         1 UNK         0.3000 
    201 H201       -3.4134  -27.7877  -44.9204 H         1 UNK         0.0600 
    202 H202       -1.0550  -27.2171  -45.4545 H         1 UNK         0.0600 
    203 H203       -1.5677  -26.4068  -46.9339 H         1 UNK         0.0600 
    204 H204       -1.7886  -28.1409  -46.7569 H         1 UNK         0.0600 
    205 H205       -3.7411  -25.1651  -47.4242 H         1 UNK         0.3000 
    206 H206       -6.0614  -26.5687  -48.6149 H         1 UNK         0.0600 
    207 H207       -4.1125  -27.7431  -49.5753 H         1 UNK         0.0600 
    208 H208       -4.8601  -26.7625  -50.8163 H         1 UNK         0.0600 
    209 H209       -3.3756  -26.2148  -50.0372 H         1 UNK         0.0600 
    210 H210       -5.6471  -23.9035  -47.3559 H         1 UNK         0.3000 
    211 H211       -6.5179  -21.8952  -47.4898 H         1 UNK         0.0600 
    212 H212       -8.0425  -22.9114  -49.9373 H         1 UNK         0.0600 
    213 H213       -8.4159  -21.4636  -49.0154 H         1 UNK         0.0600 
    214 H214       -8.5469  -23.0408  -48.2548 H         1 UNK         0.0600 
    215 H215       -5.9074  -22.6173  -50.9161 H         1 UNK         0.3000 
    216 H216       -4.2386  -20.1366  -51.1931 H         1 UNK         0.0600 
    217 H217       -5.0210  -20.0249  -53.5482 H         1 UNK         0.0600 
    218 H218       -6.3749  -19.8746  -52.4395 H         1 UNK         0.0600 
    219 H219       -6.0929  -21.3971  -53.2826 H         1 UNK         0.0600 
    220 H220       -4.5411  -23.5924  -51.5443 H         1 UNK         0.3000 
    221 H221       -3.2726  -25.2437  -52.2482 H         1 UNK         0.0600 
    222 H222       -0.9130  -23.4078  -51.6013 H         1 UNK         0.0600 
    223 H223       -1.8765  -24.2445  -50.3824 H         1 UNK         0.0600 
    224 H224       -0.9307  -25.1643  -51.5420 H         1 UNK         0.0600 
    225 H225       -4.0066  -23.3167  -54.3546 H         1 UNK         0.3000 
    226 H226       -3.7969  -22.8598  -56.4986 H         1 UNK         0.0600 
    227 H227       -3.6432  -25.3494  -56.7853 H         1 UNK         0.0600 
    228 H228       -2.7891  -24.4761  -58.0450 H         1 UNK         0.0600 
    229 H229       -1.8839  -25.2382  -56.7464 H         1 UNK         0.0600 
    230 H230       -1.8256  -21.6980  -54.4913 H         1 UNK         0.3000 
    231 H231        0.5940  -21.1344  -55.9737 H         1 UNK         0.0600 
    232 H232        0.4543  -21.2257  -53.4625 H         1 UNK         0.0600 
    233 H233       -0.5562  -19.7814  -53.4770 H         1 UNK         0.0600 
    234 H234        1.1071  -19.7025  -54.0436 H         1 UNK         0.0600 
    235 H235       -2.5480  -19.6897  -55.7744 H         1 UNK         0.3000 
    236 H236       -3.6511  -18.1302  -56.8448 H         1 UNK         0.0600 
    237 H237       -2.9097  -17.2990  -59.0338 H         1 UNK         0.0600 
    238 H238       -1.2561  -17.7994  -58.7219 H         1 UNK         0.0600 
    239 H239       -2.5287  -19.0077  -58.8979 H         1 UNK         0.0600 
    240 H240       -0.8876  -17.2539  -55.1543 H         1 UNK         0.3000 
    241 H241       -1.1868  -14.3691  -55.4008 H         1 UNK         0.0600 
    242 H242       -3.7086  -15.4019  -52.5233 H         1 UNK         0.3800 
    243 H243       -3.2548  -16.4640  -53.8315 H         1 UNK         0.3800 
    244 H244        1.0348  -15.0340  -55.1368 H         1 UNK         0.0800 
    245 H245        0.6316  -14.3141  -53.6191 H         1 UNK         0.0800 
    246 H246        0.5407  -15.3153  -51.5267 H         1 UNK         0.0800 
    247 H247        1.7941  -16.4814  -51.1925 H         1 UNK         0.0800 
@<TRIPOS>BOND
     1    1    2 1    
     2    1  127 1    
     3    1  128 1    
     4    1  129 1    
     5    2    3 2    
     6    2    4 am   BACKBONE|DICT|INTERRES
     7    4    5 1    
     8    4  130 1    
     9    5    6 1    
    10    5   65 1    
    11    5  131 1    
    12    6    7 1    
    13    6  132 1    
    14    6  133 1    
    15    7    8 1    
    16    8    9 1    
    17    8  134 1    
    18    8  135 1    
    19    9   10 ar   
    20    9   14 ar   
    21   10   11 ar   
    22   10  136 1    
    23   11   12 ar   
    24   11  126 1    
    25   12   13 ar   
    26   12  137 1    
    27   13   14 ar   
    28   13   15 1    
    29   14  138 1    
    30   15   16 1    
    31   15  139 1    
    32   15  140 1    
    33   16   17 1    
    34   17   18 1    
    35   17  141 1    
    36   17  142 1    
    37   18   19 1    
    38   18   67 1    
    39   18  143 1    
    40   19   20 am   BACKBONE|DICT|INTERRES
    41   19  144 1    
    42   20   21 2    
    43   20   22 1    
    44   22   23 1    
    45   22   24 1    
    46   22  145 1    
    47   23  146 1    
    48   23  147 1    
    49   23  148 1    
    50   24   25 am   BACKBONE|DICT|INTERRES
    51   24  149 1    
    52   25   26 2    
    53   25   27 1    
    54   27   28 1    
    55   27   29 1    
    56   27  150 1    
    57   28  151 1    
    58   28  152 1    
    59   28  153 1    
    60   29   30 am   BACKBONE|DICT|INTERRES
    61   29  154 1    
    62   30   31 2    
    63   30   32 1    
    64   32   33 1    
    65   32   34 1    
    66   32  155 1    
    67   33  156 1    
    68   33  157 1    
    69   33  158 1    
    70   34   35 am   BACKBONE|DICT|INTERRES
    71   34  159 1    
    72   35   36 2    
    73   35   37 1    
    74   37   38 1    
    75   37   39 1    
    76   37  160 1    
    77   38  161 1    
    78   38  162 1    
    79   38  163 1    
    80   39   40 am   BACKBONE|DICT|INTERRES
    81   39  164 1    
    82   40   41 2    
    83   40   42 1    
    84   42   43 1    
    85   42   44 1    
    86   42  165 1    
    87   43  166 1    
    88   43  167 1    
    89   43  168 1    
    90   44   45 am   BACKBONE|DICT|INTERRES
    91   44  169 1    
    92   45   46 2    
    93   45   47 1    
    94   47   48 1    
    95   47   49 1    
    96   47  170 1    
    97   48  171 1    
    98   48  172 1    
    99   48  173 1    
   100   49   50 am   BACKBONE|DICT|INTERRES
   101   49  174 1    
   102   50   51 2    
   103   50   52 1    
   104   52   53 1    
   105   52   54 1    
   106   52  175 1    
   107   53  176 1    
   108   53  177 1    
   109   53  178 1    
   110   54   55 am   BACKBONE|DICT|INTERRES
   111   54  179 1    
   112   55   56 2    
   113   55   57 1    
   114   57   58 1    
   115   57   59 1    
   116   57  180 1    
   117   58  181 1    
   118   58  182 1    
   119   58  183 1    
   120   59   60 am   BACKBONE|DICT|INTERRES
   121   59  184 1    
   122   60   61 2    
   123   60   62 1    
   124   62   63 1    
   125   62   64 1    
   126   62  185 1    
   127   63  186 1    
   128   63  187 1    
   129   63  188 1    
   130   64   65 am   BACKBONE|DICT|INTERRES
   131   64  189 1    
   132   65   66 2    
   133   67   68 2    
   134   67   69 am   BACKBONE|DICT|INTERRES
   135   69   70 1    
   136   69  190 1    
   137   70   71 1    
   138   70   72 1    
   139   70  191 1    
   140   71  192 1    
   141   71  193 1    
   142   71  194 1    
   143   72   73 2    
   144   72   74 am   BACKBONE|DICT|INTERRES
   145   74   75 1    
   146   74  195 1    
   147   75   76 1    
   148   75   77 1    
   149   75  196 1    
   150   76  197 1    
   151   76  198 1    
   152   76  199 1    
   153   77   78 2    
   154   77   79 am   BACKBONE|DICT|INTERRES
   155   79   80 1    
   156   79  200 1    
   157   80   81 1    
   158   80   82 1    
   159   80  201 1    
   160   81  202 1    
   161   81  203 1    
   162   81  204 1    
   163   82   83 2    
   164   82   84 am   BACKBONE|DICT|INTERRES
   165   84   85 1    
   166   84  205 1    
   167   85   86 1    
   168   85   87 1    
   169   85  206 1    
   170   86  207 1    
   171   86  208 1    
   172   86  209 1    
   173   87   88 2    
   174   87   89 am   BACKBONE|DICT|INTERRES
   175   89   90 1    
   176   89  210 1    
   177   90   91 1    
   178   90   92 1    
   179   90  211 1    
   180   91  212 1    
   181   91  213 1    
   182   91  214 1    
   183   92   93 2    
   184   92   94 am   BACKBONE|DICT|INTERRES
   185   94   95 1    
   186   94  215 1    
   187   95   96 1    
   188   95   97 1    
   189   95  216 1    
   190   96  217 1    
   191   96  218 1    
   192   96  219 1    
   193   97   98 2    
   194   97   99 am   BACKBONE|DICT|INTERRES
   195   99  100 1    
   196   99  220 1    
   197  100  101 1    
   198  100  102 1    
   199  100  221 1    
   200  101  222 1    
   201  101  223 1    
   202  101  224 1    
   203  102  103 2    
   204  102  104 am   BACKBONE|DICT|INTERRES
   205  104  105 1    
   206  104  225 1    
   207  105  106 1    
   208  105  107 1    
   209  105  226 1    
   210  106  227 1    
   211  106  228 1    
   212  106  229 1    
   213  107  108 2    
   214  107  109 am   BACKBONE|DICT|INTERRES
   215  109  110 1    
   216  109  230 1    
   217  110  111 1    
   218  110  112 1    
   219  110  231 1    
   220  111  232 1    
   221  111  233 1    
   222  111  234 1    
   223  112  113 2    
   224  112  114 am   BACKBONE|DICT|INTERRES
   225  114  115 1    
   226  114  235 1    
   227  115  116 1    
   228  115  117 1    
   229  115  236 1    
   230  116  237 1    
   231  116  238 1    
   232  116  239 1    
   233  117  118 2    
   234  117  119 am   BACKBONE|DICT|INTERRES
   235  119  120 1    
   236  119  240 1    
   237  120  121 1    
   238  120  124 1    
   239  120  241 1    
   240  121  122 am   BACKBONE|DICT|INTERRES
   241  121  123 2    
   242  122  242 1    
   243  122  243 1    
   244  124  125 1    
   245  124  244 1    
   246  124  245 1    
   247  125  126 1    
   248  126  246 1    
   249  126  247 1    
@<TRIPOS>SUBSTRUCTURE
     1 UNK         1 GROUP             0       ****    0 ROOT    
