@<TRIPOS>MOLECULE
3R540
247   249    1
SMALL
USER_CHARGES


@<TRIPOS>ATOM
      1 CA          7.2200  -11.4989  -45.9135 C.3       0 UNK        -0.1800 
      2 C           5.8067  -12.0611  -45.9076 C.2       0 UNK         0.5000 
      3 O           4.9766  -11.6144  -45.1182 O.2       0 UNK        -0.5000 
      4 N           5.5233  -13.0210  -46.7982 N.am      1 UNK        -0.5000 
      5 CA          4.2492  -13.7458  -46.9435 C.3       1 UNK         0.1400 
      6 C6          4.3831  -14.8260  -48.0461 C.3       23 UNK        -0.0398 
      7 S7          3.1033  -16.1252  -47.9897 S.3       23 UNK        -0.2404 
      8 C8          2.3580  -15.9177  -49.6376 C.3       23 UNK        -0.0205 
      9 C9          1.2945  -16.9693  -49.9079 C.ar      23 UNK        -0.0193 
     10 C10        -0.0592  -16.6240  -49.9191 C.ar      23 UNK        -0.1150 
     11 C11        -1.0354  -17.5930  -50.1683 C.ar      23 UNK        -0.0193 
     12 C12        -0.6503  -18.9189  -50.3838 C.ar      23 UNK        -0.1150 
     13 C13         0.7017  -19.2757  -50.3944 C.ar      23 UNK        -0.0193 
     14 C14         1.6686  -18.2901  -50.1680 C.ar      23 UNK        -0.1150 
     15 C15         1.1018  -20.7236  -50.6651 C.3       23 UNK        -0.0205 
     16 S16         2.4126  -21.3568  -49.5594 S.3       23 UNK        -0.2404 
     17 C17         1.7069  -21.0338  -47.9066 C.3       23 UNK        -0.0398 
     18 CA          1.0294  -22.2613  -47.2583 C.3       11 UNK         0.1400 
     19 N           0.7461  -22.0191  -45.8444 N.am      11 UNK        -0.5000 
     20 C           0.2892  -22.9311  -44.9768 C.2       10 UNK         0.5000 
     21 O           0.1158  -24.1178  -45.2554 O.2       10 UNK        -0.5000 
     22 CA         -0.0871  -22.4118  -43.5771 C.3       10 UNK         0.1400 
     23 CB          1.1617  -22.2492  -42.6981 C.3       10 UNK        -0.1800 
     24 N          -0.8222  -21.1456  -43.6318 N.am      10 UNK        -0.5000 
     25 C          -2.0322  -21.0027  -44.1925 C.2       9 UNK         0.5000 
     26 O          -2.6741  -21.9373  -44.6720 O.2       9 UNK        -0.5000 
     27 CA         -2.6096  -19.5774  -44.2642 C.3       9 UNK         0.1400 
     28 CB         -3.2246  -19.1712  -42.9169 C.3       9 UNK        -0.1800 
     29 N          -1.6221  -18.5798  -44.6792 N.am      9 UNK        -0.5000 
     30 C          -1.0184  -18.5565  -45.8766 C.2       8 UNK         0.5000 
     31 O          -1.2554  -19.3626  -46.7730 O.2       8 UNK        -0.5000 
     32 CA          0.0740  -17.4931  -46.0911 C.3       8 UNK         0.1400 
     33 CB         -0.5438  -16.1226  -46.4017 C.3       8 UNK        -0.1800 
     34 N           0.9770  -17.3833  -44.9450 N.am      8 UNK        -0.5000 
     35 C           1.7490  -18.3814  -44.4913 C.2       7 UNK         0.5000 
     36 O           1.8285  -19.4871  -45.0250 O.2       7 UNK        -0.5000 
     37 CA          2.5076  -18.1245  -43.1807 C.3       7 UNK         0.1400 
     38 CB          3.8090  -17.3488  -43.4379 C.3       7 UNK        -0.1800 
     39 N           1.6720  -17.4107  -42.2143 N.am      7 UNK        -0.5000 
     40 C           0.6279  -17.9609  -41.5764 C.2       6 UNK         0.5000 
     41 O           0.2939  -19.1387  -41.7062 O.2       6 UNK        -0.5000 
     42 CA         -0.2057  -17.0336  -40.6714 C.3       6 UNK         0.1400 
     43 CB          0.4266  -16.9298  -39.2757 C.3       6 UNK        -0.1800 
     44 N          -0.3677  -15.6910  -41.2307 N.am      6 UNK        -0.5000 
     45 C          -1.0586  -15.4119  -42.3452 C.2       5 UNK         0.5000 
     46 O          -1.6844  -16.2548  -42.9853 O.2       5 UNK        -0.5000 
     47 CA         -1.0019  -13.9597  -42.8595 C.3       5 UNK         0.1400 
     48 CB         -2.1557  -13.1346  -42.2717 C.3       5 UNK        -0.1800 
     49 N           0.2668  -13.2814  -42.5811 N.am      5 UNK        -0.5000 
     50 C           1.4739  -13.7012  -42.9798 C.2       4 UNK         0.5000 
     51 O           1.6542  -14.7273  -43.6379 O.2       4 UNK        -0.5000 
     52 CA          2.6677  -12.8307  -42.5487 C.3       4 UNK         0.1400 
     53 CB          3.9994  -13.6004  -42.5945 C.3       4 UNK        -0.1800 
     54 N           2.7805  -11.6388  -43.3831 N.am      4 UNK        -0.5000 
     55 C           2.0087  -10.5474  -43.3002 C.2       3 UNK         0.5000 
     56 O           1.0979  -10.4174  -42.4805 O.2       3 UNK        -0.5000 
     57 CA          2.3013   -9.4150  -44.2980 C.3       3 UNK         0.1400 
     58 CB          3.4871   -8.5659  -43.8133 C.3       3 UNK        -0.1800 
     59 N           2.6057   -9.9463  -45.6268 N.am      3 UNK        -0.5000 
     60 C           1.7544   -9.9551  -46.6617 C.2       2 UNK         0.5000 
     61 O           0.6221   -9.4720  -46.6198 O.2       2 UNK        -0.5000 
     62 CA          2.2426  -10.6060  -47.9738 C.3       2 UNK         0.1400 
     63 CB          2.8089   -9.5387  -48.9228 C.3       2 UNK        -0.1800 
     64 N           3.2537  -11.6459  -47.7739 N.am      2 UNK        -0.5000 
     65 C           3.0250  -12.8258  -47.1793 C.2       1 UNK         0.5000 
     66 O           1.9116  -13.1771  -46.7915 O.2       1 UNK        -0.5000 
     67 C          -0.2385  -22.6971  -48.0206 C.2       11 UNK         0.5000 
     68 O          -0.1955  -23.6986  -48.7326 O.2       11 UNK        -0.5000 
     69 N          -1.3502  -21.9733  -47.8279 N.am      12 UNK        -0.5000 
     70 CA         -2.6551  -22.2773  -48.4148 C.3       12 UNK         0.1400 
     71 CB         -3.6595  -21.1762  -48.0479 C.3       12 UNK        -0.1800 
     72 C          -3.1941  -23.6558  -48.0001 C.2       12 UNK         0.5000 
     73 O          -3.7025  -24.3861  -48.8504 O.2       12 UNK        -0.5000 
     74 N          -3.0382  -24.0053  -46.7155 N.am      13 UNK        -0.5000 
     75 CA         -3.3851  -25.3155  -46.1671 C.3       13 UNK         0.1400 
     76 CB         -3.2613  -25.2869  -44.6364 C.3       13 UNK        -0.1800 
     77 C          -2.5384  -26.4511  -46.7709 C.2       13 UNK         0.5000 
     78 O          -3.0952  -27.4830  -47.1463 O.2       13 UNK        -0.5000 
     79 N          -1.2217  -26.2282  -46.8936 N.am      14 UNK        -0.5000 
     80 CA         -0.2743  -27.1594  -47.5121 C.3       14 UNK         0.1400 
     81 CB          1.1613  -26.6802  -47.2479 C.3       14 UNK        -0.1800 
     82 C          -0.5181  -27.3547  -49.0217 C.2       14 UNK         0.5000 
     83 O          -0.4167  -28.4785  -49.5147 O.2       14 UNK        -0.5000 
     84 N          -0.8616  -26.2646  -49.7199 N.am      15 UNK        -0.5000 
     85 CA         -1.2107  -26.2427  -51.1422 C.3       15 UNK         0.1400 
     86 CB         -1.1196  -24.7942  -51.6484 C.3       15 UNK        -0.1800 
     87 C          -2.6054  -26.8260  -51.4500 C.2       15 UNK         0.5000 
     88 O          -2.8962  -27.0890  -52.6173 O.2       15 UNK        -0.5000 
     89 N          -3.4361  -27.0035  -50.4117 N.am      16 UNK        -0.5000 
     90 CA         -4.8380  -27.4294  -50.4487 C.3       16 UNK         0.1400 
     91 CB         -4.9737  -28.8684  -50.9895 C.3       16 UNK        -0.1800 
     92 C          -5.7395  -26.4083  -51.1750 C.2       16 UNK         0.5000 
     93 O          -6.6138  -26.7920  -51.9545 O.2       16 UNK        -0.5000 
     94 N          -5.5068  -25.1214  -50.8795 N.am      17 UNK        -0.5000 
     95 CA         -6.1954  -23.9398  -51.3962 C.3       17 UNK         0.1400 
     96 CB         -7.6341  -23.8661  -50.8357 C.3       17 UNK        -0.1800 
     97 C          -6.0994  -23.8283  -52.9326 C.2       17 UNK         0.5000 
     98 O          -4.9903  -23.6883  -53.4523 O.2       17 UNK        -0.5000 
     99 N          -7.2487  -23.8613  -53.6248 N.am      18 UNK        -0.5000 
    100 CA        -7.4149  -23.7176  -55.0742 C.3       18 UNK         0.1400 
    101 CB        -6.8325  -24.9451  -55.8117 C.3       18 UNK        -0.1800 
    102 C         -6.8677  -22.3607  -55.5635 C.2       18 UNK         0.5000 
    103 O         -7.3918  -21.3224  -55.1585 O.2       18 UNK        -0.5000 
    104 N         -5.8137  -22.3783  -56.3893 N.am      19 UNK        -0.5000 
    105 CA        -5.1124  -21.1871  -56.8755 C.3       19 UNK         0.1400 
    106 CB        -4.1570  -21.6022  -58.0048 C.3       19 UNK        -0.1800 
    107 C         -4.3454  -20.4256  -55.7732 C.2       19 UNK         0.5000 
    108 O         -4.0551  -19.2427  -55.9514 O.2       19 UNK        -0.5000 
    109 N         -4.0415  -21.1057  -54.6607 N.am      20 UNK        -0.5000 
    110 CA        -3.3330  -20.5743  -53.4991 C.3       20 UNK         0.1400 
    111 CB        -2.1109  -21.4702  -53.2282 C.3       20 UNK        -0.1800 
    112 C         -4.2755  -20.4848  -52.2830 C.2       20 UNK         0.5000 
    113 O         -3.8393  -20.7206  -51.1591 O.2       20 UNK        -0.5000 
    114 N         -5.5581  -20.1757  -52.5268 N.am      21 UNK        -0.5000 
    115 CA        -6.6131  -20.0354  -51.5191 C.3       21 UNK         0.1400 
    116 CB        -7.9629  -19.7476  -52.1944 C.3       21 UNK        -0.1800 
    117 C         -6.3223  -19.0627  -50.3502 C.2       21 UNK         0.5000 
    118 O         -6.4992  -19.4732  -49.2052 O.2       21 UNK        -0.5000 
    119 N         -5.8741  -17.8153  -50.5551 N.am      22 UNK        -0.5000 
    120 CA        -5.8271  -17.0234  -51.7977 C.3       22 UNK         0.1400 
    121 C         -7.1356  -16.2190  -52.0633 C.2       22 UNK         0.5000 
    122 N         -8.1293  -16.2433  -51.1828 N.am      22 UNK        -0.7600 
    123 O         -7.2617  -15.5759  -53.1012 O.2       22 UNK        -0.5000 
    124 C124       -4.5945  -16.0827  -51.8008 C.3       23 UNK        -0.0398 
    125 S125       -3.0163  -16.9809  -51.9684 S.3       23 UNK        -0.2404 
    126 C126       -2.5025  -17.2023  -50.2358 C.3       23 UNK        -0.0205 
    127 H127        7.6870  -11.6537  -44.9410 H         1 UNK         0.0600 
    128 H128        7.1957  -10.4279  -46.1144 H         1 UNK         0.0600 
    129 H129        7.8435  -11.9743  -46.6710 H         1 UNK         0.0600 
    130 H130        6.2586  -13.3198  -47.4232 H         1 UNK         0.3000 
    131 H131        4.0767  -14.2551  -45.9932 H         1 UNK         0.0600 
    132 H132        4.4146  -14.3631  -49.0340 H         1 UNK         0.0800 
    133 H133        5.3371  -15.3438  -47.9367 H         1 UNK         0.0800 
    134 H134        1.9359  -14.9144  -49.7159 H         1 UNK         0.0800 
    135 H135        3.1339  -15.9911  -50.4012 H         1 UNK         0.0800 
    136 H136       -0.3534  -15.5988  -49.7433 H         1 UNK         0.1150 
    137 H137       -1.4101  -19.6669  -50.5603 H         1 UNK         0.1150 
    138 H138        2.7172  -18.5522  -50.1753 H         1 UNK         0.1150 
    139 H139        0.2343  -21.3804  -50.5882 H         1 UNK         0.0800 
    140 H140        1.4492  -20.7992  -51.6960 H         1 UNK         0.0800 
    141 H141        1.0254  -20.1840  -47.9331 H         1 UNK         0.0800 
    142 H142        2.5408  -20.7131  -47.2814 H         1 UNK         0.0800 
    143 H143        1.7354  -23.0936  -47.2983 H         1 UNK         0.0600 
    144 H144        0.9029  -21.0703  -45.5139 H         1 UNK         0.3000 
    145 H145       -0.7361  -23.1559  -43.1106 H         1 UNK         0.0600 
    146 H146        0.8927  -21.9559  -41.6832 H         1 UNK         0.0600 
    147 H147        1.7163  -23.1858  -42.6304 H         1 UNK         0.0600 
    148 H148        1.8395  -21.4932  -43.0951 H         1 UNK         0.0600 
    149 H149       -0.3740  -20.3377  -43.2120 H         1 UNK         0.3000 
    150 H150       -3.4068  -19.5814  -45.0100 H         1 UNK         0.0600 
    151 H151       -3.9727  -19.8964  -42.5941 H         1 UNK         0.0600 
    152 H152       -3.7200  -18.2027  -42.9865 H         1 UNK         0.0600 
    153 H153       -2.4703  -19.1053  -42.1326 H         1 UNK         0.0600 
    154 H154       -1.4183  -17.8396  -44.0133 H         1 UNK         0.3000 
    155 H155        0.6686  -17.7995  -46.9542 H         1 UNK         0.0600 
    156 H156       -1.1369  -15.7474  -45.5693 H         1 UNK         0.0600 
    157 H157       -1.2017  -16.1806  -47.2689 H         1 UNK         0.0600 
    158 H158        0.2275  -15.3854  -46.6254 H         1 UNK         0.0600 
    159 H159        1.0095  -16.4900  -44.4647 H         1 UNK         0.3000 
    160 H160        2.7742  -19.0922  -42.7504 H         1 UNK         0.0600 
    161 H161        3.6268  -16.3971  -43.9363 H         1 UNK         0.0600 
    162 H162        4.4789  -17.9237  -44.0783 H         1 UNK         0.0600 
    163 H163        4.3410  -17.1469  -42.5082 H         1 UNK         0.0600 
    164 H164        1.8301  -16.4165  -42.1299 H         1 UNK         0.3000 
    165 H165       -1.1975  -17.4779  -40.5642 H         1 UNK         0.0600 
    166 H166       -0.1961  -16.3391  -38.6037 H         1 UNK         0.0600 
    167 H167        0.5423  -17.9169  -38.8260 H         1 UNK         0.0600 
    168 H168        1.4141  -16.4680  -39.3126 H         1 UNK         0.0600 
    169 H169        0.1126  -14.9373  -40.7619 H         1 UNK         0.3000 
    170 H170       -1.1225  -13.9898  -43.9437 H         1 UNK         0.0600 
    171 H171       -3.1184  -13.6009  -42.4861 H         1 UNK         0.0600 
    172 H172       -2.0707  -13.0383  -41.1886 H         1 UNK         0.0600 
    173 H173       -2.1798  -12.1313  -42.6974 H         1 UNK         0.0600 
    174 H174        0.2122  -12.3873  -42.1079 H         1 UNK         0.3000 
    175 H175        2.5021  -12.5217  -41.5145 H         1 UNK         0.0600 
    176 H176        4.2458  -13.9241  -43.6058 H         1 UNK         0.0600 
    177 H177        4.8227  -12.9834  -42.2345 H         1 UNK         0.0600 
    178 H178        3.9593  -14.4897  -41.9646 H         1 UNK         0.0600 
    179 H179        3.5275  -11.6543  -44.0741 H         1 UNK         0.3000 
    180 H180        1.4214   -8.7696  -44.3366 H         1 UNK         0.0600 
    181 H181        4.4061   -9.1504  -43.7522 H         1 UNK         0.0600 
    182 H182        3.2928   -8.1533  -42.8225 H         1 UNK         0.0600 
    183 H183        3.6691   -7.7268  -44.4850 H         1 UNK         0.0600 
    184 H184        3.5008  -10.4123  -45.7266 H         1 UNK         0.3000 
    185 H185        1.3761  -11.0650  -48.4546 H         1 UNK         0.0600 
    186 H186        3.0850   -9.9716  -49.8845 H         1 UNK         0.0600 
    187 H187        2.0713   -8.7592  -49.1187 H         1 UNK         0.0600 
    188 H188        3.6929   -9.0562  -48.5039 H         1 UNK         0.0600 
    189 H189        4.1976  -11.4238  -48.0547 H         1 UNK         0.3000 
    190 H190       -1.2979  -21.1230  -47.2702 H         1 UNK         0.3000 
    191 H191       -2.5306  -22.2848  -49.4988 H         1 UNK         0.0600 
    192 H192       -3.7962  -21.0904  -46.9707 H         1 UNK         0.0600 
    193 H193       -4.6358  -21.3819  -48.4880 H         1 UNK         0.0600 
    194 H194       -3.3349  -20.2060  -48.4243 H         1 UNK         0.0600 
    195 H195       -2.6604  -23.3216  -46.0656 H         1 UNK         0.3000 
    196 H196       -4.4297  -25.5126  -46.4171 H         1 UNK         0.0600 
    197 H197       -3.5381  -26.2492  -44.2041 H         1 UNK         0.0600 
    198 H198       -3.9193  -24.5336  -44.2029 H         1 UNK         0.0600 
    199 H199       -2.2436  -25.0633  -44.3165 H         1 UNK         0.0600 
    200 H200       -0.8360  -25.3616  -46.5306 H         1 UNK         0.3000 
    201 H201       -0.3997  -28.1309  -47.0295 H         1 UNK         0.0600 
    202 H202        1.3632  -26.6127  -46.1788 H         1 UNK         0.0600 
    203 H203        1.3458  -25.6983  -47.6844 H         1 UNK         0.0600 
    204 H204        1.8890  -27.3717  -47.6743 H         1 UNK         0.0600 
    205 H205       -0.8393  -25.3618  -49.2496 H         1 UNK         0.3000 
    206 H206       -0.4774  -26.8418  -51.6856 H         1 UNK         0.0600 
    207 H207       -0.1223  -24.3818  -51.4945 H         1 UNK         0.0600 
    208 H208       -1.3333  -24.7377  -52.7165 H         1 UNK         0.0600 
    209 H209       -1.8323  -24.1469  -51.1356 H         1 UNK         0.0600 
    210 H210       -3.0952  -26.7271  -49.5003 H         1 UNK         0.3000 
    211 H211       -5.1726  -27.4405  -49.4103 H         1 UNK         0.0600 
    212 H212       -4.7235  -28.9323  -52.0487 H         1 UNK         0.0600 
    213 H213       -5.9956  -29.2315  -50.8749 H         1 UNK         0.0600 
    214 H214       -4.3231  -29.5552  -50.4481 H         1 UNK         0.0600 
    215 H215       -4.7567  -24.9208  -50.2192 H         1 UNK         0.3000 
    216 H216       -5.6429  -23.0873  -51.0000 H         1 UNK         0.0600 
    217 H217       -8.1455  -22.9606  -51.1637 H         1 UNK         0.0600 
    218 H218       -7.6219  -23.8460  -49.7458 H         1 UNK         0.0600 
    219 H219       -8.2402  -24.7199  -51.1403 H         1 UNK         0.0600 
    220 H220       -8.1060  -23.9654  -53.1014 H         1 UNK         0.3000 
    221 H221       -8.4888  -23.6984  -55.2646 H         1 UNK         0.0600 
    222 H222       -5.7590  -25.0558  -55.6551 H         1 UNK         0.0600 
    223 H223       -7.3071  -25.8634  -55.4653 H         1 UNK         0.0600 
    224 H224       -7.0097  -24.8802  -56.8860 H         1 UNK         0.0600 
    225 H225       -5.4281  -23.2720  -56.6579 H         1 UNK         0.3000 
    226 H226       -5.8548  -20.5017  -57.2898 H         1 UNK         0.0600 
    227 H227       -4.6968  -22.0753  -58.8253 H         1 UNK         0.0600 
    228 H228       -3.6379  -20.7356  -58.4165 H         1 UNK         0.0600 
    229 H229       -3.3983  -22.3022  -57.6524 H         1 UNK         0.0600 
    230 H230       -4.3622  -22.0646  -54.5671 H         1 UNK         0.3000 
    231 H231       -2.9724  -19.5631  -53.6953 H         1 UNK         0.0600 
    232 H232       -1.5095  -21.0850  -52.4060 H         1 UNK         0.0600 
    233 H233       -1.4621  -21.5277  -54.1021 H         1 UNK         0.0600 
    234 H234       -2.4147  -22.4844  -52.9687 H         1 UNK         0.0600 
    235 H235       -5.8381  -20.0438  -53.4885 H         1 UNK         0.3000 
    236 H236       -6.7083  -21.0152  -51.0521 H         1 UNK         0.0600 
    237 H237       -7.9013  -18.9218  -52.9022 H         1 UNK         0.0600 
    238 H238       -8.3173  -20.6220  -52.7397 H         1 UNK         0.0600 
    239 H239       -8.7298  -19.4981  -51.4599 H         1 UNK         0.0600 
    240 H240       -5.6670  -17.2760  -49.7290 H         1 UNK         0.3000 
    241 H241       -5.7282  -17.6774  -52.6603 H         1 UNK         0.0600 
    242 H242       -8.9713  -15.7228  -51.3740 H         1 UNK         0.3800 
    243 H243       -8.0488  -16.7628  -50.3232 H         1 UNK         0.3800 
    244 H244       -4.6395  -15.3928  -52.6455 H         1 UNK         0.0800 
    245 H245       -4.5774  -15.4564  -50.9076 H         1 UNK         0.0800 
    246 H246       -3.1141  -17.9757  -49.7685 H         1 UNK         0.0800 
    247 H247       -2.6727  -16.2828  -49.6741 H         1 UNK         0.0800 
@<TRIPOS>BOND
     1    1    2 1    
     2    1  127 1    
     3    1  128 1    
     4    1  129 1    
     5    2    3 2    
     6    2    4 am   BACKBONE|DICT|INTERRES
     7    4    5 1    
     8    4  130 1    
     9    5    6 1    
    10    5   65 1    
    11    5  131 1    
    12    6    7 1    
    13    6  132 1    
    14    6  133 1    
    15    7    8 1    
    16    8    9 1    
    17    8  134 1    
    18    8  135 1    
    19    9   10 ar   
    20    9   14 ar   
    21   10   11 ar   
    22   10  136 1    
    23   11   12 ar   
    24   11  126 1    
    25   12   13 ar   
    26   12  137 1    
    27   13   14 ar   
    28   13   15 1    
    29   14  138 1    
    30   15   16 1    
    31   15  139 1    
    32   15  140 1    
    33   16   17 1    
    34   17   18 1    
    35   17  141 1    
    36   17  142 1    
    37   18   19 1    
    38   18   67 1    
    39   18  143 1    
    40   19   20 am   BACKBONE|DICT|INTERRES
    41   19  144 1    
    42   20   21 2    
    43   20   22 1    
    44   22   23 1    
    45   22   24 1    
    46   22  145 1    
    47   23  146 1    
    48   23  147 1    
    49   23  148 1    
    50   24   25 am   BACKBONE|DICT|INTERRES
    51   24  149 1    
    52   25   26 2    
    53   25   27 1    
    54   27   28 1    
    55   27   29 1    
    56   27  150 1    
    57   28  151 1    
    58   28  152 1    
    59   28  153 1    
    60   29   30 am   BACKBONE|DICT|INTERRES
    61   29  154 1    
    62   30   31 2    
    63   30   32 1    
    64   32   33 1    
    65   32   34 1    
    66   32  155 1    
    67   33  156 1    
    68   33  157 1    
    69   33  158 1    
    70   34   35 am   BACKBONE|DICT|INTERRES
    71   34  159 1    
    72   35   36 2    
    73   35   37 1    
    74   37   38 1    
    75   37   39 1    
    76   37  160 1    
    77   38  161 1    
    78   38  162 1    
    79   38  163 1    
    80   39   40 am   BACKBONE|DICT|INTERRES
    81   39  164 1    
    82   40   41 2    
    83   40   42 1    
    84   42   43 1    
    85   42   44 1    
    86   42  165 1    
    87   43  166 1    
    88   43  167 1    
    89   43  168 1    
    90   44   45 am   BACKBONE|DICT|INTERRES
    91   44  169 1    
    92   45   46 2    
    93   45   47 1    
    94   47   48 1    
    95   47   49 1    
    96   47  170 1    
    97   48  171 1    
    98   48  172 1    
    99   48  173 1    
   100   49   50 am   BACKBONE|DICT|INTERRES
   101   49  174 1    
   102   50   51 2    
   103   50   52 1    
   104   52   53 1    
   105   52   54 1    
   106   52  175 1    
   107   53  176 1    
   108   53  177 1    
   109   53  178 1    
   110   54   55 am   BACKBONE|DICT|INTERRES
   111   54  179 1    
   112   55   56 2    
   113   55   57 1    
   114   57   58 1    
   115   57   59 1    
   116   57  180 1    
   117   58  181 1    
   118   58  182 1    
   119   58  183 1    
   120   59   60 am   BACKBONE|DICT|INTERRES
   121   59  184 1    
   122   60   61 2    
   123   60   62 1    
   124   62   63 1    
   125   62   64 1    
   126   62  185 1    
   127   63  186 1    
   128   63  187 1    
   129   63  188 1    
   130   64   65 am   BACKBONE|DICT|INTERRES
   131   64  189 1    
   132   65   66 2    
   133   67   68 2    
   134   67   69 am   BACKBONE|DICT|INTERRES
   135   69   70 1    
   136   69  190 1    
   137   70   71 1    
   138   70   72 1    
   139   70  191 1    
   140   71  192 1    
   141   71  193 1    
   142   71  194 1    
   143   72   73 2    
   144   72   74 am   BACKBONE|DICT|INTERRES
   145   74   75 1    
   146   74  195 1    
   147   75   76 1    
   148   75   77 1    
   149   75  196 1    
   150   76  197 1    
   151   76  198 1    
   152   76  199 1    
   153   77   78 2    
   154   77   79 am   BACKBONE|DICT|INTERRES
   155   79   80 1    
   156   79  200 1    
   157   80   81 1    
   158   80   82 1    
   159   80  201 1    
   160   81  202 1    
   161   81  203 1    
   162   81  204 1    
   163   82   83 2    
   164   82   84 am   BACKBONE|DICT|INTERRES
   165   84   85 1    
   166   84  205 1    
   167   85   86 1    
   168   85   87 1    
   169   85  206 1    
   170   86  207 1    
   171   86  208 1    
   172   86  209 1    
   173   87   88 2    
   174   87   89 am   BACKBONE|DICT|INTERRES
   175   89   90 1    
   176   89  210 1    
   177   90   91 1    
   178   90   92 1    
   179   90  211 1    
   180   91  212 1    
   181   91  213 1    
   182   91  214 1    
   183   92   93 2    
   184   92   94 am   BACKBONE|DICT|INTERRES
   185   94   95 1    
   186   94  215 1    
   187   95   96 1    
   188   95   97 1    
   189   95  216 1    
   190   96  217 1    
   191   96  218 1    
   192   96  219 1    
   193   97   98 2    
   194   97   99 am   BACKBONE|DICT|INTERRES
   195   99  100 1    
   196   99  220 1    
   197  100  101 1    
   198  100  102 1    
   199  100  221 1    
   200  101  222 1    
   201  101  223 1    
   202  101  224 1    
   203  102  103 2    
   204  102  104 am   BACKBONE|DICT|INTERRES
   205  104  105 1    
   206  104  225 1    
   207  105  106 1    
   208  105  107 1    
   209  105  226 1    
   210  106  227 1    
   211  106  228 1    
   212  106  229 1    
   213  107  108 2    
   214  107  109 am   BACKBONE|DICT|INTERRES
   215  109  110 1    
   216  109  230 1    
   217  110  111 1    
   218  110  112 1    
   219  110  231 1    
   220  111  232 1    
   221  111  233 1    
   222  111  234 1    
   223  112  113 2    
   224  112  114 am   BACKBONE|DICT|INTERRES
   225  114  115 1    
   226  114  235 1    
   227  115  116 1    
   228  115  117 1    
   229  115  236 1    
   230  116  237 1    
   231  116  238 1    
   232  116  239 1    
   233  117  118 2    
   234  117  119 am   BACKBONE|DICT|INTERRES
   235  119  120 1    
   236  119  240 1    
   237  120  121 1    
   238  120  124 1    
   239  120  241 1    
   240  121  122 am   BACKBONE|DICT|INTERRES
   241  121  123 2    
   242  122  242 1    
   243  122  243 1    
   244  124  125 1    
   245  124  244 1    
   246  124  245 1    
   247  125  126 1    
   248  126  246 1    
   249  126  247 1    
@<TRIPOS>SUBSTRUCTURE
     1 UNK         1 GROUP             0       ****    0 ROOT    
