@<TRIPOS>MOLECULE
3R540
247   249    1
SMALL
USER_CHARGES


@<TRIPOS>ATOM
      1 CA         -2.7563  -11.8767  -50.2959 C.3       0 UNK        -0.1800 
      2 C          -1.9552  -12.4641  -49.1428 C.2       0 UNK         0.5000 
      3 O          -1.6131  -11.7452  -48.2044 O.2       0 UNK        -0.5000 
      4 N          -1.6670  -13.7701  -49.2027 N.am      1 UNK        -0.5000 
      5 CA         -0.8757  -14.5072  -48.2044 C.3       1 UNK         0.1400 
      6 C6         -0.1332  -15.7221  -48.8210 C.3       23 UNK        -0.0398 
      7 S7          0.9503  -15.2309  -50.2066 S.3       23 UNK        -0.2404 
      8 C8          0.3399  -16.2806  -51.5615 C.3       23 UNK        -0.0205 
      9 C9          1.1808  -17.5394  -51.7038 C.ar      23 UNK        -0.0193 
     10 C10         2.2150  -17.5777  -52.6437 C.ar      23 UNK        -0.1150 
     11 C11         2.9779  -18.7357  -52.8127 C.ar      23 UNK        -0.0193 
     12 C12         2.7306  -19.8446  -52.0014 C.ar      23 UNK        -0.1150 
     13 C13         1.7122  -19.8151  -51.0469 C.ar      23 UNK        -0.0193 
     14 C14         0.9262  -18.6651  -50.9130 C.ar      23 UNK        -0.1150 
     15 C15         1.4642  -21.0414  -50.1844 C.3       23 UNK        -0.0205 
     16 S16         2.3592  -20.9613  -48.5992 S.3       23 UNK        -0.2404 
     17 C17         1.3754  -19.7764  -47.6120 C.3       23 UNK        -0.0398 
     18 CA         -0.0813  -20.2392  -47.3768 C.3       11 UNK         0.1400 
     19 N          -0.1725  -21.5880  -46.8194 N.am      11 UNK        -0.5000 
     20 C          -1.2767  -22.3431  -46.8486 C.2       10 UNK         0.5000 
     21 O          -2.3381  -21.9793  -47.3528 O.2       10 UNK        -0.5000 
     22 CA         -1.1820  -23.7234  -46.1776 C.3       10 UNK         0.1400 
     23 CB         -0.5737  -24.7485  -47.1460 C.3       10 UNK        -0.1800 
     24 N          -0.3984  -23.6892  -44.9408 N.am      10 UNK        -0.5000 
     25 C          -0.7796  -23.0393  -43.8321 C.2       9 UNK         0.5000 
     26 O          -1.8403  -22.4260  -43.7305 O.2       9 UNK        -0.5000 
     27 CA          0.2062  -23.0376  -42.6518 C.3       9 UNK         0.1400 
     28 CB          0.0535  -24.3188  -41.8185 C.3       9 UNK        -0.1800 
     29 N           1.6086  -22.8763  -43.0442 N.am      9 UNK        -0.5000 
     30 C           2.1070  -21.8215  -43.7020 C.2       8 UNK         0.5000 
     31 O           1.4206  -20.9103  -44.1710 O.2       8 UNK        -0.5000 
     32 CA          3.6342  -21.7753  -43.8659 C.3       8 UNK         0.1400 
     33 CB          4.0376  -21.9841  -45.3317 C.3       8 UNK        -0.1800 
     34 N           4.1510  -20.4906  -43.4053 N.am      8 UNK        -0.5000 
     35 C           4.2084  -20.0981  -42.1284 C.2       7 UNK         0.5000 
     36 O           3.9219  -20.8296  -41.1795 O.2       7 UNK        -0.5000 
     37 CA          4.6516  -18.6487  -41.8548 C.3       7 UNK         0.1400 
     38 CB          6.1805  -18.4976  -41.9681 C.3       7 UNK        -0.1800 
     39 N           3.9502  -17.6300  -42.6466 N.am      7 UNK        -0.5000 
     40 C           3.9994  -17.3885  -43.9669 C.2       6 UNK         0.5000 
     41 O           4.6419  -18.0725  -44.7648 O.2       6 UNK        -0.5000 
     42 CA          3.2002  -16.1786  -44.4978 C.3       6 UNK         0.1400 
     43 CB          1.9576  -16.6482  -45.2658 C.3       6 UNK        -0.1800 
     44 N           2.7878  -15.2415  -43.4497 N.am      6 UNK        -0.5000 
     45 C           3.6255  -14.4341  -42.7794 C.2       5 UNK         0.5000 
     46 O           4.8209  -14.3218  -43.0531 O.2       5 UNK        -0.5000 
     47 CA          3.0542  -13.6381  -41.5858 C.3       5 UNK         0.1400 
     48 CB          2.8127  -12.1743  -41.9854 C.3       5 UNK        -0.1800 
     49 N           1.8115  -14.1823  -41.0340 N.am      5 UNK        -0.5000 
     50 C           1.6398  -15.4070  -40.5154 C.2       4 UNK         0.5000 
     51 O           2.5505  -16.2245  -40.3797 O.2       4 UNK        -0.5000 
     52 CA          0.1974  -15.8061  -40.1381 C.3       4 UNK         0.1400 
     53 CB         -0.0101  -15.6949  -38.6204 C.3       4 UNK        -0.1800 
     54 N          -0.8450  -15.0282  -40.8219 N.am      4 UNK        -0.5000 
     55 C          -1.0230  -14.9754  -42.1489 C.2       3 UNK         0.5000 
     56 O          -0.2956  -15.5569  -42.9570 O.2       3 UNK        -0.5000 
     57 CA         -2.1581  -14.0737  -42.6494 C.3       3 UNK         0.1400 
     58 CB         -1.6935  -12.6083  -42.7258 C.3       3 UNK        -0.1800 
     59 N          -2.5753  -14.5285  -43.9687 N.am      3 UNK        -0.5000 
     60 C          -3.7656  -14.3253  -44.5375 C.2       2 UNK         0.5000 
     61 O          -4.6596  -13.6648  -44.0040 O.2       2 UNK        -0.5000 
     62 CA         -3.9959  -14.9611  -45.9308 C.3       2 UNK         0.1400 
     63 CB         -5.3932  -14.6427  -46.4946 C.3       2 UNK        -0.1800 
     64 N          -3.0038  -14.5837  -46.9406 N.am      2 UNK        -0.5000 
     65 C          -1.7137  -14.9461  -46.9830 C.2       1 UNK         0.5000 
     66 O          -1.1761  -15.6176  -46.1066 O.2       1 UNK        -0.5000 
     67 C          -0.8866  -19.2401  -46.5334 C.2       11 UNK         0.5000 
     68 O          -1.6779  -18.4866  -47.1030 O.2       11 UNK        -0.5000 
     69 N          -0.7333  -19.3283  -45.2029 N.am      12 UNK        -0.5000 
     70 CA         -1.4953  -18.5744  -44.2056 C.3       12 UNK         0.1400 
     71 CB         -0.9463  -18.8821  -42.8047 C.3       12 UNK        -0.1800 
     72 C          -3.0115  -18.8374  -44.2732 C.2       12 UNK         0.5000 
     73 O          -3.7978  -17.9184  -44.0485 O.2       12 UNK        -0.5000 
     74 N          -3.4001  -20.0616  -44.6541 N.am      13 UNK        -0.5000 
     75 CA         -4.7697  -20.4726  -44.9680 C.3       13 UNK         0.1400 
     76 CB         -4.9062  -21.9869  -44.7282 C.3       13 UNK        -0.1800 
     77 C          -5.2015  -20.0652  -46.3959 C.2       13 UNK         0.5000 
     78 O          -5.8796  -20.8382  -47.0735 O.2       13 UNK        -0.5000 
     79 N          -4.8103  -18.8576  -46.8270 N.am      14 UNK        -0.5000 
     80 CA         -5.1613  -18.1970  -48.0873 C.3       14 UNK         0.1400 
     81 CB         -6.6531  -17.8009  -48.0767 C.3       14 UNK        -0.1800 
     82 C          -4.7745  -19.0145  -49.3359 C.2       14 UNK         0.5000 
     83 O          -5.6066  -19.2092  -50.2232 O.2       14 UNK        -0.5000 
     84 N          -3.5220  -19.4936  -49.3694 N.am      15 UNK        -0.5000 
     85 CA         -2.9401  -20.3233  -50.4352 C.3       15 UNK         0.1400 
     86 CB         -2.7307  -19.4945  -51.7194 C.3       15 UNK        -0.1800 
     87 C          -3.7420  -21.6202  -50.6764 C.2       15 UNK         0.5000 
     88 O          -4.1265  -21.9168  -51.8116 O.2       15 UNK        -0.5000 
     89 N          -3.9772  -22.3451  -49.5746 N.am      16 UNK        -0.5000 
     90 CA         -4.7666  -23.5690  -49.4423 C.3       16 UNK         0.1400 
     91 CB         -4.0885  -24.7415  -50.1792 C.3       16 UNK        -0.1800 
     92 C          -6.2409  -23.3563  -49.8358 C.2       16 UNK         0.5000 
     93 O          -6.7728  -24.0898  -50.6681 O.2       16 UNK        -0.5000 
     94 N          -6.8670  -22.3395  -49.2263 N.am      17 UNK        -0.5000 
     95 CA         -8.2575  -21.9128  -49.4099 C.3       17 UNK         0.1400 
     96 CB         -9.2284  -22.9676  -48.8396 C.3       17 UNK        -0.1800 
     97 C          -8.5699  -21.5209  -50.8684 C.2       17 UNK         0.5000 
     98 O          -9.5600  -21.9810  -51.4406 O.2       17 UNK        -0.5000 
     99 N          -7.6965  -20.6797  -51.4393 N.am      18 UNK        -0.5000 
    100 CA        -7.7299  -20.1475  -52.8038 C.3       18 UNK         0.1400 
    101 CB        -8.9744  -19.2618  -53.0238 C.3       18 UNK        -0.1800 
    102 C         -7.5470  -21.2161  -53.9031 C.2       18 UNK         0.5000 
    103 O         -7.9617  -20.9953  -55.0424 O.2       18 UNK        -0.5000 
    104 N         -6.8911  -22.3372  -53.5679 N.am      19 UNK        -0.5000 
    105 CA        -6.5021  -23.3834  -54.5198 C.3       19 UNK         0.1400 
    106 CB        -6.2678  -24.6993  -53.7656 C.3       19 UNK        -0.1800 
    107 C         -5.2563  -23.0085  -55.3485 C.2       19 UNK         0.5000 
    108 O         -4.9527  -23.7045  -56.3181 O.2       19 UNK        -0.5000 
    109 N         -4.5710  -21.9242  -54.9543 N.am      20 UNK        -0.5000 
    110 CA        -3.3604  -21.3600  -55.5512 C.3       20 UNK         0.1400 
    111 CB        -3.5838  -20.9464  -57.0214 C.3       20 UNK        -0.1800 
    112 C         -2.1501  -22.2871  -55.3476 C.2       20 UNK         0.5000 
    113 O         -1.5020  -22.7011  -56.3115 O.2       20 UNK        -0.5000 
    114 N         -1.8532  -22.5652  -54.0694 N.am      21 UNK        -0.5000 
    115 CA        -0.7261  -23.3770  -53.5874 C.3       21 UNK         0.1400 
    116 CB        -0.7863  -23.4276  -52.0533 C.3       21 UNK        -0.1800 
    117 C          0.6770  -22.9258  -54.0597 C.2       21 UNK         0.5000 
    118 O          1.6197  -23.7143  -53.9822 O.2       21 UNK        -0.5000 
    119 N          0.7872  -21.6883  -54.5601 N.am      22 UNK        -0.5000 
    120 CA         1.9483  -21.1620  -55.2954 C.3       22 UNK         0.1400 
    121 C          2.2412  -21.8905  -56.6435 C.2       22 UNK         0.5000 
    122 N          1.2716  -22.5553  -57.2634 N.am      22 UNK        -0.7600 
    123 O          3.3682  -21.8621  -57.1298 O.2       22 UNK        -0.5000 
    124 C124        1.7972  -19.6319  -55.5114 C.3       23 UNK        -0.0398 
    125 S125        3.3737  -18.7065  -55.5912 S.3       23 UNK        -0.2404 
    126 C126        4.0466  -18.8090  -53.8937 C.3       23 UNK        -0.0205 
    127 H127       -2.9923  -12.6277  -51.0503 H         1 UNK         0.0600 
    128 H128       -2.1905  -11.0787  -50.7768 H         1 UNK         0.0600 
    129 H129       -3.6929  -11.4580  -49.9278 H         1 UNK         0.0600 
    130 H130       -1.9714  -14.3071  -50.0019 H         1 UNK         0.3000 
    131 H131       -0.1111  -13.8329  -47.8123 H         1 UNK         0.0600 
    132 H132        0.4984  -16.2057  -48.0738 H         1 UNK         0.0800 
    133 H133       -0.8467  -16.4819  -49.1433 H         1 UNK         0.0800 
    134 H134        0.3801  -15.7034  -52.4866 H         1 UNK         0.0800 
    135 H135       -0.7106  -16.5357  -51.4196 H         1 UNK         0.0800 
    136 H136        2.4097  -16.7165  -53.2675 H         1 UNK         0.1150 
    137 H137        3.3234  -20.7407  -52.1211 H         1 UNK         0.1150 
    138 H138        0.1254  -18.6392  -50.1886 H         1 UNK         0.1150 
    139 H139        0.3997  -21.1923  -50.0258 H         1 UNK         0.0800 
    140 H140        1.8021  -21.9329  -50.7153 H         1 UNK         0.0800 
    141 H141        1.4006  -18.8028  -48.1031 H         1 UNK         0.0800 
    142 H142        1.8859  -19.6444  -46.6567 H         1 UNK         0.0800 
    143 H143       -0.5775  -20.2539  -48.3440 H         1 UNK         0.0600 
    144 H144        0.6488  -21.9370  -46.3480 H         1 UNK         0.3000 
    145 H145       -2.1964  -24.0445  -45.9318 H         1 UNK         0.0600 
    146 H146        0.4531  -24.4940  -47.4123 H         1 UNK         0.0600 
    147 H147       -0.5704  -25.7480  -46.7110 H         1 UNK         0.0600 
    148 H148       -1.1490  -24.7998  -48.0714 H         1 UNK         0.0600 
    149 H149        0.4910  -24.1665  -44.9422 H         1 UNK         0.3000 
    150 H150       -0.0518  -22.1890  -42.0151 H         1 UNK         0.0600 
    151 H151       -0.9801  -24.4549  -41.4970 H         1 UNK         0.0600 
    152 H152        0.6687  -24.2804  -40.9193 H         1 UNK         0.0600 
    153 H153        0.3406  -25.2056  -42.3850 H         1 UNK         0.0600 
    154 H154        2.2481  -23.5778  -42.6997 H         1 UNK         0.3000 
    155 H155        4.0864  -22.5691  -43.2676 H         1 UNK         0.0600 
    156 H156        3.6110  -22.9040  -45.7335 H         1 UNK         0.0600 
    157 H157        5.1205  -22.0545  -45.4341 H         1 UNK         0.0600 
    158 H158        3.6996  -21.1597  -45.9588 H         1 UNK         0.0600 
    159 H159        4.3643  -19.7943  -44.1147 H         1 UNK         0.3000 
    160 H160        4.3850  -18.4359  -40.8182 H         1 UNK         0.0600 
    161 H161        6.4963  -17.4887  -41.7020 H         1 UNK         0.0600 
    162 H162        6.5399  -18.7066  -42.9759 H         1 UNK         0.0600 
    163 H163        6.6893  -19.1866  -41.2929 H         1 UNK         0.0600 
    164 H164        3.3675  -17.0154  -42.0879 H         1 UNK         0.3000 
    165 H165        3.8468  -15.6443  -45.1970 H         1 UNK         0.0600 
    166 H166        1.2727  -17.2043  -44.6251 H         1 UNK         0.0600 
    167 H167        1.4148  -15.8000  -45.6810 H         1 UNK         0.0600 
    168 H168        2.2330  -17.2947  -46.0985 H         1 UNK         0.0600 
    169 H169        1.8097  -15.2711  -43.1813 H         1 UNK         0.3000 
    170 H170        3.8045  -13.6606  -40.7930 H         1 UNK         0.0600 
    171 H171        2.0470  -12.0904  -42.7579 H         1 UNK         0.0600 
    172 H172        2.4947  -11.5780  -41.1300 H         1 UNK         0.0600 
    173 H173        3.7240  -11.7189  -42.3754 H         1 UNK         0.0600 
    174 H174        0.9972  -13.5914  -41.1071 H         1 UNK         0.3000 
    175 H175        0.0698  -16.8517  -40.4253 H         1 UNK         0.0600 
    176 H176        0.0774  -14.6633  -38.2771 H         1 UNK         0.0600 
    177 H177       -0.9928  -16.0653  -38.3277 H         1 UNK         0.0600 
    178 H178        0.7313  -16.2848  -38.0796 H         1 UNK         0.0600 
    179 H179       -1.4713  -14.5062  -40.2256 H         1 UNK         0.3000 
    180 H180       -2.9982  -14.1600  -41.9572 H         1 UNK         0.0600 
    181 H181       -0.8569  -12.4898  -43.4158 H         1 UNK         0.0600 
    182 H182       -1.3701  -12.2453  -41.7495 H         1 UNK         0.0600 
    183 H183       -2.4981  -11.9543  -43.0621 H         1 UNK         0.0600 
    184 H184       -1.8798  -15.0764  -44.4753 H         1 UNK         0.3000 
    185 H185       -3.9323  -16.0414  -45.8030 H         1 UNK         0.0600 
    186 H186       -5.5475  -15.1073  -47.4678 H         1 UNK         0.0600 
    187 H187       -6.1761  -15.0122  -45.8312 H         1 UNK         0.0600 
    188 H188       -5.5419  -13.5688  -46.6146 H         1 UNK         0.0600 
    189 H189       -3.3371  -13.9919  -47.6866 H         1 UNK         0.3000 
    190 H190       -0.0422  -19.9796  -44.8362 H         1 UNK         0.3000 
    191 H191       -1.3394  -17.5153  -44.4056 H         1 UNK         0.0600 
    192 H192       -1.0490  -19.9384  -42.5558 H         1 UNK         0.0600 
    193 H193        0.1094  -18.6197  -42.7300 H         1 UNK         0.0600 
    194 H194       -1.4774  -18.3089  -42.0440 H         1 UNK         0.0600 
    195 H195       -2.6891  -20.7741  -44.7698 H         1 UNK         0.3000 
    196 H196       -5.4507  -19.9689  -44.2794 H         1 UNK         0.0600 
    197 H197       -4.6283  -22.2507  -43.7077 H         1 UNK         0.0600 
    198 H198       -4.2724  -22.5585  -45.4065 H         1 UNK         0.0600 
    199 H199       -5.9339  -22.3200  -44.8776 H         1 UNK         0.0600 
    200 H200       -4.2203  -18.3233  -46.2029 H         1 UNK         0.3000 
    201 H201       -4.5705  -17.2813  -48.1294 H         1 UNK         0.0600 
    202 H202       -6.9018  -17.1899  -48.9452 H         1 UNK         0.0600 
    203 H203       -6.9031  -17.2207  -47.1889 H         1 UNK         0.0600 
    204 H204       -7.3041  -18.6757  -48.0951 H         1 UNK         0.0600 
    205 H205       -2.9270  -19.2970  -48.5713 H         1 UNK         0.3000 
    206 H206       -1.9579  -20.6383  -50.0881 H         1 UNK         0.0600 
    207 H207       -3.6780  -19.2030  -52.1743 H         1 UNK         0.0600 
    208 H208       -2.1688  -20.0603  -52.4625 H         1 UNK         0.0600 
    209 H209       -2.1667  -18.5855  -51.5132 H         1 UNK         0.0600 
    210 H210       -3.5657  -22.0147  -48.7033 H         1 UNK         0.3000 
    211 H211       -4.7706  -23.8131  -48.3788 H         1 UNK         0.0600 
    212 H212       -3.0798  -24.9087  -49.8024 H         1 UNK         0.0600 
    213 H213       -4.6452  -25.6683  -50.0364 H         1 UNK         0.0600 
    214 H214       -4.0188  -24.5632  -51.2511 H         1 UNK         0.0600 
    215 H215       -6.3461  -21.7938  -48.5406 H         1 UNK         0.3000 
    216 H216       -8.3762  -21.0042  -48.8178 H         1 UNK         0.0600 
    217 H217      -10.2575  -22.6081  -48.8717 H         1 UNK         0.0600 
    218 H218       -9.1905  -23.9011  -49.4019 H         1 UNK         0.0600 
    219 H219       -8.9964  -23.1931  -47.7988 H         1 UNK         0.0600 
    220 H220       -6.9146  -20.3417  -50.8799 H         1 UNK         0.3000 
    221 H221       -6.8562  -19.4987  -52.8809 H         1 UNK         0.0600 
    222 H222       -9.8933  -19.8484  -53.0388 H         1 UNK         0.0600 
    223 H223       -9.0671  -18.5109  -52.2391 H         1 UNK         0.0600 
    224 H224       -8.9131  -18.7290  -53.9734 H         1 UNK         0.0600 
    225 H225       -6.5822  -22.4572  -52.6115 H         1 UNK         0.3000 
    226 H226       -7.3238  -23.5417  -55.2212 H         1 UNK         0.0600 
    227 H227       -7.1586  -25.0029  -53.2156 H         1 UNK         0.0600 
    228 H228       -6.0206  -25.5088  -54.4533 H         1 UNK         0.0600 
    229 H229       -5.4459  -24.6094  -53.0564 H         1 UNK         0.0600 
    230 H230       -4.8780  -21.4883  -54.0950 H         1 UNK         0.3000 
    231 H231       -3.1455  -20.4475  -54.9929 H         1 UNK         0.0600 
    232 H232       -2.7164  -20.4098  -57.4076 H         1 UNK         0.0600 
    233 H233       -4.4446  -20.2847  -57.1179 H         1 UNK         0.0600 
    234 H234       -3.7466  -21.8058  -57.6721 H         1 UNK         0.0600 
    235 H235       -2.4923  -22.2332  -53.3580 H         1 UNK         0.3000 
    236 H236       -0.8727  -24.3896  -53.9679 H         1 UNK         0.0600 
    237 H237       -1.7013  -23.9102  -51.7133 H         1 UNK         0.0600 
    238 H238        0.0495  -23.9931  -51.6390 H         1 UNK         0.0600 
    239 H239       -0.7560  -22.4275  -51.6240 H         1 UNK         0.0600 
    240 H240       -0.0430  -21.1175  -54.5765 H         1 UNK         0.3000 
    241 H241        2.8145  -21.3381  -54.6560 H         1 UNK         0.0600 
    242 H242        1.4737  -23.0271  -58.1304 H         1 UNK         0.3800 
    243 H243        0.3298  -22.5946  -56.8824 H         1 UNK         0.3800 
    244 H244        1.2350  -19.4253  -56.4240 H         1 UNK         0.0800 
    245 H245        1.1933  -19.1900  -54.7190 H         1 UNK         0.0800 
    246 H246        4.7604  -17.9974  -53.7471 H         1 UNK         0.0800 
    247 H247        4.6187  -19.7336  -53.8041 H         1 UNK         0.0800 
@<TRIPOS>BOND
     1    1    2 1    
     2    1  127 1    
     3    1  128 1    
     4    1  129 1    
     5    2    3 2    
     6    2    4 am   BACKBONE|DICT|INTERRES
     7    4    5 1    
     8    4  130 1    
     9    5    6 1    
    10    5   65 1    
    11    5  131 1    
    12    6    7 1    
    13    6  132 1    
    14    6  133 1    
    15    7    8 1    
    16    8    9 1    
    17    8  134 1    
    18    8  135 1    
    19    9   10 ar   
    20    9   14 ar   
    21   10   11 ar   
    22   10  136 1    
    23   11   12 ar   
    24   11  126 1    
    25   12   13 ar   
    26   12  137 1    
    27   13   14 ar   
    28   13   15 1    
    29   14  138 1    
    30   15   16 1    
    31   15  139 1    
    32   15  140 1    
    33   16   17 1    
    34   17   18 1    
    35   17  141 1    
    36   17  142 1    
    37   18   19 1    
    38   18   67 1    
    39   18  143 1    
    40   19   20 am   BACKBONE|DICT|INTERRES
    41   19  144 1    
    42   20   21 2    
    43   20   22 1    
    44   22   23 1    
    45   22   24 1    
    46   22  145 1    
    47   23  146 1    
    48   23  147 1    
    49   23  148 1    
    50   24   25 am   BACKBONE|DICT|INTERRES
    51   24  149 1    
    52   25   26 2    
    53   25   27 1    
    54   27   28 1    
    55   27   29 1    
    56   27  150 1    
    57   28  151 1    
    58   28  152 1    
    59   28  153 1    
    60   29   30 am   BACKBONE|DICT|INTERRES
    61   29  154 1    
    62   30   31 2    
    63   30   32 1    
    64   32   33 1    
    65   32   34 1    
    66   32  155 1    
    67   33  156 1    
    68   33  157 1    
    69   33  158 1    
    70   34   35 am   BACKBONE|DICT|INTERRES
    71   34  159 1    
    72   35   36 2    
    73   35   37 1    
    74   37   38 1    
    75   37   39 1    
    76   37  160 1    
    77   38  161 1    
    78   38  162 1    
    79   38  163 1    
    80   39   40 am   BACKBONE|DICT|INTERRES
    81   39  164 1    
    82   40   41 2    
    83   40   42 1    
    84   42   43 1    
    85   42   44 1    
    86   42  165 1    
    87   43  166 1    
    88   43  167 1    
    89   43  168 1    
    90   44   45 am   BACKBONE|DICT|INTERRES
    91   44  169 1    
    92   45   46 2    
    93   45   47 1    
    94   47   48 1    
    95   47   49 1    
    96   47  170 1    
    97   48  171 1    
    98   48  172 1    
    99   48  173 1    
   100   49   50 am   BACKBONE|DICT|INTERRES
   101   49  174 1    
   102   50   51 2    
   103   50   52 1    
   104   52   53 1    
   105   52   54 1    
   106   52  175 1    
   107   53  176 1    
   108   53  177 1    
   109   53  178 1    
   110   54   55 am   BACKBONE|DICT|INTERRES
   111   54  179 1    
   112   55   56 2    
   113   55   57 1    
   114   57   58 1    
   115   57   59 1    
   116   57  180 1    
   117   58  181 1    
   118   58  182 1    
   119   58  183 1    
   120   59   60 am   BACKBONE|DICT|INTERRES
   121   59  184 1    
   122   60   61 2    
   123   60   62 1    
   124   62   63 1    
   125   62   64 1    
   126   62  185 1    
   127   63  186 1    
   128   63  187 1    
   129   63  188 1    
   130   64   65 am   BACKBONE|DICT|INTERRES
   131   64  189 1    
   132   65   66 2    
   133   67   68 2    
   134   67   69 am   BACKBONE|DICT|INTERRES
   135   69   70 1    
   136   69  190 1    
   137   70   71 1    
   138   70   72 1    
   139   70  191 1    
   140   71  192 1    
   141   71  193 1    
   142   71  194 1    
   143   72   73 2    
   144   72   74 am   BACKBONE|DICT|INTERRES
   145   74   75 1    
   146   74  195 1    
   147   75   76 1    
   148   75   77 1    
   149   75  196 1    
   150   76  197 1    
   151   76  198 1    
   152   76  199 1    
   153   77   78 2    
   154   77   79 am   BACKBONE|DICT|INTERRES
   155   79   80 1    
   156   79  200 1    
   157   80   81 1    
   158   80   82 1    
   159   80  201 1    
   160   81  202 1    
   161   81  203 1    
   162   81  204 1    
   163   82   83 2    
   164   82   84 am   BACKBONE|DICT|INTERRES
   165   84   85 1    
   166   84  205 1    
   167   85   86 1    
   168   85   87 1    
   169   85  206 1    
   170   86  207 1    
   171   86  208 1    
   172   86  209 1    
   173   87   88 2    
   174   87   89 am   BACKBONE|DICT|INTERRES
   175   89   90 1    
   176   89  210 1    
   177   90   91 1    
   178   90   92 1    
   179   90  211 1    
   180   91  212 1    
   181   91  213 1    
   182   91  214 1    
   183   92   93 2    
   184   92   94 am   BACKBONE|DICT|INTERRES
   185   94   95 1    
   186   94  215 1    
   187   95   96 1    
   188   95   97 1    
   189   95  216 1    
   190   96  217 1    
   191   96  218 1    
   192   96  219 1    
   193   97   98 2    
   194   97   99 am   BACKBONE|DICT|INTERRES
   195   99  100 1    
   196   99  220 1    
   197  100  101 1    
   198  100  102 1    
   199  100  221 1    
   200  101  222 1    
   201  101  223 1    
   202  101  224 1    
   203  102  103 2    
   204  102  104 am   BACKBONE|DICT|INTERRES
   205  104  105 1    
   206  104  225 1    
   207  105  106 1    
   208  105  107 1    
   209  105  226 1    
   210  106  227 1    
   211  106  228 1    
   212  106  229 1    
   213  107  108 2    
   214  107  109 am   BACKBONE|DICT|INTERRES
   215  109  110 1    
   216  109  230 1    
   217  110  111 1    
   218  110  112 1    
   219  110  231 1    
   220  111  232 1    
   221  111  233 1    
   222  111  234 1    
   223  112  113 2    
   224  112  114 am   BACKBONE|DICT|INTERRES
   225  114  115 1    
   226  114  235 1    
   227  115  116 1    
   228  115  117 1    
   229  115  236 1    
   230  116  237 1    
   231  116  238 1    
   232  116  239 1    
   233  117  118 2    
   234  117  119 am   BACKBONE|DICT|INTERRES
   235  119  120 1    
   236  119  240 1    
   237  120  121 1    
   238  120  124 1    
   239  120  241 1    
   240  121  122 am   BACKBONE|DICT|INTERRES
   241  121  123 2    
   242  122  242 1    
   243  122  243 1    
   244  124  125 1    
   245  124  244 1    
   246  124  245 1    
   247  125  126 1    
   248  126  246 1    
   249  126  247 1    
@<TRIPOS>SUBSTRUCTURE
     1 UNK         1 GROUP             0       ****    0 ROOT    
