@<TRIPOS>MOLECULE
3R540
247   249    1
SMALL
USER_CHARGES


@<TRIPOS>ATOM
      1 CA         -5.0998  -13.9548  -50.3107 C.3       0 UNK        -0.1800 
      2 C          -3.8549  -14.1288  -49.4531 C.2       0 UNK         0.5000 
      3 O          -3.9528  -14.1592  -48.2271 O.2       0 UNK        -0.5000 
      4 N          -2.6799  -14.2223  -50.0898 N.am      1 UNK        -0.5000 
      5 CA         -1.3457  -14.4361  -49.5028 C.3       1 UNK         0.1400 
      6 C6         -1.2570  -15.7298  -48.6460 C.3       23 UNK        -0.0398 
      7 S7          0.3039  -16.6372  -48.9047 S.3       23 UNK        -0.2404 
      8 C8         -0.2183  -17.8130  -50.2025 C.3       23 UNK        -0.0205 
      9 C9          0.8140  -18.8739  -50.5874 C.ar      23 UNK        -0.0193 
     10 C10         0.6863  -19.5049  -51.8291 C.ar      23 UNK        -0.1150 
     11 C11         1.5768  -20.5076  -52.2231 C.ar      23 UNK        -0.0193 
     12 C12         2.6182  -20.8710  -51.3689 C.ar      23 UNK        -0.1150 
     13 C13         2.7633  -20.2534  -50.1251 C.ar      23 UNK        -0.0193 
     14 C14         1.8560  -19.2635  -49.7347 C.ar      23 UNK        -0.1150 
     15 C15         3.9100  -20.6612  -49.2158 C.3       23 UNK        -0.0205 
     16 S16         3.5283  -22.1846  -48.2991 S.3       23 UNK        -0.2404 
     17 C17         2.5314  -21.5333  -46.9212 C.3       23 UNK        -0.0398 
     18 CA          1.2615  -22.3725  -46.6407 C.3       11 UNK         0.1400 
     19 N           0.9058  -22.3340  -45.2200 N.am      11 UNK        -0.5000 
     20 C          -0.0133  -23.1131  -44.6353 C.2       10 UNK         0.5000 
     21 O          -0.6298  -24.0012  -45.2247 O.2       10 UNK        -0.5000 
     22 CA         -0.3270  -22.8151  -43.1560 C.3       10 UNK         0.1400 
     23 CB          0.7010  -23.4832  -42.2312 C.3       10 UNK        -0.1800 
     24 N          -0.3819  -21.3783  -42.8748 N.am      10 UNK        -0.5000 
     25 C          -1.3015  -20.5470  -43.3863 C.2       9 UNK         0.5000 
     26 O          -2.2403  -20.9229  -44.0863 O.2       9 UNK        -0.5000 
     27 CA         -1.1151  -19.0414  -43.1228 C.3       9 UNK         0.1400 
     28 CB         -1.6611  -18.6515  -41.7417 C.3       9 UNK        -0.1800 
     29 N           0.2797  -18.6177  -43.2400 N.am      9 UNK        -0.5000 
     30 C           1.0076  -18.6831  -44.3631 C.2       8 UNK         0.5000 
     31 O           0.5659  -19.0699  -45.4419 O.2       8 UNK        -0.5000 
     32 CA          2.4953  -18.3145  -44.2543 C.3       8 UNK         0.1400 
     33 CB          2.6942  -16.7972  -44.3589 C.3       8 UNK        -0.1800 
     34 N           3.0961  -18.8185  -43.0203 N.am      8 UNK        -0.5000 
     35 C           3.3059  -20.1176  -42.7641 C.2       7 UNK         0.5000 
     36 O           3.0400  -21.0215  -43.5556 O.2       7 UNK        -0.5000 
     37 CA          3.8622  -20.4652  -41.3723 C.3       7 UNK         0.1400 
     38 CB          5.3853  -20.2715  -41.3307 C.3       7 UNK        -0.1800 
     39 N           3.2401  -19.6699  -40.3136 N.am      7 UNK        -0.5000 
     40 C           1.9515  -19.7656  -39.9574 C.2       6 UNK         0.5000 
     41 O           1.1623  -20.5698  -40.4538 O.2       6 UNK        -0.5000 
     42 CA          1.4526  -18.7579  -38.9048 C.3       6 UNK         0.1400 
     43 CB          1.7241  -19.2798  -37.4861 C.3       6 UNK        -0.1800 
     44 N           2.0356  -17.4192  -39.0523 N.am      6 UNK        -0.5000 
     45 C           1.8816  -16.6396  -40.1309 C.2       5 UNK         0.5000 
     46 O           1.2854  -16.9947  -41.1484 O.2       5 UNK        -0.5000 
     47 CA          2.5446  -15.2509  -40.0865 C.3       5 UNK         0.1400 
     48 CB          3.9494  -15.3147  -40.7061 C.3       5 UNK        -0.1800 
     49 N           1.7599  -14.2379  -40.7961 N.am      5 UNK        -0.5000 
     50 C           0.5295  -13.8344  -40.4478 C.2       4 UNK         0.5000 
     51 O          -0.0646  -14.2524  -39.4523 O.2       4 UNK        -0.5000 
     52 CA         -0.1488  -12.7645  -41.3266 C.3       4 UNK         0.1400 
     53 CB         -0.3745  -11.4731  -40.5220 C.3       4 UNK        -0.1800 
     54 N           0.6106  -12.4250  -42.5337 N.am      4 UNK        -0.5000 
     55 C           0.4329  -12.9932  -43.7322 C.2       3 UNK         0.5000 
     56 O          -0.3251  -13.9426  -43.9411 O.2       3 UNK        -0.5000 
     57 CA          1.2410  -12.3885  -44.8971 C.3       3 UNK         0.1400 
     58 CB          2.3868  -13.3188  -45.3183 C.3       3 UNK        -0.1800 
     59 N           0.3991  -12.1180  -46.0614 N.am      3 UNK        -0.5000 
     60 C          -0.5985  -11.2280  -46.1105 C.2       2 UNK         0.5000 
     61 O          -0.8852  -10.4812  -45.1735 O.2       2 UNK        -0.5000 
     62 CA         -1.4241  -11.1420  -47.4109 C.3       2 UNK         0.1400 
     63 CB         -0.8488  -10.0734  -48.3598 C.3       2 UNK        -0.1800 
     64 N          -1.6422  -12.4147  -48.1145 N.am      2 UNK        -0.5000 
     65 C          -0.7724  -13.2056  -48.7582 C.2       1 UNK         0.5000 
     66 O           0.4394  -12.9909  -48.7957 O.2       1 UNK        -0.5000 
     67 C           0.0712  -21.9659  -47.5392 C.2       11 UNK         0.5000 
     68 O          -0.2072  -22.6420  -48.5288 O.2       11 UNK        -0.5000 
     69 N          -0.6543  -20.9119  -47.1390 N.am      12 UNK        -0.5000 
     70 CA         -1.8858  -20.4517  -47.7762 C.3       12 UNK         0.1400 
     71 CB         -2.3206  -19.1102  -47.1696 C.3       12 UNK        -0.1800 
     72 C          -3.0226  -21.4808  -47.6842 C.2       12 UNK         0.5000 
     73 O          -3.7176  -21.6915  -48.6764 O.2       12 UNK        -0.5000 
     74 N          -3.1753  -22.1309  -46.5214 N.am      13 UNK        -0.5000 
     75 CA         -4.1281  -23.2202  -46.2955 C.3       13 UNK         0.1400 
     76 CB         -4.1272  -23.6281  -44.8153 C.3       13 UNK        -0.1800 
     77 C          -3.8648  -24.4313  -47.2083 C.2       13 UNK         0.5000 
     78 O          -4.8107  -24.9614  -47.7923 O.2       13 UNK        -0.5000 
     79 N          -2.5844  -24.7971  -47.3713 N.am      14 UNK        -0.5000 
     80 CA         -2.1232  -25.8192  -48.3156 C.3       14 UNK         0.1400 
     81 CB         -0.6379  -26.1190  -48.0642 C.3       14 UNK        -0.1800 
     82 C          -2.3712  -25.4386  -49.7910 C.2       14 UNK         0.5000 
     83 O          -2.6332  -26.3211  -50.6079 O.2       14 UNK        -0.5000 
     84 N          -2.3548  -24.1339  -50.0939 N.am      15 UNK        -0.5000 
     85 CA         -2.7165  -23.5346  -51.3814 C.3       15 UNK         0.1400 
     86 CB         -1.9019  -22.2433  -51.5697 C.3       15 UNK        -0.1800 
     87 C          -4.2393  -23.2921  -51.5192 C.2       15 UNK         0.5000 
     88 O          -4.6543  -22.3307  -52.1717 O.2       15 UNK        -0.5000 
     89 N          -5.0473  -24.1640  -50.8966 N.am      16 UNK        -0.5000 
     90 CA         -6.5128  -24.1959  -50.8978 C.3       16 UNK         0.1400 
     91 CB         -7.0419  -24.5193  -52.3116 C.3       16 UNK        -0.1800 
     92 C          -7.1444  -22.9253  -50.2946 C.2       16 UNK         0.5000 
     93 O          -8.0897  -22.3796  -50.8616 O.2       16 UNK        -0.5000 
     94 N          -6.5842  -22.4535  -49.1714 N.am      17 UNK        -0.5000 
     95 CA         -6.9228  -21.1958  -48.4867 C.3       17 UNK         0.1400 
     96 CB         -8.3390  -21.2581  -47.8785 C.3       17 UNK        -0.1800 
     97 C          -6.6971  -19.9677  -49.3953 C.2       17 UNK         0.5000 
     98 O          -7.5232  -19.0550  -49.4393 O.2       17 UNK        -0.5000 
     99 N          -5.5776  -20.0102  -50.1300 N.am      18 UNK        -0.5000 
    100 CA        -5.1214  -19.0707  -51.1552 C.3       18 UNK         0.1400 
    101 CB        -4.8213  -17.6860  -50.5448 C.3       18 UNK        -0.1800 
    102 C         -6.0270  -18.9912  -52.4056 C.2       18 UNK         0.5000 
    103 O         -5.8831  -18.0531  -53.1907 O.2       18 UNK        -0.5000 
    104 N         -6.9130  -19.9774  -52.6139 N.am      19 UNK        -0.5000 
    105 CA        -7.7108  -20.1032  -53.8381 C.3       19 UNK         0.1400 
    106 CB        -8.9365  -20.9902  -53.5776 C.3       19 UNK        -0.1800 
    107 C         -6.8879  -20.6593  -55.0160 C.2       19 UNK         0.5000 
    108 O         -7.2324  -20.3971  -56.1689 O.2       19 UNK        -0.5000 
    109 N         -5.8145  -21.3985  -54.7098 N.am      20 UNK        -0.5000 
    110 CA        -4.8668  -21.9663  -55.6628 C.3       20 UNK         0.1400 
    111 CB        -4.9742  -23.5017  -55.6178 C.3       20 UNK        -0.1800 
    112 C         -3.4579  -21.4539  -55.3203 C.2       20 UNK         0.5000 
    113 O         -2.5205  -22.2443  -55.1980 O.2       20 UNK        -0.5000 
    114 N         -3.3341  -20.1296  -55.1468 N.am      21 UNK        -0.5000 
    115 CA        -2.1386  -19.4156  -54.6844 C.3       21 UNK         0.1400 
    116 CB        -2.5502  -18.0292  -54.1559 C.3       21 UNK        -0.1800 
    117 C         -0.9714  -19.3418  -55.6975 C.2       21 UNK         0.5000 
    118 O         -0.3498  -18.2871  -55.8282 O.2       21 UNK        -0.5000 
    119 N         -0.6793  -20.4705  -56.3584 N.am      22 UNK        -0.5000 
    120 CA         0.5114  -20.7814  -57.1758 C.3       22 UNK         0.1400 
    121 C          0.9402  -19.7478  -58.2657 C.2       22 UNK         0.5000 
    122 N          0.0354  -18.9231  -58.7772 N.am      22 UNK        -0.7600 
    123 O          2.0909  -19.7199  -58.6949 O.2       22 UNK        -0.5000 
    124 C124        1.6850  -21.3678  -56.3313 C.3       23 UNK        -0.0398 
    125 S125        2.2437  -20.3563  -54.9133 S.3       23 UNK        -0.2404 
    126 C126        1.3987  -21.2229  -53.5526 C.3       23 UNK        -0.0205 
    127 H127       -5.8607  -14.6788  -50.0200 H         1 UNK         0.0600 
    128 H128       -4.8849  -14.0970  -51.3701 H         1 UNK         0.0600 
    129 H129       -5.5112  -12.9546  -50.1753 H         1 UNK         0.0600 
    130 H130       -2.6798  -14.1403  -51.0972 H         1 UNK         0.3000 
    131 H131       -0.7072  -14.5671  -50.3781 H         1 UNK         0.0600 
    132 H132       -1.3704  -15.5164  -47.5813 H         1 UNK         0.0800 
    133 H133       -2.0803  -16.4038  -48.8849 H         1 UNK         0.0800 
    134 H134       -1.1257  -18.3227  -49.8817 H         1 UNK         0.0800 
    135 H135       -0.4881  -17.2348  -51.0878 H         1 UNK         0.0800 
    136 H136       -0.1159  -19.2164  -52.4900 H         1 UNK         0.1150 
    137 H137        3.3125  -21.6442  -51.6672 H         1 UNK         0.1150 
    138 H138        1.9668  -18.8024  -48.7645 H         1 UNK         0.1150 
    139 H139        4.8040  -20.8309  -49.8178 H         1 UNK         0.0800 
    140 H140        4.1632  -19.8580  -48.5219 H         1 UNK         0.0800 
    141 H141        2.2873  -20.4814  -47.0732 H         1 UNK         0.0800 
    142 H142        3.1936  -21.5551  -46.0562 H         1 UNK         0.0800 
    143 H143        1.4876  -23.4176  -46.8638 H         1 UNK         0.0600 
    144 H144        1.4005  -21.6588  -44.6476 H         1 UNK         0.3000 
    145 H145       -1.3082  -23.2386  -42.9327 H         1 UNK         0.0600 
    146 H146        0.4428  -23.3327  -41.1828 H         1 UNK         0.0600 
    147 H147        0.7420  -24.5590  -42.4058 H         1 UNK         0.0600 
    148 H148        1.7042  -23.0861  -42.3872 H         1 UNK         0.0600 
    149 H149        0.3288  -21.0033  -42.2549 H         1 UNK         0.3000 
    150 H150       -1.6874  -18.4985  -43.8776 H         1 UNK         0.0600 
    151 H151       -2.7179  -18.9068  -41.6547 H         1 UNK         0.0600 
    152 H152       -1.5687  -17.5789  -41.5696 H         1 UNK         0.0600 
    153 H153       -1.1326  -19.1655  -40.9393 H         1 UNK         0.0600 
    154 H154        0.7066  -18.2144  -42.4091 H         1 UNK         0.3000 
    155 H155        3.0153  -18.7784  -45.0954 H         1 UNK         0.0600 
    156 H156        2.3219  -16.4388  -45.3184 H         1 UNK         0.0600 
    157 H157        2.1591  -16.2574  -43.5771 H         1 UNK         0.0600 
    158 H158        3.7486  -16.5278  -44.2975 H         1 UNK         0.0600 
    159 H159        3.2813  -18.1429  -42.2948 H         1 UNK         0.3000 
    160 H160        3.6458  -21.5184  -41.1800 H         1 UNK         0.0600 
    161 H161        5.6658  -19.2296  -41.4903 H         1 UNK         0.0600 
    162 H162        5.8747  -20.8655  -42.1038 H         1 UNK         0.0600 
    163 H163        5.7963  -20.5869  -40.3715 H         1 UNK         0.0600 
    164 H164        3.8185  -18.9829  -39.8532 H         1 UNK         0.3000 
    165 H165        0.3722  -18.6623  -39.0294 H         1 UNK         0.0600 
    166 H166        1.2900  -18.6212  -36.7336 H         1 UNK         0.0600 
    167 H167        1.2844  -20.2679  -37.3430 H         1 UNK         0.0600 
    168 H168        2.7926  -19.3635  -37.2840 H         1 UNK         0.0600 
    169 H169        2.5499  -17.0638  -38.2591 H         1 UNK         0.3000 
    170 H170        2.6342  -14.9382  -39.0441 H         1 UNK         0.0600 
    171 H171        3.9140  -15.5959  -41.7592 H         1 UNK         0.0600 
    172 H172        4.4559  -14.3520  -40.6340 H         1 UNK         0.0600 
    173 H173        4.5733  -16.0466  -40.1914 H         1 UNK         0.0600 
    174 H174        2.1608  -13.8604  -41.6406 H         1 UNK         0.3000 
    175 H175       -1.1278  -13.1569  -41.6101 H         1 UNK         0.0600 
    176 H176       -0.8996  -10.7253  -41.1169 H         1 UNK         0.0600 
    177 H177        0.5676  -11.0364  -40.1883 H         1 UNK         0.0600 
    178 H178       -0.9809  -11.6623  -39.6353 H         1 UNK         0.0600 
    179 H179        1.2552  -11.6518  -42.4487 H         1 UNK         0.3000 
    180 H180        1.6744  -11.4409  -44.5703 H         1 UNK         0.0600 
    181 H181        2.0054  -14.2258  -45.7863 H         1 UNK         0.0600 
    182 H182        2.9960  -13.6133  -44.4627 H         1 UNK         0.0600 
    183 H183        3.0460  -12.8291  -46.0352 H         1 UNK         0.0600 
    184 H184        0.5773  -12.6629  -46.8986 H         1 UNK         0.3000 
    185 H185       -2.4196  -10.8073  -47.1149 H         1 UNK         0.0600 
    186 H186       -0.7984   -9.1022  -47.8659 H         1 UNK         0.0600 
    187 H187        0.1603  -10.3213  -48.6900 H         1 UNK         0.0600 
    188 H188       -1.4730   -9.9549  -49.2455 H         1 UNK         0.0600 
    189 H189       -2.5989  -12.7554  -48.0892 H         1 UNK         0.3000 
    190 H190       -0.3191  -20.3597  -46.3521 H         1 UNK         0.3000 
    191 H191       -1.6668  -20.2974  -48.8332 H         1 UNK         0.0600 
    192 H192       -1.5239  -18.3706  -47.2358 H         1 UNK         0.0600 
    193 H193       -3.1886  -18.7081  -47.6922 H         1 UNK         0.0600 
    194 H194       -2.5902  -19.2099  -46.1187 H         1 UNK         0.0600 
    195 H195       -2.6125  -21.8450  -45.7247 H         1 UNK         0.3000 
    196 H196       -5.1237  -22.8420  -46.5299 H         1 UNK         0.0600 
    197 H197       -4.8679  -24.4059  -44.6260 H         1 UNK         0.0600 
    198 H198       -4.3734  -22.7821  -44.1734 H         1 UNK         0.0600 
    199 H199       -3.1594  -24.0159  -44.5005 H         1 UNK         0.0600 
    200 H200       -1.8711  -24.3286  -46.8212 H         1 UNK         0.3000 
    201 H201       -2.6888  -26.7314  -48.1147 H         1 UNK         0.0600 
    202 H202       -0.4692  -26.4406  -47.0363 H         1 UNK         0.0600 
    203 H203       -0.0113  -25.2465  -48.2473 H         1 UNK         0.0600 
    204 H204       -0.2856  -26.9177  -48.7179 H         1 UNK         0.0600 
    205 H205       -2.1044  -23.4810  -49.3610 H         1 UNK         0.3000 
    206 H206       -2.4330  -24.2213  -52.1812 H         1 UNK         0.0600 
    207 H207       -0.8358  -22.4204  -51.4258 H         1 UNK         0.0600 
    208 H208       -2.0308  -21.8523  -52.5765 H         1 UNK         0.0600 
    209 H209       -2.2083  -21.4633  -50.8740 H         1 UNK         0.0600 
    210 H210       -4.6042  -24.8927  -50.3541 H         1 UNK         0.3000 
    211 H211       -6.8013  -25.0178  -50.2411 H         1 UNK         0.0600 
    212 H212       -6.8255  -23.7192  -53.0196 H         1 UNK         0.0600 
    213 H213       -8.1230  -24.6624  -52.3019 H         1 UNK         0.0600 
    214 H214       -6.5975  -25.4361  -52.6986 H         1 UNK         0.0600 
    215 H215       -5.7670  -22.9377  -48.8227 H         1 UNK         0.3000 
    216 H216       -6.2204  -21.0880  -47.6602 H         1 UNK         0.0600 
    217 H217       -8.5381  -20.3783  -47.2656 H         1 UNK         0.0600 
    218 H218       -8.4539  -22.1323  -47.2378 H         1 UNK         0.0600 
    219 H219       -9.1117  -21.3006  -48.6466 H         1 UNK         0.0600 
    220 H220       -4.9679  -20.8082  -49.9775 H         1 UNK         0.3000 
    221 H221       -4.1745  -19.4792  -51.5111 H         1 UNK         0.0600 
    222 H222       -5.7301  -17.1908  -50.2032 H         1 UNK         0.0600 
    223 H223       -4.1439  -17.7669  -49.6959 H         1 UNK         0.0600 
    224 H224       -4.3455  -17.0276  -51.2723 H         1 UNK         0.0600 
    225 H225       -7.0012  -20.7196  -51.9305 H         1 UNK         0.3000 
    226 H226       -8.0724  -19.1125  -54.1213 H         1 UNK         0.0600 
    227 H227       -9.5042  -20.6407  -52.7151 H         1 UNK         0.0600 
    228 H228       -9.6092  -20.9826  -54.4360 H         1 UNK         0.0600 
    229 H229       -8.6533  -22.0274  -53.3985 H         1 UNK         0.0600 
    230 H230       -5.5812  -21.5520  -53.7317 H         1 UNK         0.3000 
    231 H231       -5.0874  -21.6355  -56.6794 H         1 UNK         0.0600 
    232 H232       -4.7190  -23.8941  -54.6327 H         1 UNK         0.0600 
    233 H233       -4.3019  -23.9634  -56.3418 H         1 UNK         0.0600 
    234 H234       -5.9853  -23.8319  -55.8563 H         1 UNK         0.0600 
    235 H235       -4.1568  -19.5608  -55.2870 H         1 UNK         0.3000 
    236 H236       -1.7504  -19.9720  -53.8327 H         1 UNK         0.0600 
    237 H237       -3.2550  -18.1165  -53.3328 H         1 UNK         0.0600 
    238 H238       -1.6925  -17.4761  -53.7708 H         1 UNK         0.0600 
    239 H239       -3.0130  -17.4228  -54.9351 H         1 UNK         0.0600 
    240 H240       -1.2732  -21.2681  -56.1465 H         1 UNK         0.3000 
    241 H241        0.1740  -21.6157  -57.7917 H         1 UNK         0.0600 
    242 H242       -0.9059  -18.9146  -58.4182 H         1 UNK         0.3800 
    243 H243        0.3083  -18.2646  -59.4897 H         1 UNK         0.3800 
    244 H244        2.5514  -21.5745  -56.9612 H         1 UNK         0.0800 
    245 H245        1.3855  -22.3464  -55.9542 H         1 UNK         0.0800 
    246 H246        1.7855  -22.2407  -53.4811 H         1 UNK         0.0800 
    247 H247        0.3364  -21.3205  -53.7773 H         1 UNK         0.0800 
@<TRIPOS>BOND
     1    1    2 1    
     2    1  127 1    
     3    1  128 1    
     4    1  129 1    
     5    2    3 2    
     6    2    4 am   BACKBONE|DICT|INTERRES
     7    4    5 1    
     8    4  130 1    
     9    5    6 1    
    10    5   65 1    
    11    5  131 1    
    12    6    7 1    
    13    6  132 1    
    14    6  133 1    
    15    7    8 1    
    16    8    9 1    
    17    8  134 1    
    18    8  135 1    
    19    9   10 ar   
    20    9   14 ar   
    21   10   11 ar   
    22   10  136 1    
    23   11   12 ar   
    24   11  126 1    
    25   12   13 ar   
    26   12  137 1    
    27   13   14 ar   
    28   13   15 1    
    29   14  138 1    
    30   15   16 1    
    31   15  139 1    
    32   15  140 1    
    33   16   17 1    
    34   17   18 1    
    35   17  141 1    
    36   17  142 1    
    37   18   19 1    
    38   18   67 1    
    39   18  143 1    
    40   19   20 am   BACKBONE|DICT|INTERRES
    41   19  144 1    
    42   20   21 2    
    43   20   22 1    
    44   22   23 1    
    45   22   24 1    
    46   22  145 1    
    47   23  146 1    
    48   23  147 1    
    49   23  148 1    
    50   24   25 am   BACKBONE|DICT|INTERRES
    51   24  149 1    
    52   25   26 2    
    53   25   27 1    
    54   27   28 1    
    55   27   29 1    
    56   27  150 1    
    57   28  151 1    
    58   28  152 1    
    59   28  153 1    
    60   29   30 am   BACKBONE|DICT|INTERRES
    61   29  154 1    
    62   30   31 2    
    63   30   32 1    
    64   32   33 1    
    65   32   34 1    
    66   32  155 1    
    67   33  156 1    
    68   33  157 1    
    69   33  158 1    
    70   34   35 am   BACKBONE|DICT|INTERRES
    71   34  159 1    
    72   35   36 2    
    73   35   37 1    
    74   37   38 1    
    75   37   39 1    
    76   37  160 1    
    77   38  161 1    
    78   38  162 1    
    79   38  163 1    
    80   39   40 am   BACKBONE|DICT|INTERRES
    81   39  164 1    
    82   40   41 2    
    83   40   42 1    
    84   42   43 1    
    85   42   44 1    
    86   42  165 1    
    87   43  166 1    
    88   43  167 1    
    89   43  168 1    
    90   44   45 am   BACKBONE|DICT|INTERRES
    91   44  169 1    
    92   45   46 2    
    93   45   47 1    
    94   47   48 1    
    95   47   49 1    
    96   47  170 1    
    97   48  171 1    
    98   48  172 1    
    99   48  173 1    
   100   49   50 am   BACKBONE|DICT|INTERRES
   101   49  174 1    
   102   50   51 2    
   103   50   52 1    
   104   52   53 1    
   105   52   54 1    
   106   52  175 1    
   107   53  176 1    
   108   53  177 1    
   109   53  178 1    
   110   54   55 am   BACKBONE|DICT|INTERRES
   111   54  179 1    
   112   55   56 2    
   113   55   57 1    
   114   57   58 1    
   115   57   59 1    
   116   57  180 1    
   117   58  181 1    
   118   58  182 1    
   119   58  183 1    
   120   59   60 am   BACKBONE|DICT|INTERRES
   121   59  184 1    
   122   60   61 2    
   123   60   62 1    
   124   62   63 1    
   125   62   64 1    
   126   62  185 1    
   127   63  186 1    
   128   63  187 1    
   129   63  188 1    
   130   64   65 am   BACKBONE|DICT|INTERRES
   131   64  189 1    
   132   65   66 2    
   133   67   68 2    
   134   67   69 am   BACKBONE|DICT|INTERRES
   135   69   70 1    
   136   69  190 1    
   137   70   71 1    
   138   70   72 1    
   139   70  191 1    
   140   71  192 1    
   141   71  193 1    
   142   71  194 1    
   143   72   73 2    
   144   72   74 am   BACKBONE|DICT|INTERRES
   145   74   75 1    
   146   74  195 1    
   147   75   76 1    
   148   75   77 1    
   149   75  196 1    
   150   76  197 1    
   151   76  198 1    
   152   76  199 1    
   153   77   78 2    
   154   77   79 am   BACKBONE|DICT|INTERRES
   155   79   80 1    
   156   79  200 1    
   157   80   81 1    
   158   80   82 1    
   159   80  201 1    
   160   81  202 1    
   161   81  203 1    
   162   81  204 1    
   163   82   83 2    
   164   82   84 am   BACKBONE|DICT|INTERRES
   165   84   85 1    
   166   84  205 1    
   167   85   86 1    
   168   85   87 1    
   169   85  206 1    
   170   86  207 1    
   171   86  208 1    
   172   86  209 1    
   173   87   88 2    
   174   87   89 am   BACKBONE|DICT|INTERRES
   175   89   90 1    
   176   89  210 1    
   177   90   91 1    
   178   90   92 1    
   179   90  211 1    
   180   91  212 1    
   181   91  213 1    
   182   91  214 1    
   183   92   93 2    
   184   92   94 am   BACKBONE|DICT|INTERRES
   185   94   95 1    
   186   94  215 1    
   187   95   96 1    
   188   95   97 1    
   189   95  216 1    
   190   96  217 1    
   191   96  218 1    
   192   96  219 1    
   193   97   98 2    
   194   97   99 am   BACKBONE|DICT|INTERRES
   195   99  100 1    
   196   99  220 1    
   197  100  101 1    
   198  100  102 1    
   199  100  221 1    
   200  101  222 1    
   201  101  223 1    
   202  101  224 1    
   203  102  103 2    
   204  102  104 am   BACKBONE|DICT|INTERRES
   205  104  105 1    
   206  104  225 1    
   207  105  106 1    
   208  105  107 1    
   209  105  226 1    
   210  106  227 1    
   211  106  228 1    
   212  106  229 1    
   213  107  108 2    
   214  107  109 am   BACKBONE|DICT|INTERRES
   215  109  110 1    
   216  109  230 1    
   217  110  111 1    
   218  110  112 1    
   219  110  231 1    
   220  111  232 1    
   221  111  233 1    
   222  111  234 1    
   223  112  113 2    
   224  112  114 am   BACKBONE|DICT|INTERRES
   225  114  115 1    
   226  114  235 1    
   227  115  116 1    
   228  115  117 1    
   229  115  236 1    
   230  116  237 1    
   231  116  238 1    
   232  116  239 1    
   233  117  118 2    
   234  117  119 am   BACKBONE|DICT|INTERRES
   235  119  120 1    
   236  119  240 1    
   237  120  121 1    
   238  120  124 1    
   239  120  241 1    
   240  121  122 am   BACKBONE|DICT|INTERRES
   241  121  123 2    
   242  122  242 1    
   243  122  243 1    
   244  124  125 1    
   245  124  244 1    
   246  124  245 1    
   247  125  126 1    
   248  126  246 1    
   249  126  247 1    
@<TRIPOS>SUBSTRUCTURE
     1 UNK         1 GROUP             0       ****    0 ROOT    
