@<TRIPOS>MOLECULE
3R540
247   249    1
SMALL
USER_CHARGES


@<TRIPOS>ATOM
      1 CA          4.7658  -15.8303  -48.0358 C.3       0 UNK        -0.1800 
      2 C           3.5060  -15.5003  -47.2486 C.2       0 UNK         0.5000 
      3 O           3.5843  -14.8314  -46.2200 O.2       0 UNK        -0.5000 
      4 N           2.3478  -15.9669  -47.7293 N.am      1 UNK        -0.5000 
      5 CA          1.0322  -15.7546  -47.1132 C.3       1 UNK         0.1400 
      6 C6          0.0420  -16.8916  -47.4703 C.3       23 UNK        -0.0398 
      7 S7         -0.1476  -17.2117  -49.2612 S.3       23 UNK        -0.2404 
      8 C8         -0.9595  -18.8425  -49.2479 C.3       23 UNK        -0.0205 
      9 C9         -2.3677  -18.7716  -48.6751 C.ar      23 UNK        -0.0193 
     10 C10        -3.4569  -18.4966  -49.5070 C.ar      23 UNK        -0.1150 
     11 C11        -4.7483  -18.4167  -48.9776 C.ar      23 UNK        -0.0193 
     12 C12        -4.9421  -18.6097  -47.6077 C.ar      23 UNK        -0.1150 
     13 C13        -3.8647  -18.8743  -46.7584 C.ar      23 UNK        -0.0193 
     14 C14        -2.5785  -18.9657  -47.3069 C.ar      23 UNK        -0.1150 
     15 C15        -4.1405  -18.9770  -45.2576 C.3       23 UNK        -0.0205 
     16 S16        -2.7922  -19.6710  -44.2449 S.3       23 UNK        -0.2404 
     17 C17        -3.0602  -21.4642  -44.4104 C.3       23 UNK        -0.0398 
     18 CA         -2.2057  -22.1503  -45.5068 C.3       11 UNK         0.1400 
     19 N          -0.7772  -21.8104  -45.4589 N.am      11 UNK        -0.5000 
     20 C           0.1368  -22.2380  -46.3449 C.2       10 UNK         0.5000 
     21 O          -0.1399  -22.8906  -47.3504 O.2       10 UNK        -0.5000 
     22 CA          1.6123  -21.9471  -46.0302 C.3       10 UNK         0.1400 
     23 CB          2.0279  -20.5652  -46.5554 C.3       10 UNK        -0.1800 
     24 N           1.8771  -22.0447  -44.5956 N.am      10 UNK        -0.5000 
     25 C           1.9708  -23.2022  -43.9252 C.2       9 UNK         0.5000 
     26 O           1.9028  -24.3055  -44.4651 O.2       9 UNK        -0.5000 
     27 CA          2.1352  -23.1211  -42.3946 C.3       9 UNK         0.1400 
     28 CB          3.6218  -23.0397  -42.0177 C.3       9 UNK        -0.1800 
     29 N           1.4255  -21.9887  -41.7982 N.am      9 UNK        -0.5000 
     30 C           0.0921  -21.8545  -41.7726 C.2       8 UNK         0.5000 
     31 O          -0.6856  -22.7097  -42.1974 O.2       8 UNK        -0.5000 
     32 CA         -0.4616  -20.5167  -41.2356 C.3       8 UNK         0.1400 
     33 CB         -0.6988  -20.6051  -39.7211 C.3       8 UNK        -0.1800 
     34 N           0.3751  -19.3427  -41.5266 N.am      8 UNK        -0.5000 
     35 C           0.8055  -18.9833  -42.7444 C.2       7 UNK         0.5000 
     36 O           0.5734  -19.6354  -43.7619 O.2       7 UNK        -0.5000 
     37 CA          1.6541  -17.6999  -42.8265 C.3       7 UNK         0.1400 
     38 CB          2.5365  -17.6654  -44.0898 C.3       7 UNK        -0.1800 
     39 N           0.8544  -16.4756  -42.7329 N.am      7 UNK        -0.5000 
     40 C          -0.2063  -16.1054  -43.4647 C.2       6 UNK         0.5000 
     41 O          -0.7087  -16.7901  -44.3522 O.2       6 UNK        -0.5000 
     42 CA         -0.8006  -14.7108  -43.1799 C.3       6 UNK         0.1400 
     43 CB         -1.5968  -14.7009  -41.8610 C.3       6 UNK        -0.1800 
     44 N           0.1674  -13.6057  -43.2317 N.am      6 UNK        -0.5000 
     45 C           1.2233  -13.3679  -42.4385 C.2       5 UNK         0.5000 
     46 O           1.5587  -14.0862  -41.4952 O.2       5 UNK        -0.5000 
     47 CA          2.0416  -12.0993  -42.7427 C.3       5 UNK         0.1400 
     48 CB          3.1022  -12.3882  -43.8142 C.3       5 UNK        -0.1800 
     49 N           1.2228  -10.9594  -43.1634 N.am      5 UNK        -0.5000 
     50 C           0.3287  -10.3347  -42.3817 C.2       4 UNK         0.5000 
     51 O           0.0863  -10.6778  -41.2237 O.2       4 UNK        -0.5000 
     52 CA         -0.4030   -9.1052  -42.9594 C.3       4 UNK         0.1400 
     53 CB          0.0002   -7.8310  -42.1989 C.3       4 UNK        -0.1800 
     54 N          -0.1718   -8.8810  -44.3879 N.am      4 UNK        -0.5000 
     55 C          -0.7422   -9.5735  -45.3810 C.2       3 UNK         0.5000 
     56 O          -1.5096  -10.5196  -45.1921 O.2       3 UNK        -0.5000 
     57 CA         -0.4277   -9.1204  -46.8251 C.3       3 UNK         0.1400 
     58 CB          0.7742   -8.1538  -46.9408 C.3       3 UNK        -0.1800 
     59 N          -0.2653  -10.2516  -47.7425 N.am      3 UNK        -0.5000 
     60 C           0.6435  -11.2324  -47.6578 C.2       2 UNK         0.5000 
     61 O           1.5151  -11.2976  -46.7872 O.2       2 UNK        -0.5000 
     62 CA          0.5835  -12.2907  -48.7771 C.3       2 UNK         0.1400 
     63 CB          1.4488  -11.8560  -49.9702 C.3       2 UNK        -0.1800 
     64 N           1.0182  -13.6182  -48.3454 N.am      2 UNK        -0.5000 
     65 C           0.4285  -14.3618  -47.3991 C.2       1 UNK         0.5000 
     66 O          -0.5648  -13.9972  -46.7681 O.2       1 UNK        -0.5000 
     67 C          -2.4069  -23.6776  -45.4363 C.2       11 UNK         0.5000 
     68 O          -3.0898  -24.2441  -46.2917 O.2       11 UNK        -0.5000 
     69 N          -1.7583  -24.3058  -44.4419 N.am      12 UNK        -0.5000 
     70 CA         -1.7474  -25.7507  -44.2077 C.3       12 UNK         0.1400 
     71 CB         -1.0027  -26.0478  -42.8979 C.3       12 UNK        -0.1800 
     72 C          -1.1409  -26.5544  -45.3723 C.2       12 UNK         0.5000 
     73 O          -1.6373  -27.6377  -45.6815 O.2       12 UNK        -0.5000 
     74 N          -0.1294  -25.9888  -46.0448 N.am      13 UNK        -0.5000 
     75 CA          0.4881  -26.5099  -47.2676 C.3       13 UNK         0.1400 
     76 CB          1.9083  -25.9312  -47.3964 C.3       13 UNK        -0.1800 
     77 C          -0.3678  -26.2488  -48.5292 C.2       13 UNK         0.5000 
     78 O           0.1715  -25.8725  -49.5714 O.2       13 UNK        -0.5000 
     79 N          -1.6877  -26.4531  -48.4122 N.am      14 UNK        -0.5000 
     80 CA         -2.7166  -26.3262  -49.4469 C.3       14 UNK         0.1400 
     81 CB         -2.6022  -27.4967  -50.4459 C.3       14 UNK        -0.1800 
     82 C          -2.7145  -24.9489  -50.1401 C.2       14 UNK         0.5000 
     83 O          -2.7291  -24.8866  -51.3697 O.2       14 UNK        -0.5000 
     84 N          -2.6637  -23.8734  -49.3389 N.am      15 UNK        -0.5000 
     85 CA         -2.5771  -22.4725  -49.7746 C.3       15 UNK         0.1400 
     86 CB         -3.8925  -22.0315  -50.4487 C.3       15 UNK        -0.1800 
     87 C          -1.3367  -22.2153  -50.6566 C.2       15 UNK         0.5000 
     88 O          -1.4590  -21.7251  -51.7809 O.2       15 UNK        -0.5000 
     89 N          -0.1674  -22.5974  -50.1247 N.am      16 UNK        -0.5000 
     90 CA          1.1585  -22.5634  -50.7482 C.3       16 UNK         0.1400 
     91 CB          1.6561  -21.1094  -50.8742 C.3       16 UNK        -0.1800 
     92 C           1.2065  -23.3445  -52.0788 C.2       16 UNK         0.5000 
     93 O           1.7058  -22.8325  -53.0819 O.2       16 UNK        -0.5000 
     94 N           0.6616  -24.5698  -52.0522 N.am      17 UNK        -0.5000 
     95 CA          0.4650  -25.4812  -53.1831 C.3       17 UNK         0.1400 
     96 CB          1.8187  -26.0082  -53.7031 C.3       17 UNK        -0.1800 
     97 C          -0.4176  -24.8603  -54.2873 C.2       17 UNK         0.5000 
     98 O          -0.0391  -24.8572  -55.4606 O.2       17 UNK        -0.5000 
     99 N          -1.5818  -24.3434  -53.8700 N.am      18 UNK        -0.5000 
    100 CA        -2.6074  -23.6709  -54.6691 C.3       18 UNK         0.1400 
    101 CB        -3.3017  -24.6728  -55.6148 C.3       18 UNK        -0.1800 
    102 C         -2.0783  -22.4153  -55.3913 C.2       18 UNK         0.5000 
    103 O         -2.2894  -22.2537  -56.5954 O.2       18 UNK        -0.5000 
    104 N         -1.4042  -21.5364  -54.6367 N.am      19 UNK        -0.5000 
    105 CA        -0.9099  -20.2426  -55.1179 C.3       19 UNK         0.1400 
    106 CB         0.1042  -19.6794  -54.1130 C.3       19 UNK        -0.1800 
    107 C         -2.0406  -19.2230  -55.3552 C.2       19 UNK         0.5000 
    108 O         -1.8635  -18.2888  -56.1384 O.2       19 UNK        -0.5000 
    109 N         -3.1780  -19.4266  -54.6842 N.am      20 UNK        -0.5000 
    110 CA        -4.4110  -18.6693  -54.8320 C.3       20 UNK         0.1400 
    111 CB        -4.4778  -17.5937  -53.7349 C.3       20 UNK        -0.1800 
    112 C         -5.5907  -19.6436  -54.7162 C.2       20 UNK         0.5000 
    113 O         -5.4482  -20.7128  -54.1161 O.2       20 UNK        -0.5000 
    114 N         -6.7402  -19.2452  -55.2744 N.am      21 UNK        -0.5000 
    115 CA        -8.0074  -19.9726  -55.1545 C.3       21 UNK         0.1400 
    116 CB        -8.9430  -19.5375  -56.2933 C.3       21 UNK        -0.1800 
    117 C         -8.6860  -19.7563  -53.7865 C.2       21 UNK         0.5000 
    118 O         -9.4863  -20.5943  -53.3699 O.2       21 UNK        -0.5000 
    119 N         -8.3539  -18.6378  -53.1251 N.am      22 UNK        -0.5000 
    120 CA        -8.8236  -18.2251  -51.7895 C.3       22 UNK         0.1400 
    121 C        -10.3323  -17.8337  -51.7134 C.2       22 UNK         0.5000 
    122 N        -11.0144  -17.6020  -52.8284 N.am      22 UNK        -0.7600 
    123 O        -10.8906  -17.7027  -50.6272 O.2       22 UNK        -0.5000 
    124 C124       -8.4098  -19.2082  -50.6565 C.3       23 UNK        -0.0398 
    125 S125       -6.6250  -19.5959  -50.6262 S.3       23 UNK        -0.2404 
    126 C126       -5.9367  -18.0925  -49.8688 C.3       23 UNK        -0.0205 
    127 H127        5.4615  -16.3904  -47.4110 H         1 UNK         0.0600 
    128 H128        5.2579  -14.9126  -48.3580 H         1 UNK         0.0600 
    129 H129        4.5467  -16.4283  -48.9208 H         1 UNK         0.0600 
    130 H130        2.3390  -16.5101  -48.5816 H         1 UNK         0.3000 
    131 H131        1.1711  -15.7802  -46.0323 H         1 UNK         0.0600 
    132 H132       -0.9422  -16.6873  -47.0453 H         1 UNK         0.0800 
    133 H133        0.3780  -17.8114  -46.9924 H         1 UNK         0.0800 
    134 H134       -0.3540  -19.5533  -48.6833 H         1 UNK         0.0800 
    135 H135       -0.9968  -19.2194  -50.2711 H         1 UNK         0.0800 
    136 H136       -3.2986  -18.3401  -50.5646 H         1 UNK         0.1150 
    137 H137       -5.9387  -18.5300  -47.1960 H         1 UNK         0.1150 
    138 H138       -1.7257  -19.1539  -46.6711 H         1 UNK         0.1150 
    139 H139       -4.3374  -17.9687  -44.8914 H         1 UNK         0.0800 
    140 H140       -5.0545  -19.5464  -45.0831 H         1 UNK         0.0800 
    141 H141       -4.1200  -21.6506  -44.5919 H         1 UNK         0.0800 
    142 H142       -2.8529  -21.8975  -43.4314 H         1 UNK         0.0800 
    143 H143       -2.5803  -21.8139  -46.4748 H         1 UNK         0.0600 
    144 H144       -0.4722  -21.2223  -44.6907 H         1 UNK         0.3000 
    145 H145        2.2221  -22.6929  -46.5435 H         1 UNK         0.0600 
    146 H146        1.3880  -19.7740  -46.1694 H         1 UNK         0.0600 
    147 H147        3.0570  -20.3291  -46.2849 H         1 UNK         0.0600 
    148 H148        1.9612  -20.5298  -47.6415 H         1 UNK         0.0600 
    149 H149        1.8222  -21.1766  -44.0762 H         1 UNK         0.3000 
    150 H150        1.7248  -24.0390  -41.9686 H         1 UNK         0.0600 
    151 H151        4.1752  -23.8847  -42.4297 H         1 UNK         0.0600 
    152 H152        3.7565  -23.0611  -40.9361 H         1 UNK         0.0600 
    153 H153        4.0846  -22.1277  -42.3970 H         1 UNK         0.0600 
    154 H154        1.9903  -21.2376  -41.4306 H         1 UNK         0.3000 
    155 H155       -1.4265  -20.3525  -41.7168 H         1 UNK         0.0600 
    156 H156       -1.3360  -21.4555  -39.4742 H         1 UNK         0.0600 
    157 H157       -1.1958  -19.7101  -39.3463 H         1 UNK         0.0600 
    158 H158        0.2367  -20.7256  -39.1735 H         1 UNK         0.0600 
    159 H159        0.6013  -18.7502  -40.7409 H         1 UNK         0.3000 
    160 H160        2.3220  -17.6996  -41.9640 H         1 UNK         0.0600 
    161 H161        3.1500  -16.7649  -44.1195 H         1 UNK         0.0600 
    162 H162        1.9409  -17.6947  -45.0008 H         1 UNK         0.0600 
    163 H163        3.2112  -18.5217  -44.1173 H         1 UNK         0.0600 
    164 H164        1.1817  -15.7898  -42.0558 H         1 UNK         0.3000 
    165 H165       -1.5096  -14.5075  -43.9845 H         1 UNK         0.0600 
    166 H166       -0.9625  -14.8956  -40.9961 H         1 UNK         0.0600 
    167 H167       -2.0876  -13.7399  -41.7060 H         1 UNK         0.0600 
    168 H168       -2.3743  -15.4658  -41.8723 H         1 UNK         0.0600 
    169 H169        0.0103  -12.9487  -43.9844 H         1 UNK         0.3000 
    170 H170        2.5593  -11.8146  -41.8243 H         1 UNK         0.0600 
    171 H171        2.6461  -12.6688  -44.7641 H         1 UNK         0.0600 
    172 H172        3.7367  -11.5196  -43.9902 H         1 UNK         0.0600 
    173 H173        3.7516  -13.2106  -43.5111 H         1 UNK         0.0600 
    174 H174        1.3546  -10.6274  -44.1086 H         1 UNK         0.3000 
    175 H175       -1.4718   -9.2672  -42.8042 H         1 UNK         0.0600 
    176 H176        1.0627   -7.6132  -42.3145 H         1 UNK         0.0600 
    177 H177       -0.5612   -6.9657  -42.5520 H         1 UNK         0.0600 
    178 H178       -0.1999   -7.9298  -41.1311 H         1 UNK         0.0600 
    179 H179        0.4547   -8.1258  -44.6267 H         1 UNK         0.3000 
    180 H180       -1.3129   -8.5816  -47.1656 H         1 UNK         0.0600 
    181 H181        1.6913   -8.5894  -46.5422 H         1 UNK         0.0600 
    182 H182        0.5877   -7.2203  -46.4086 H         1 UNK         0.0600 
    183 H183        0.9618   -7.8896  -47.9816 H         1 UNK         0.0600 
    184 H184       -0.9508  -10.3014  -48.4830 H         1 UNK         0.3000 
    185 H185       -0.4517  -12.3802  -49.1128 H         1 UNK         0.0600 
    186 H186        1.3669  -12.5621  -50.7969 H         1 UNK         0.0600 
    187 H187        1.1375  -10.8805  -50.3463 H         1 UNK         0.0600 
    188 H188        2.5017  -11.7801  -49.6951 H         1 UNK         0.0600 
    189 H189        1.8473  -13.9878  -48.7851 H         1 UNK         0.3000 
    190 H190       -1.2429  -23.7428  -43.7708 H         1 UNK         0.3000 
    191 H191       -2.7845  -26.0716  -44.0913 H         1 UNK         0.0600 
    192 H192        0.0390  -25.7300  -42.9468 H         1 UNK         0.0600 
    193 H193       -1.4685  -25.5375  -42.0545 H         1 UNK         0.0600 
    194 H194       -1.0106  -27.1159  -42.6770 H         1 UNK         0.0600 
    195 H195        0.2324  -25.1051  -45.7090 H         1 UNK         0.3000 
    196 H196        0.5829  -27.5932  -47.1709 H         1 UNK         0.0600 
    197 H197        2.5022  -26.1384  -46.5061 H         1 UNK         0.0600 
    198 H198        1.8877  -24.8515  -47.5433 H         1 UNK         0.0600 
    199 H199        2.4360  -26.3682  -48.2448 H         1 UNK         0.0600 
    200 H200       -2.0173  -26.7627  -47.5051 H         1 UNK         0.3000 
    201 H201       -3.6789  -26.4126  -48.9405 H         1 UNK         0.0600 
    202 H202       -3.4181  -27.4764  -51.1694 H         1 UNK         0.0600 
    203 H203       -2.6487  -28.4576  -49.9336 H         1 UNK         0.0600 
    204 H204       -1.6668  -27.4606  -51.0052 H         1 UNK         0.0600 
    205 H205       -2.6338  -24.0304  -48.3368 H         1 UNK         0.3000 
    206 H206       -2.4473  -21.8677  -48.8768 H         1 UNK         0.0600 
    207 H207       -4.7383  -22.1396  -49.7701 H         1 UNK         0.0600 
    208 H208       -4.1077  -22.6059  -51.3498 H         1 UNK         0.0600 
    209 H209       -3.8472  -20.9837  -50.7441 H         1 UNK         0.0600 
    210 H210       -0.1874  -22.9654  -49.1751 H         1 UNK         0.3000 
    211 H211        1.8308  -23.0844  -50.0649 H         1 UNK         0.0600 
    212 H212        1.6761  -20.6127  -49.9063 H         1 UNK         0.0600 
    213 H213        2.6685  -21.0730  -51.2777 H         1 UNK         0.0600 
    214 H214        1.0189  -20.5202  -51.5304 H         1 UNK         0.0600 
    215 H215        0.3177  -24.9140  -51.1573 H         1 UNK         0.3000 
    216 H216       -0.0902  -26.3346  -52.7912 H         1 UNK         0.0600 
    217 H217        1.6710  -26.7699  -54.4694 H         1 UNK         0.0600 
    218 H218        2.4229  -25.2148  -54.1438 H         1 UNK         0.0600 
    219 H219        2.3976  -26.4641  -52.9000 H         1 UNK         0.0600 
    220 H220       -1.8122  -24.4265  -52.8808 H         1 UNK         0.3000 
    221 H221       -3.3575  -23.3178  -53.9595 H         1 UNK         0.0600 
    222 H222       -2.6202  -25.0519  -56.3768 H         1 UNK         0.0600 
    223 H223       -3.6959  -25.5258  -55.0624 H         1 UNK         0.0600 
    224 H224       -4.1413  -24.2044  -56.1297 H         1 UNK         0.0600 
    225 H225       -1.2933  -21.7228  -53.6412 H         1 UNK         0.3000 
    226 H226       -0.3975  -20.4011  -56.0689 H         1 UNK         0.0600 
    227 H227        0.9377  -20.3661  -53.9685 H         1 UNK         0.0600 
    228 H228        0.5203  -18.7344  -54.4642 H         1 UNK         0.0600 
    229 H229       -0.3579  -19.4936  -53.1427 H         1 UNK         0.0600 
    230 H230       -3.2600  -20.2497  -54.1008 H         1 UNK         0.3000 
    231 H231       -4.4462  -18.1969  -55.8160 H         1 UNK         0.0600 
    232 H232       -5.3868  -16.9977  -53.8199 H         1 UNK         0.0600 
    233 H233       -3.6325  -16.9086  -53.8024 H         1 UNK         0.0600 
    234 H234       -4.4673  -18.0402  -52.7401 H         1 UNK         0.0600 
    235 H235       -6.7700  -18.3660  -55.7710 H         1 UNK         0.3000 
    236 H236       -7.8138  -21.0421  -55.2628 H         1 UNK         0.0600 
    237 H237       -8.5003  -19.7450  -57.2676 H         1 UNK         0.0600 
    238 H238       -9.8906  -20.0760  -56.2474 H         1 UNK         0.0600 
    239 H239       -9.1684  -18.4714  -56.2465 H         1 UNK         0.0600 
    240 H240       -7.6954  -18.0130  -53.5640 H         1 UNK         0.3000 
    241 H241       -8.3029  -17.2879  -51.5917 H         1 UNK         0.0600 
    242 H242      -10.5724  -17.6943  -53.7286 H         1 UNK         0.3800 
    243 H243      -11.9858  -17.3385  -52.7706 H         1 UNK         0.3800 
    244 H244       -8.6884  -18.8123  -49.6787 H         1 UNK         0.0800 
    245 H245       -8.9537  -20.1480  -50.7583 H         1 UNK         0.0800 
    246 H246       -5.6403  -17.3966  -50.6545 H         1 UNK         0.0800 
    247 H247       -6.7017  -17.5798  -49.2842 H         1 UNK         0.0800 
@<TRIPOS>BOND
     1    1    2 1    
     2    1  127 1    
     3    1  128 1    
     4    1  129 1    
     5    2    3 2    
     6    2    4 am   BACKBONE|DICT|INTERRES
     7    4    5 1    
     8    4  130 1    
     9    5    6 1    
    10    5   65 1    
    11    5  131 1    
    12    6    7 1    
    13    6  132 1    
    14    6  133 1    
    15    7    8 1    
    16    8    9 1    
    17    8  134 1    
    18    8  135 1    
    19    9   10 ar   
    20    9   14 ar   
    21   10   11 ar   
    22   10  136 1    
    23   11   12 ar   
    24   11  126 1    
    25   12   13 ar   
    26   12  137 1    
    27   13   14 ar   
    28   13   15 1    
    29   14  138 1    
    30   15   16 1    
    31   15  139 1    
    32   15  140 1    
    33   16   17 1    
    34   17   18 1    
    35   17  141 1    
    36   17  142 1    
    37   18   19 1    
    38   18   67 1    
    39   18  143 1    
    40   19   20 am   BACKBONE|DICT|INTERRES
    41   19  144 1    
    42   20   21 2    
    43   20   22 1    
    44   22   23 1    
    45   22   24 1    
    46   22  145 1    
    47   23  146 1    
    48   23  147 1    
    49   23  148 1    
    50   24   25 am   BACKBONE|DICT|INTERRES
    51   24  149 1    
    52   25   26 2    
    53   25   27 1    
    54   27   28 1    
    55   27   29 1    
    56   27  150 1    
    57   28  151 1    
    58   28  152 1    
    59   28  153 1    
    60   29   30 am   BACKBONE|DICT|INTERRES
    61   29  154 1    
    62   30   31 2    
    63   30   32 1    
    64   32   33 1    
    65   32   34 1    
    66   32  155 1    
    67   33  156 1    
    68   33  157 1    
    69   33  158 1    
    70   34   35 am   BACKBONE|DICT|INTERRES
    71   34  159 1    
    72   35   36 2    
    73   35   37 1    
    74   37   38 1    
    75   37   39 1    
    76   37  160 1    
    77   38  161 1    
    78   38  162 1    
    79   38  163 1    
    80   39   40 am   BACKBONE|DICT|INTERRES
    81   39  164 1    
    82   40   41 2    
    83   40   42 1    
    84   42   43 1    
    85   42   44 1    
    86   42  165 1    
    87   43  166 1    
    88   43  167 1    
    89   43  168 1    
    90   44   45 am   BACKBONE|DICT|INTERRES
    91   44  169 1    
    92   45   46 2    
    93   45   47 1    
    94   47   48 1    
    95   47   49 1    
    96   47  170 1    
    97   48  171 1    
    98   48  172 1    
    99   48  173 1    
   100   49   50 am   BACKBONE|DICT|INTERRES
   101   49  174 1    
   102   50   51 2    
   103   50   52 1    
   104   52   53 1    
   105   52   54 1    
   106   52  175 1    
   107   53  176 1    
   108   53  177 1    
   109   53  178 1    
   110   54   55 am   BACKBONE|DICT|INTERRES
   111   54  179 1    
   112   55   56 2    
   113   55   57 1    
   114   57   58 1    
   115   57   59 1    
   116   57  180 1    
   117   58  181 1    
   118   58  182 1    
   119   58  183 1    
   120   59   60 am   BACKBONE|DICT|INTERRES
   121   59  184 1    
   122   60   61 2    
   123   60   62 1    
   124   62   63 1    
   125   62   64 1    
   126   62  185 1    
   127   63  186 1    
   128   63  187 1    
   129   63  188 1    
   130   64   65 am   BACKBONE|DICT|INTERRES
   131   64  189 1    
   132   65   66 2    
   133   67   68 2    
   134   67   69 am   BACKBONE|DICT|INTERRES
   135   69   70 1    
   136   69  190 1    
   137   70   71 1    
   138   70   72 1    
   139   70  191 1    
   140   71  192 1    
   141   71  193 1    
   142   71  194 1    
   143   72   73 2    
   144   72   74 am   BACKBONE|DICT|INTERRES
   145   74   75 1    
   146   74  195 1    
   147   75   76 1    
   148   75   77 1    
   149   75  196 1    
   150   76  197 1    
   151   76  198 1    
   152   76  199 1    
   153   77   78 2    
   154   77   79 am   BACKBONE|DICT|INTERRES
   155   79   80 1    
   156   79  200 1    
   157   80   81 1    
   158   80   82 1    
   159   80  201 1    
   160   81  202 1    
   161   81  203 1    
   162   81  204 1    
   163   82   83 2    
   164   82   84 am   BACKBONE|DICT|INTERRES
   165   84   85 1    
   166   84  205 1    
   167   85   86 1    
   168   85   87 1    
   169   85  206 1    
   170   86  207 1    
   171   86  208 1    
   172   86  209 1    
   173   87   88 2    
   174   87   89 am   BACKBONE|DICT|INTERRES
   175   89   90 1    
   176   89  210 1    
   177   90   91 1    
   178   90   92 1    
   179   90  211 1    
   180   91  212 1    
   181   91  213 1    
   182   91  214 1    
   183   92   93 2    
   184   92   94 am   BACKBONE|DICT|INTERRES
   185   94   95 1    
   186   94  215 1    
   187   95   96 1    
   188   95   97 1    
   189   95  216 1    
   190   96  217 1    
   191   96  218 1    
   192   96  219 1    
   193   97   98 2    
   194   97   99 am   BACKBONE|DICT|INTERRES
   195   99  100 1    
   196   99  220 1    
   197  100  101 1    
   198  100  102 1    
   199  100  221 1    
   200  101  222 1    
   201  101  223 1    
   202  101  224 1    
   203  102  103 2    
   204  102  104 am   BACKBONE|DICT|INTERRES
   205  104  105 1    
   206  104  225 1    
   207  105  106 1    
   208  105  107 1    
   209  105  226 1    
   210  106  227 1    
   211  106  228 1    
   212  106  229 1    
   213  107  108 2    
   214  107  109 am   BACKBONE|DICT|INTERRES
   215  109  110 1    
   216  109  230 1    
   217  110  111 1    
   218  110  112 1    
   219  110  231 1    
   220  111  232 1    
   221  111  233 1    
   222  111  234 1    
   223  112  113 2    
   224  112  114 am   BACKBONE|DICT|INTERRES
   225  114  115 1    
   226  114  235 1    
   227  115  116 1    
   228  115  117 1    
   229  115  236 1    
   230  116  237 1    
   231  116  238 1    
   232  116  239 1    
   233  117  118 2    
   234  117  119 am   BACKBONE|DICT|INTERRES
   235  119  120 1    
   236  119  240 1    
   237  120  121 1    
   238  120  124 1    
   239  120  241 1    
   240  121  122 am   BACKBONE|DICT|INTERRES
   241  121  123 2    
   242  122  242 1    
   243  122  243 1    
   244  124  125 1    
   245  124  244 1    
   246  124  245 1    
   247  125  126 1    
   248  126  246 1    
   249  126  247 1    
@<TRIPOS>SUBSTRUCTURE
     1 UNK         1 GROUP             0       ****    0 ROOT    
