@<TRIPOS>MOLECULE
3R540
247   249    1
SMALL
USER_CHARGES


@<TRIPOS>ATOM
      1 CA         -3.0589  -12.2378  -48.2343 C.3       0 UNK        -0.1800 
      2 C          -1.9407  -13.0160  -47.5564 C.2       0 UNK         0.5000 
      3 O          -2.1249  -14.1894  -47.2433 O.2       0 UNK        -0.5000 
      4 N          -0.8038  -12.3512  -47.3081 N.am      1 UNK        -0.5000 
      5 CA          0.4702  -12.8303  -46.7409 C.3       1 UNK         0.1400 
      6 C6          1.2644  -13.7752  -47.6900 C.3       23 UNK        -0.0398 
      7 S7          0.8778  -15.5605  -47.5824 S.3       23 UNK        -0.2404 
      8 C8          0.0938  -15.9407  -49.1933 C.3       23 UNK        -0.0205 
      9 C9          0.7110  -17.1124  -49.9657 C.ar      23 UNK        -0.0193 
     10 C10         0.2153  -17.4097  -51.2411 C.ar      23 UNK        -0.1150 
     11 C11         0.7538  -18.4542  -52.0026 C.ar      23 UNK        -0.0193 
     12 C12         1.8011  -19.2130  -51.4701 C.ar      23 UNK        -0.1150 
     13 C13         2.2965  -18.9453  -50.1927 C.ar      23 UNK        -0.0193 
     14 C14         1.7544  -17.8942  -49.4521 C.ar      23 UNK        -0.1150 
     15 C15         3.4347  -19.7770  -49.6230 C.3       23 UNK        -0.0205 
     16 S16         2.8348  -21.2998  -48.8280 S.3       23 UNK        -0.2404 
     17 C17         2.1906  -20.6798  -47.2362 C.3       23 UNK        -0.0398 
     18 CA          0.8288  -21.3128  -46.8641 C.3       11 UNK         0.1400 
     19 N           0.6439  -21.3869  -45.4133 N.am      11 UNK        -0.5000 
     20 C          -0.2931  -22.1273  -44.8061 C.2       10 UNK         0.5000 
     21 O          -1.0751  -22.8640  -45.4075 O.2       10 UNK        -0.5000 
     22 CA         -0.4044  -21.9830  -43.2762 C.3       10 UNK         0.1400 
     23 CB          0.6479  -22.8451  -42.5636 C.3       10 UNK        -0.1800 
     24 N          -0.2793  -20.5918  -42.8383 N.am      10 UNK        -0.5000 
     25 C          -1.1508  -19.6241  -43.1534 C.2       9 UNK         0.5000 
     26 O          -2.1914  -19.8249  -43.7785 O.2       9 UNK        -0.5000 
     27 CA         -0.7772  -18.1852  -42.7545 C.3       9 UNK         0.1400 
     28 CB         -1.1733  -17.8945  -41.3003 C.3       9 UNK        -0.1800 
     29 N           0.6411  -17.8796  -42.9577 N.am      9 UNK        -0.5000 
     30 C           1.2558  -17.8933  -44.1499 C.2       8 UNK         0.5000 
     31 O           0.6829  -18.1385  -45.2062 O.2       8 UNK        -0.5000 
     32 CA          2.7760  -17.6714  -44.1637 C.3       8 UNK         0.1400 
     33 CB          3.1254  -16.1761  -44.1253 C.3       8 UNK        -0.1800 
     34 N           3.4256  -18.3764  -43.0601 N.am      8 UNK        -0.5000 
     35 C           3.5154  -19.7122  -42.9759 C.2       7 UNK         0.5000 
     36 O           3.1175  -20.4797  -43.8528 O.2       7 UNK        -0.5000 
     37 CA          4.1007  -20.2836  -41.6713 C.3       7 UNK         0.1400 
     38 CB          5.6354  -20.2987  -41.7268 C.3       7 UNK        -0.1800 
     39 N           3.6648  -19.5335  -40.4921 N.am      7 UNK        -0.5000 
     40 C           2.4004  -19.4877  -40.0472 C.2       6 UNK         0.5000 
     41 O           1.4811  -20.1369  -40.5443 O.2       6 UNK        -0.5000 
     42 CA          2.1069  -18.5121  -38.8894 C.3       6 UNK         0.1400 
     43 CB          2.2956  -19.2104  -37.5349 C.3       6 UNK        -0.1800 
     44 N           2.9374  -17.3038  -38.9349 N.am      6 UNK        -0.5000 
     45 C           2.9013  -16.3977  -39.9208 C.2       5 UNK         0.5000 
     46 O           2.1285  -16.4624  -40.8792 O.2       5 UNK        -0.5000 
     47 CA          3.9649  -15.2941  -39.8705 C.3       5 UNK         0.1400 
     48 CB          5.3261  -15.8740  -40.3141 C.3       5 UNK        -0.1800 
     49 N           3.5694  -14.1943  -40.7484 N.am      5 UNK        -0.5000 
     50 C           4.1879  -13.0098  -40.8347 C.2       4 UNK         0.5000 
     51 O           5.1369  -12.6799  -40.1218 O.2       4 UNK        -0.5000 
     52 CA          3.6736  -12.0235  -41.8984 C.3       4 UNK         0.1400 
     53 CB          4.2801  -12.3517  -43.2716 C.3       4 UNK        -0.1800 
     54 N           2.2145  -11.9804  -42.0040 N.am      4 UNK        -0.5000 
     55 C           1.4097  -11.4348  -41.0783 C.2       3 UNK         0.5000 
     56 O           1.8208  -10.9612  -40.0181 O.2       3 UNK        -0.5000 
     57 CA         -0.1024  -11.3692  -41.3829 C.3       3 UNK         0.1400 
     58 CB         -0.5023   -9.9468  -41.8053 C.3       3 UNK        -0.1800 
     59 N          -0.5360  -12.3029  -42.4210 N.am      3 UNK        -0.5000 
     60 C          -0.5959  -13.6313  -42.2721 C.2       2 UNK         0.5000 
     61 O          -0.3621  -14.2036  -41.2085 O.2       2 UNK        -0.5000 
     62 CA         -0.9639  -14.4639  -43.5158 C.3       2 UNK         0.1400 
     63 CB         -2.4352  -14.9014  -43.4477 C.3       2 UNK        -0.1800 
     64 N          -0.7322  -13.8187  -44.8118 N.am      2 UNK        -0.5000 
     65 C           0.4247  -13.3290  -45.2744 C.2       1 UNK         0.5000 
     66 O           1.4386  -13.2348  -44.5827 O.2       1 UNK        -0.5000 
     67 C          -0.3678  -20.6279  -47.5639 C.2       11 UNK         0.5000 
     68 O          -0.8258  -21.1205  -48.5926 O.2       11 UNK        -0.5000 
     69 N          -0.9054  -19.5571  -46.9622 N.am      12 UNK        -0.5000 
     70 CA         -2.1178  -18.8643  -47.4016 C.3       12 UNK         0.1400 
     71 CB         -2.3324  -17.5980  -46.5593 C.3       12 UNK        -0.1800 
     72 C          -3.3685  -19.7595  -47.3417 C.2       12 UNK         0.5000 
     73 O          -4.1814  -19.7243  -48.2640 O.2       12 UNK        -0.5000 
     74 N          -3.4909  -20.5708  -46.2813 N.am      13 UNK        -0.5000 
     75 CA         -4.5484  -21.5712  -46.1294 C.3       13 UNK         0.1400 
     76 CB         -4.5150  -22.1569  -44.7102 C.3       13 UNK        -0.1800 
     77 C          -4.4577  -22.6818  -47.1920 C.2       13 UNK         0.5000 
     78 O          -5.4825  -23.0653  -47.7568 O.2       13 UNK        -0.5000 
     79 N          -3.2323  -23.1399  -47.4867 N.am      14 UNK        -0.5000 
     80 CA         -2.9474  -24.0802  -48.5710 C.3       14 UNK         0.1400 
     81 CB         -1.4908  -24.5595  -48.4838 C.3       14 UNK        -0.1800 
     82 C          -3.2608  -23.4884  -49.9584 C.2       14 UNK         0.5000 
     83 O          -3.8604  -24.1769  -50.7814 O.2       14 UNK        -0.5000 
     84 N          -2.9032  -22.2153  -50.1754 N.am      15 UNK        -0.5000 
     85 CA         -3.2061  -21.4476  -51.3854 C.3       15 UNK         0.1400 
     86 CB         -2.4959  -20.0881  -51.3183 C.3       15 UNK        -0.1800 
     87 C          -4.7148  -21.2419  -51.6106 C.2       15 UNK         0.5000 
     88 O          -5.1671  -21.2813  -52.7536 O.2       15 UNK        -0.5000 
     89 N          -5.4661  -21.0317  -50.5212 N.am      16 UNK        -0.5000 
     90 CA         -6.9234  -20.9179  -50.5304 C.3       16 UNK         0.1400 
     91 CB         -7.4039  -20.3487  -49.1869 C.3       16 UNK        -0.1800 
     92 C          -7.6154  -22.2582  -50.8381 C.2       16 UNK         0.5000 
     93 O          -8.6235  -22.2667  -51.5446 O.2       16 UNK        -0.5000 
     94 N          -7.0629  -23.3623  -50.3149 N.am      17 UNK        -0.5000 
     95 CA         -7.5235  -24.7243  -50.5833 C.3       17 UNK         0.1400 
     96 CB         -6.8945  -25.6936  -49.5699 C.3       17 UNK        -0.1800 
     97 C          -7.2238  -25.1528  -52.0311 C.2       17 UNK         0.5000 
     98 O          -8.1356  -25.5610  -52.7520 O.2       17 UNK        -0.5000 
     99 N          -5.9604  -25.0092  -52.4490 N.am      18 UNK        -0.5000 
    100 CA        -5.4800  -25.2661  -53.8052 C.3       18 UNK         0.1400 
    101 CB        -4.0174  -25.7383  -53.7339 C.3       18 UNK        -0.1800 
    102 C         -5.6606  -24.0092  -54.6775 C.2       18 UNK         0.5000 
    103 O         -4.6829  -23.4480  -55.1774 O.2       18 UNK        -0.5000 
    104 N         -6.9231  -23.5887  -54.8330 N.am      19 UNK        -0.5000 
    105 CA        -7.3560  -22.3414  -55.4719 C.3       19 UNK         0.1400 
    106 CB        -8.8747  -22.2004  -55.2850 C.3       19 UNK        -0.1800 
    107 C         -6.9868  -22.1908  -56.9623 C.2       19 UNK         0.5000 
    108 O         -7.0702  -21.0812  -57.4922 O.2       19 UNK        -0.5000 
    109 N         -6.5822  -23.2876  -57.6156 N.am      20 UNK        -0.5000 
    110 CA        -6.1074  -23.3515  -58.9979 C.3       20 UNK         0.1400 
    111 CB        -6.1518  -24.8194  -59.4597 C.3       20 UNK        -0.1800 
    112 C         -4.7084  -22.7158  -59.1683 C.2       20 UNK         0.5000 
    113 O         -3.7444  -23.4137  -59.4876 O.2       20 UNK        -0.5000 
    114 N         -4.6375  -21.3957  -58.9488 N.am      21 UNK        -0.5000 
    115 CA        -3.4681  -20.5208  -59.0788 C.3       21 UNK         0.1400 
    116 CB        -3.0209  -20.4262  -60.5534 C.3       21 UNK        -0.1800 
    117 C         -2.3191  -20.8892  -58.1161 C.2       21 UNK         0.5000 
    118 O         -1.1579  -20.9248  -58.5277 O.2       21 UNK        -0.5000 
    119 N         -2.6681  -21.1315  -56.8443 N.am      22 UNK        -0.5000 
    120 CA        -1.7511  -21.5154  -55.7582 C.3       22 UNK         0.1400 
    121 C         -1.1718  -22.9454  -55.9670 C.2       22 UNK         0.5000 
    122 N         -2.0260  -23.9582  -55.9877 N.am      22 UNK        -0.7600 
    123 O          0.0297  -23.1487  -56.1249 O.2       22 UNK        -0.5000 
    124 C124       -0.6746  -20.4273  -55.4710 C.3       23 UNK        -0.0398 
    125 S125       -0.0404  -20.4955  -53.7619 S.3       23 UNK        -0.2404 
    126 C126        0.2292  -18.7237  -53.4117 C.3       23 UNK        -0.0205 
    127 H127       -3.3279  -12.7152  -49.1765 H         1 UNK         0.0600 
    128 H128       -2.7690  -11.2082  -48.4453 H         1 UNK         0.0600 
    129 H129       -3.9425  -12.2190  -47.5963 H         1 UNK         0.0600 
    130 H130       -0.7821  -11.3746  -47.5674 H         1 UNK         0.3000 
    131 H131        1.0617  -11.9149  -46.6841 H         1 UNK         0.0600 
    132 H132        2.3263  -13.6854  -47.4555 H         1 UNK         0.0800 
    133 H133        1.1776  -13.4296  -48.7200 H         1 UNK         0.0800 
    134 H134        0.1073  -15.0580  -49.8325 H         1 UNK         0.0800 
    135 H135       -0.9578  -16.1626  -49.0078 H         1 UNK         0.0800 
    136 H136       -0.5881  -16.8121  -51.6487 H         1 UNK         0.1150 
    137 H137        2.2322  -20.0172  -52.0495 H         1 UNK         0.1150 
    138 H138        2.1624  -17.6931  -48.4741 H         1 UNK         0.1150 
    139 H139        4.1211  -20.0498  -50.4260 H         1 UNK         0.0800 
    140 H140        4.0212  -19.1948  -48.9104 H         1 UNK         0.0800 
    141 H141        2.1371  -19.5917  -47.2201 H         1 UNK         0.0800 
    142 H142        2.9399  -20.9443  -46.4892 H         1 UNK         0.0800 
    143 H143        0.8425  -22.3484  -47.2115 H         1 UNK         0.0600 
    144 H144        1.2690  -20.8278  -44.8441 H         1 UNK         0.3000 
    145 H145       -1.3928  -22.3402  -42.9799 H         1 UNK         0.0600 
    146 H146        0.5315  -22.7929  -41.4809 H         1 UNK         0.0600 
    147 H147        1.6624  -22.5277  -42.8051 H         1 UNK         0.0600 
    148 H148        0.5537  -23.8928  -42.8518 H         1 UNK         0.0600 
    149 H149        0.5184  -20.3611  -42.2539 H         1 UNK         0.3000 
    150 H150       -1.3488  -17.5186  -43.4000 H         1 UNK         0.0600 
    151 H151       -2.2504  -17.9986  -41.1646 H         1 UNK         0.0600 
    152 H152       -0.9047  -16.8787  -41.0109 H         1 UNK         0.0600 
    153 H153       -0.6902  -18.5794  -40.6049 H         1 UNK         0.0600 
    154 H154        1.1779  -17.6123  -42.1380 H         1 UNK         0.3000 
    155 H155        3.1652  -18.0796  -45.0992 H         1 UNK         0.0600 
    156 H156        2.6808  -15.6695  -43.2699 H         1 UNK         0.0600 
    157 H157        2.7562  -15.6748  -45.0205 H         1 UNK         0.0600 
    158 H158        4.2033  -16.0193  -44.0879 H         1 UNK         0.0600 
    159 H159        3.7214  -17.8169  -42.2752 H         1 UNK         0.3000 
    160 H160        3.7503  -21.3131  -41.5706 H         1 UNK         0.0600 
    161 H161        6.0476  -19.2916  -41.8028 H         1 UNK         0.0600 
    162 H162        5.9885  -20.8643  -42.5901 H         1 UNK         0.0600 
    163 H163        6.0572  -20.7681  -40.8378 H         1 UNK         0.0600 
    164 H164        4.3631  -18.9822  -40.0165 H         1 UNK         0.3000 
    165 H165        1.0629  -18.2040  -38.9717 H         1 UNK         0.0600 
    166 H166        2.0150  -18.5545  -36.7105 H         1 UNK         0.0600 
    167 H167        1.6711  -20.1022  -37.4657 H         1 UNK         0.0600 
    168 H168        3.3298  -19.5210  -37.3810 H         1 UNK         0.0600 
    169 H169        3.6031  -17.1875  -38.1842 H         1 UNK         0.3000 
    170 H170        4.0324  -14.9228  -38.8461 H         1 UNK         0.0600 
    171 H171        5.3025  -16.1996  -41.3548 H         1 UNK         0.0600 
    172 H172        6.1285  -15.1437  -40.2142 H         1 UNK         0.0600 
    173 H173        5.6106  -16.7339  -39.7068 H         1 UNK         0.0600 
    174 H174        2.7599  -14.3878  -41.3254 H         1 UNK         0.3000 
    175 H175        4.0174  -11.0261  -41.6156 H         1 UNK         0.0600 
    176 H176        3.9851  -13.3431  -43.6161 H         1 UNK         0.0600 
    177 H177        3.9667  -11.6291  -44.0252 H         1 UNK         0.0600 
    178 H178        5.3698  -12.3301  -43.2323 H         1 UNK         0.0600 
    179 H179        1.8107  -12.3649  -42.8533 H         1 UNK         0.3000 
    180 H180       -0.6326  -11.6128  -40.4597 H         1 UNK         0.0600 
    181 H181       -1.5793   -9.8670  -41.9543 H         1 UNK         0.0600 
    182 H182       -0.0108   -9.6499  -42.7327 H         1 UNK         0.0600 
    183 H183       -0.2272   -9.2192  -41.0406 H         1 UNK         0.0600 
    184 H184       -0.7389  -11.9156  -43.3306 H         1 UNK         0.3000 
    185 H185       -0.3326  -15.3513  -43.4932 H         1 UNK         0.0600 
    186 H186       -3.1087  -14.0453  -43.5005 H         1 UNK         0.0600 
    187 H187       -2.6861  -15.5737  -44.2682 H         1 UNK         0.0600 
    188 H188       -2.6474  -15.4295  -42.5172 H         1 UNK         0.0600 
    189 H189       -1.4752  -13.9126  -45.4987 H         1 UNK         0.3000 
    190 H190       -0.4224  -19.1546  -46.1606 H         1 UNK         0.3000 
    191 H191       -1.9635  -18.5622  -48.4391 H         1 UNK         0.0600 
    192 H192       -1.4525  -16.9572  -46.5673 H         1 UNK         0.0600 
    193 H193       -2.5579  -17.8356  -45.5206 H         1 UNK         0.0600 
    194 H194       -3.1637  -17.0087  -46.9478 H         1 UNK         0.0600 
    195 H195       -2.8209  -20.4896  -45.5223 H         1 UNK         0.3000 
    196 H196       -5.5066  -21.0647  -46.2616 H         1 UNK         0.0600 
    197 H197       -4.6420  -21.3766  -43.9595 H         1 UNK         0.0600 
    198 H198       -3.5750  -22.6679  -44.5038 H         1 UNK         0.0600 
    199 H199       -5.3193  -22.8797  -44.5684 H         1 UNK         0.0600 
    200 H200       -2.4410  -22.8053  -46.9470 H         1 UNK         0.3000 
    201 H201       -3.5928  -24.9498  -48.4304 H         1 UNK         0.0600 
    202 H202       -1.2832  -25.0153  -47.5155 H         1 UNK         0.0600 
    203 H203       -0.7837  -23.7431  -48.6264 H         1 UNK         0.0600 
    204 H204       -1.2827  -25.3085  -49.2487 H         1 UNK         0.0600 
    205 H205       -2.3406  -21.7437  -49.4707 H         1 UNK         0.3000 
    206 H206       -2.8095  -22.0031  -52.2379 H         1 UNK         0.0600 
    207 H207       -2.9010  -19.4532  -50.5320 H         1 UNK         0.0600 
    208 H208       -1.4298  -20.2084  -51.1281 H         1 UNK         0.0600 
    209 H209       -2.6042  -19.5472  -52.2589 H         1 UNK         0.0600 
    210 H210       -5.0016  -20.9149  -49.6260 H         1 UNK         0.3000 
    211 H211       -7.2027  -20.2119  -51.3152 H         1 UNK         0.0600 
    212 H212       -7.1431  -21.0022  -48.3544 H         1 UNK         0.0600 
    213 H213       -8.4875  -20.2253  -49.1808 H         1 UNK         0.0600 
    214 H214       -6.9634  -19.3704  -48.9938 H         1 UNK         0.0600 
    215 H215       -6.2664  -23.2612  -49.6956 H         1 UNK         0.3000 
    216 H216       -8.6063  -24.7508  -50.4440 H         1 UNK         0.0600 
    217 H217       -7.2402  -26.7139  -49.7400 H         1 UNK         0.0600 
    218 H218       -7.1650  -25.4236  -48.5489 H         1 UNK         0.0600 
    219 H219       -5.8064  -25.7006  -49.6336 H         1 UNK         0.0600 
    220 H220       -5.2665  -24.6409  -51.7994 H         1 UNK         0.3000 
    221 H221       -6.0656  -26.0704  -54.2551 H         1 UNK         0.0600 
    222 H222       -3.3579  -24.9591  -53.3493 H         1 UNK         0.0600 
    223 H223       -3.9157  -26.6094  -53.0867 H         1 UNK         0.0600 
    224 H224       -3.6526  -26.0240  -54.7207 H         1 UNK         0.0600 
    225 H225       -7.6466  -24.1226  -54.3671 H         1 UNK         0.3000 
    226 H226       -6.8696  -21.5207  -54.9416 H         1 UNK         0.0600 
    227 H227       -9.1450  -22.2041  -54.2292 H         1 UNK         0.0600 
    228 H228       -9.2382  -21.2623  -55.7066 H         1 UNK         0.0600 
    229 H229       -9.4156  -23.0121  -55.7729 H         1 UNK         0.0600 
    230 H230       -6.5185  -24.1429  -57.0846 H         1 UNK         0.3000 
    231 H231       -6.7985  -22.7862  -59.6267 H         1 UNK         0.0600 
    232 H232       -5.8315  -24.9126  -60.4982 H         1 UNK         0.0600 
    233 H233       -7.1628  -25.2222  -59.3966 H         1 UNK         0.0600 
    234 H234       -5.5001  -25.4521  -58.8557 H         1 UNK         0.0600 
    235 H235       -5.4890  -20.9482  -58.6206 H         1 UNK         0.3000 
    236 H236       -3.8012  -19.5263  -58.7785 H         1 UNK         0.0600 
    237 H237       -2.6280  -21.3749  -60.9205 H         1 UNK         0.0600 
    238 H238       -3.8493  -20.1340  -61.1987 H         1 UNK         0.0600 
    239 H239       -2.2365  -19.6786  -60.6766 H         1 UNK         0.0600 
    240 H240       -3.6496  -21.1316  -56.6066 H         1 UNK         0.3000 
    241 H241       -2.3846  -21.5799  -54.8719 H         1 UNK         0.0600 
    242 H242       -1.6851  -24.8934  -56.1372 H         1 UNK         0.3800 
    243 H243       -3.0164  -23.7956  -55.8145 H         1 UNK         0.3800 
    244 H244       -1.1098  -19.4398  -55.6282 H         1 UNK         0.0800 
    245 H245        0.1618  -20.4967  -56.1682 H         1 UNK         0.0800 
    246 H246       -0.7098  -18.1912  -53.5703 H         1 UNK         0.0800 
    247 H247        0.9432  -18.3222  -54.1319 H         1 UNK         0.0800 
@<TRIPOS>BOND
     1    1    2 1    
     2    1  127 1    
     3    1  128 1    
     4    1  129 1    
     5    2    3 2    
     6    2    4 am   BACKBONE|DICT|INTERRES
     7    4    5 1    
     8    4  130 1    
     9    5    6 1    
    10    5   65 1    
    11    5  131 1    
    12    6    7 1    
    13    6  132 1    
    14    6  133 1    
    15    7    8 1    
    16    8    9 1    
    17    8  134 1    
    18    8  135 1    
    19    9   10 ar   
    20    9   14 ar   
    21   10   11 ar   
    22   10  136 1    
    23   11   12 ar   
    24   11  126 1    
    25   12   13 ar   
    26   12  137 1    
    27   13   14 ar   
    28   13   15 1    
    29   14  138 1    
    30   15   16 1    
    31   15  139 1    
    32   15  140 1    
    33   16   17 1    
    34   17   18 1    
    35   17  141 1    
    36   17  142 1    
    37   18   19 1    
    38   18   67 1    
    39   18  143 1    
    40   19   20 am   BACKBONE|DICT|INTERRES
    41   19  144 1    
    42   20   21 2    
    43   20   22 1    
    44   22   23 1    
    45   22   24 1    
    46   22  145 1    
    47   23  146 1    
    48   23  147 1    
    49   23  148 1    
    50   24   25 am   BACKBONE|DICT|INTERRES
    51   24  149 1    
    52   25   26 2    
    53   25   27 1    
    54   27   28 1    
    55   27   29 1    
    56   27  150 1    
    57   28  151 1    
    58   28  152 1    
    59   28  153 1    
    60   29   30 am   BACKBONE|DICT|INTERRES
    61   29  154 1    
    62   30   31 2    
    63   30   32 1    
    64   32   33 1    
    65   32   34 1    
    66   32  155 1    
    67   33  156 1    
    68   33  157 1    
    69   33  158 1    
    70   34   35 am   BACKBONE|DICT|INTERRES
    71   34  159 1    
    72   35   36 2    
    73   35   37 1    
    74   37   38 1    
    75   37   39 1    
    76   37  160 1    
    77   38  161 1    
    78   38  162 1    
    79   38  163 1    
    80   39   40 am   BACKBONE|DICT|INTERRES
    81   39  164 1    
    82   40   41 2    
    83   40   42 1    
    84   42   43 1    
    85   42   44 1    
    86   42  165 1    
    87   43  166 1    
    88   43  167 1    
    89   43  168 1    
    90   44   45 am   BACKBONE|DICT|INTERRES
    91   44  169 1    
    92   45   46 2    
    93   45   47 1    
    94   47   48 1    
    95   47   49 1    
    96   47  170 1    
    97   48  171 1    
    98   48  172 1    
    99   48  173 1    
   100   49   50 am   BACKBONE|DICT|INTERRES
   101   49  174 1    
   102   50   51 2    
   103   50   52 1    
   104   52   53 1    
   105   52   54 1    
   106   52  175 1    
   107   53  176 1    
   108   53  177 1    
   109   53  178 1    
   110   54   55 am   BACKBONE|DICT|INTERRES
   111   54  179 1    
   112   55   56 2    
   113   55   57 1    
   114   57   58 1    
   115   57   59 1    
   116   57  180 1    
   117   58  181 1    
   118   58  182 1    
   119   58  183 1    
   120   59   60 am   BACKBONE|DICT|INTERRES
   121   59  184 1    
   122   60   61 2    
   123   60   62 1    
   124   62   63 1    
   125   62   64 1    
   126   62  185 1    
   127   63  186 1    
   128   63  187 1    
   129   63  188 1    
   130   64   65 am   BACKBONE|DICT|INTERRES
   131   64  189 1    
   132   65   66 2    
   133   67   68 2    
   134   67   69 am   BACKBONE|DICT|INTERRES
   135   69   70 1    
   136   69  190 1    
   137   70   71 1    
   138   70   72 1    
   139   70  191 1    
   140   71  192 1    
   141   71  193 1    
   142   71  194 1    
   143   72   73 2    
   144   72   74 am   BACKBONE|DICT|INTERRES
   145   74   75 1    
   146   74  195 1    
   147   75   76 1    
   148   75   77 1    
   149   75  196 1    
   150   76  197 1    
   151   76  198 1    
   152   76  199 1    
   153   77   78 2    
   154   77   79 am   BACKBONE|DICT|INTERRES
   155   79   80 1    
   156   79  200 1    
   157   80   81 1    
   158   80   82 1    
   159   80  201 1    
   160   81  202 1    
   161   81  203 1    
   162   81  204 1    
   163   82   83 2    
   164   82   84 am   BACKBONE|DICT|INTERRES
   165   84   85 1    
   166   84  205 1    
   167   85   86 1    
   168   85   87 1    
   169   85  206 1    
   170   86  207 1    
   171   86  208 1    
   172   86  209 1    
   173   87   88 2    
   174   87   89 am   BACKBONE|DICT|INTERRES
   175   89   90 1    
   176   89  210 1    
   177   90   91 1    
   178   90   92 1    
   179   90  211 1    
   180   91  212 1    
   181   91  213 1    
   182   91  214 1    
   183   92   93 2    
   184   92   94 am   BACKBONE|DICT|INTERRES
   185   94   95 1    
   186   94  215 1    
   187   95   96 1    
   188   95   97 1    
   189   95  216 1    
   190   96  217 1    
   191   96  218 1    
   192   96  219 1    
   193   97   98 2    
   194   97   99 am   BACKBONE|DICT|INTERRES
   195   99  100 1    
   196   99  220 1    
   197  100  101 1    
   198  100  102 1    
   199  100  221 1    
   200  101  222 1    
   201  101  223 1    
   202  101  224 1    
   203  102  103 2    
   204  102  104 am   BACKBONE|DICT|INTERRES
   205  104  105 1    
   206  104  225 1    
   207  105  106 1    
   208  105  107 1    
   209  105  226 1    
   210  106  227 1    
   211  106  228 1    
   212  106  229 1    
   213  107  108 2    
   214  107  109 am   BACKBONE|DICT|INTERRES
   215  109  110 1    
   216  109  230 1    
   217  110  111 1    
   218  110  112 1    
   219  110  231 1    
   220  111  232 1    
   221  111  233 1    
   222  111  234 1    
   223  112  113 2    
   224  112  114 am   BACKBONE|DICT|INTERRES
   225  114  115 1    
   226  114  235 1    
   227  115  116 1    
   228  115  117 1    
   229  115  236 1    
   230  116  237 1    
   231  116  238 1    
   232  116  239 1    
   233  117  118 2    
   234  117  119 am   BACKBONE|DICT|INTERRES
   235  119  120 1    
   236  119  240 1    
   237  120  121 1    
   238  120  124 1    
   239  120  241 1    
   240  121  122 am   BACKBONE|DICT|INTERRES
   241  121  123 2    
   242  122  242 1    
   243  122  243 1    
   244  124  125 1    
   245  124  244 1    
   246  124  245 1    
   247  125  126 1    
   248  126  246 1    
   249  126  247 1    
@<TRIPOS>SUBSTRUCTURE
     1 UNK         1 GROUP             0       ****    0 ROOT    
