@<TRIPOS>MOLECULE
3R540
247   249    1
SMALL
USER_CHARGES


@<TRIPOS>ATOM
      1 CA         -3.5238  -14.7668  -45.8590 C.3       0 UNK        -0.1800 
      2 C          -2.1495  -14.9349  -45.2171 C.2       0 UNK         0.5000 
      3 O          -1.9347  -15.9106  -44.5026 O.2       0 UNK        -0.5000 
      4 N          -1.1901  -14.0310  -45.4428 N.am      1 UNK        -0.5000 
      5 CA         -1.2499  -12.8720  -46.3335 C.3       1 UNK         0.1400 
      6 C6         -0.2875  -13.0319  -47.5382 C.3       23 UNK        -0.0398 
      7 S7         -0.8784  -14.2821  -48.7300 S.3       23 UNK        -0.2404 
      8 C8         -0.0032  -15.7755  -48.1503 C.3       23 UNK        -0.0205 
      9 C9         -0.5732  -17.0763  -48.7087 C.ar      23 UNK        -0.0193 
     10 C10        -1.9547  -17.2863  -48.7880 C.ar      23 UNK        -0.1150 
     11 C11        -2.4687  -18.4965  -49.2603 C.ar      23 UNK        -0.0193 
     12 C12        -1.5913  -19.5110  -49.6471 C.ar      23 UNK        -0.1150 
     13 C13        -0.2095  -19.3182  -49.5737 C.ar      23 UNK        -0.0193 
     14 C14         0.2926  -18.1011  -49.1029 C.ar      23 UNK        -0.1150 
     15 C15         0.7427  -20.4201  -50.0099 C.3       23 UNK        -0.0205 
     16 S16         1.2814  -21.4366  -48.6027 S.3       23 UNK        -0.2404 
     17 C17        -0.2441  -22.3619  -48.2285 C.3       23 UNK        -0.0398 
     18 CA          0.0396  -23.5700  -47.3100 C.3       11 UNK         0.1400 
     19 N           0.4150  -23.1734  -45.9528 N.am      11 UNK        -0.5000 
     20 C           0.8739  -24.0104  -45.0131 C.2       10 UNK         0.5000 
     21 O           1.0728  -25.2100  -45.2026 O.2       10 UNK        -0.5000 
     22 CA          1.0919  -23.4178  -43.6117 C.3       10 UNK         0.1400 
     23 CB          2.4214  -22.6519  -43.5335 C.3       10 UNK        -0.1800 
     24 N          -0.0100  -22.5397  -43.2192 N.am      10 UNK        -0.5000 
     25 C          -1.2533  -22.9617  -42.9493 C.2       9 UNK         0.5000 
     26 O          -1.5933  -24.1454  -42.9643 O.2       9 UNK        -0.5000 
     27 CA         -2.2979  -21.8707  -42.6492 C.3       9 UNK         0.1400 
     28 CB         -2.1965  -21.4059  -41.1888 C.3       9 UNK        -0.1800 
     29 N          -2.1693  -20.7127  -43.5349 N.am      9 UNK        -0.5000 
     30 C          -2.4178  -20.7392  -44.8523 C.2       8 UNK         0.5000 
     31 O          -2.8091  -21.7371  -45.4540 O.2       8 UNK        -0.5000 
     32 CA         -2.1362  -19.4501  -45.6437 C.3       8 UNK         0.1400 
     33 CB         -3.3758  -18.5463  -45.6370 C.3       8 UNK        -0.1800 
     34 N          -0.9664  -18.7091  -45.1620 N.am      8 UNK        -0.5000 
     35 C           0.2729  -19.2227  -45.1061 C.2       7 UNK         0.5000 
     36 O           0.5416  -20.3743  -45.4443 O.2       7 UNK        -0.5000 
     37 CA          1.4062  -18.3457  -44.5500 C.3       7 UNK         0.1400 
     38 CB          2.3077  -17.8354  -45.6837 C.3       7 UNK        -0.1800 
     39 N           0.9553  -17.2101  -43.7514 N.am      7 UNK        -0.5000 
     40 C           0.3766  -17.2681  -42.5468 C.2       6 UNK         0.5000 
     41 O           0.0783  -18.3289  -41.9935 O.2       6 UNK        -0.5000 
     42 CA          0.1264  -15.9108  -41.8417 C.3       6 UNK         0.1400 
     43 CB         -0.3810  -16.0834  -40.3988 C.3       6 UNK        -0.1800 
     44 N           1.3149  -15.0486  -41.8215 N.am      6 UNK        -0.5000 
     45 C           1.8403  -14.3988  -42.8689 C.2       5 UNK         0.5000 
     46 O           1.3532  -14.4332  -44.0039 O.2       5 UNK        -0.5000 
     47 CA          3.1635  -13.6566  -42.6096 C.3       5 UNK         0.1400 
     48 CB          4.3006  -14.6622  -42.3582 C.3       5 UNK        -0.1800 
     49 N           3.5276  -12.8411  -43.7651 N.am      5 UNK        -0.5000 
     50 C           3.2812  -11.5344  -43.9034 C.2       4 UNK         0.5000 
     51 O           2.8052  -10.8298  -43.0101 O.2       4 UNK        -0.5000 
     52 CA          3.6464  -10.8973  -45.2576 C.3       4 UNK         0.1400 
     53 CB          3.9618  -11.9122  -46.3783 C.3       4 UNK        -0.1800 
     54 N           2.5573  -10.0287  -45.6919 N.am      4 UNK        -0.5000 
     55 C           2.7075   -8.8521  -46.3140 C.2       3 UNK         0.5000 
     56 O           3.8074   -8.3542  -46.5607 O.2       3 UNK        -0.5000 
     57 CA          1.4349   -8.1051  -46.7700 C.3       3 UNK         0.1400 
     58 CB          1.3715   -8.0380  -48.3050 C.3       3 UNK        -0.1800 
     59 N           0.1949   -8.7121  -46.2861 N.am      3 UNK        -0.5000 
     60 C          -0.3139   -8.5541  -45.0577 C.2       2 UNK         0.5000 
     61 O           0.1755   -7.8129  -44.2050 O.2       2 UNK        -0.5000 
     62 CA         -1.5735   -9.3787  -44.7199 C.3       2 UNK         0.1400 
     63 CB         -2.8364   -8.5183  -44.8805 C.3       2 UNK        -0.1800 
     64 N          -1.7285  -10.6058  -45.5138 N.am      2 UNK        -0.5000 
     65 C          -0.8789  -11.6423  -45.4925 C.2       1 UNK         0.5000 
     66 O           0.1733  -11.6419  -44.8550 O.2       1 UNK        -0.5000 
     67 C          -1.1369  -24.5631  -47.3088 C.2       11 UNK         0.5000 
     68 O          -1.0564  -25.5690  -48.0091 O.2       11 UNK        -0.5000 
     69 N          -2.1712  -24.3162  -46.4916 N.am      12 UNK        -0.5000 
     70 CA         -3.3132  -25.2173  -46.3172 C.3       12 UNK         0.1400 
     71 CB         -4.3690  -24.5599  -45.4162 C.3       12 UNK        -0.1800 
     72 C          -2.9121  -26.5988  -45.7678 C.2       12 UNK         0.5000 
     73 O          -3.4094  -27.6108  -46.2623 O.2       12 UNK        -0.5000 
     74 N          -1.9882  -26.6218  -44.7960 N.am      13 UNK        -0.5000 
     75 CA         -1.4083  -27.8452  -44.2360 C.3       13 UNK         0.1400 
     76 CB         -0.5923  -27.4972  -42.9819 C.3       13 UNK        -0.1800 
     77 C          -0.5495  -28.6240  -45.2532 C.2       13 UNK         0.5000 
     78 O          -0.5858  -29.8549  -45.2634 O.2       13 UNK        -0.5000 
     79 N           0.1843  -27.8956  -46.1050 N.am      14 UNK        -0.5000 
     80 CA          1.0058  -28.4386  -47.1901 C.3       14 UNK         0.1400 
     81 CB          2.0593  -27.3881  -47.5777 C.3       14 UNK        -0.1800 
     82 C           0.1967  -28.8655  -48.4342 C.2       14 UNK         0.5000 
     83 O           0.7622  -29.5101  -49.3184 O.2       14 UNK        -0.5000 
     84 N          -1.0877  -28.4828  -48.4936 N.am      15 UNK        -0.5000 
     85 CA         -2.0146  -28.6153  -49.6239 C.3       15 UNK         0.1400 
     86 CB         -2.2948  -30.0971  -49.9510 C.3       15 UNK        -0.1800 
     87 C          -1.5769  -27.7849  -50.8525 C.2       15 UNK         0.5000 
     88 O          -1.7449  -28.2196  -51.9937 O.2       15 UNK        -0.5000 
     89 N          -1.0265  -26.5967  -50.5845 N.am      16 UNK        -0.5000 
     90 CA         -0.6168  -25.5863  -51.5539 C.3       16 UNK         0.1400 
     91 CB          0.7911  -25.0996  -51.1685 C.3       16 UNK        -0.1800 
     92 C          -1.6146  -24.4136  -51.5459 C.2       16 UNK         0.5000 
     93 O          -2.4660  -24.3220  -50.6577 O.2       16 UNK        -0.5000 
     94 N          -1.4775  -23.5170  -52.5262 N.am      17 UNK        -0.5000 
     95 CA         -2.2773  -22.3057  -52.6710 C.3       17 UNK         0.1400 
     96 CB         -3.5310  -22.6111  -53.5088 C.3       17 UNK        -0.1800 
     97 C          -1.4297  -21.2235  -53.3499 C.2       17 UNK         0.5000 
     98 O          -0.5081  -21.5518  -54.1025 O.2       17 UNK        -0.5000 
     99 N          -1.7810  -19.9581  -53.0985 N.am      18 UNK        -0.5000 
    100 CA        -1.2812  -18.8026  -53.8422 C.3       18 UNK         0.1400 
    101 CB        -1.3584  -17.5605  -52.9372 C.3       18 UNK        -0.1800 
    102 C         -2.1056  -18.6002  -55.1297 C.2       18 UNK         0.5000 
    103 O         -3.1003  -19.2983  -55.3486 O.2       18 UNK        -0.5000 
    104 N         -1.7135  -17.6077  -55.9408 N.am      19 UNK        -0.5000 
    105 CA        -2.3602  -17.2279  -57.2061 C.3       19 UNK         0.1400 
    106 CB        -1.5486  -16.0968  -57.8562 C.3       19 UNK        -0.1800 
    107 C         -3.8468  -16.8225  -57.0839 C.2       19 UNK         0.5000 
    108 O         -4.5713  -16.8660  -58.0787 O.2       19 UNK        -0.5000 
    109 N         -4.2801  -16.4669  -55.8669 N.am      20 UNK        -0.5000 
    110 CA        -5.6722  -16.2091  -55.4967 C.3       20 UNK         0.1400 
    111 CB        -5.6837  -15.4968  -54.1340 C.3       20 UNK        -0.1800 
    112 C         -6.5547  -17.4771  -55.4429 C.2       20 UNK         0.5000 
    113 O         -7.7752  -17.3413  -55.3500 O.2       20 UNK        -0.5000 
    114 N         -5.9381  -18.6716  -55.4752 N.am      21 UNK        -0.5000 
    115 CA        -6.5572  -19.9987  -55.3500 C.3       21 UNK         0.1400 
    116 CB        -7.5229  -20.2836  -56.5192 C.3       21 UNK        -0.1800 
    117 C         -7.1924  -20.2258  -53.9607 C.2       21 UNK         0.5000 
    118 O         -8.2212  -20.8922  -53.8389 O.2       21 UNK        -0.5000 
    119 N         -6.5505  -19.6554  -52.9361 N.am      22 UNK        -0.5000 
    120 CA        -6.9565  -19.6659  -51.5222 C.3       22 UNK         0.1400 
    121 C         -6.6870  -20.9918  -50.7483 C.2       22 UNK         0.5000 
    122 N         -6.1539  -22.0342  -51.3710 N.am      22 UNK        -0.7600 
    123 O         -6.9800  -21.0812  -49.5594 O.2       22 UNK        -0.5000 
    124 C124       -6.3855  -18.4264  -50.7835 C.3       23 UNK        -0.0398 
    125 S125       -4.5815  -18.2143  -50.9905 S.3       23 UNK        -0.2404 
    126 C126       -3.9704  -18.7049  -49.3522 C.3       23 UNK        -0.0205 
    127 H127       -3.9732  -13.8177  -45.5676 H         1 UNK         0.0600 
    128 H128       -4.1973  -15.5611  -45.5375 H         1 UNK         0.0600 
    129 H129       -3.4520  -14.8067  -46.9455 H         1 UNK         0.0600 
    130 H130       -0.3066  -14.1173  -44.9453 H         1 UNK         0.3000 
    131 H131       -2.2566  -12.7147  -46.7213 H         1 UNK         0.0600 
    132 H132       -0.1974  -12.0906  -48.0834 H         1 UNK         0.0800 
    133 H133        0.7204  -13.2864  -47.2047 H         1 UNK         0.0800 
    134 H134        1.0518  -15.6767  -48.4101 H         1 UNK         0.0800 
    135 H135       -0.0501  -15.8336  -47.0643 H         1 UNK         0.0800 
    136 H136       -2.6361  -16.5070  -48.4802 H         1 UNK         0.1150 
    137 H137       -1.9853  -20.4505  -50.0039 H         1 UNK         0.1150 
    138 H138        1.3619  -17.9586  -49.0346 H         1 UNK         0.1150 
    139 H139        0.2810  -21.0534  -50.7684 H         1 UNK         0.0800 
    140 H140        1.6215  -19.9773  -50.4807 H         1 UNK         0.0800 
    141 H141       -0.6786  -22.6895  -49.1742 H         1 UNK         0.0800 
    142 H142       -0.9698  -21.6903  -47.7685 H         1 UNK         0.0800 
    143 H143        0.8931  -24.1085  -47.7271 H         1 UNK         0.0600 
    144 H144        0.3379  -22.1822  -45.7325 H         1 UNK         0.3000 
    145 H145        1.1361  -24.2465  -42.9016 H         1 UNK         0.0600 
    146 H146        2.5977  -22.2696  -42.5280 H         1 UNK         0.0600 
    147 H147        2.4469  -21.8075  -44.2226 H         1 UNK         0.0600 
    148 H148        3.2591  -23.3035  -43.7851 H         1 UNK         0.0600 
    149 H149        0.1692  -21.5466  -43.2430 H         1 UNK         0.3000 
    150 H150       -3.2875  -22.3069  -42.8009 H         1 UNK         0.0600 
    151 H151       -2.2942  -22.2485  -40.5030 H         1 UNK         0.0600 
    152 H152       -2.9875  -20.6961  -40.9459 H         1 UNK         0.0600 
    153 H153       -1.2397  -20.9233  -40.9842 H         1 UNK         0.0600 
    154 H154       -1.8178  -19.8576  -43.1260 H         1 UNK         0.3000 
    155 H155       -1.9333  -19.7391  -46.6758 H         1 UNK         0.0600 
    156 H156       -4.2537  -19.0818  -46.0009 H         1 UNK         0.0600 
    157 H157       -3.2335  -17.6842  -46.2855 H         1 UNK         0.0600 
    158 H158       -3.6029  -18.1805  -44.6350 H         1 UNK         0.0600 
    159 H159       -1.1235  -17.7539  -44.8555 H         1 UNK         0.3000 
    160 H160        2.0107  -18.9843  -43.9027 H         1 UNK         0.0600 
    161 H161        1.7772  -17.1487  -46.3410 H         1 UNK         0.0600 
    162 H162        2.6713  -18.6609  -46.2977 H         1 UNK         0.0600 
    163 H163        3.1802  -17.3143  -45.2893 H         1 UNK         0.0600 
    164 H164        1.1401  -16.2834  -44.1249 H         1 UNK         0.3000 
    165 H165       -0.6531  -15.3898  -42.3967 H         1 UNK         0.0600 
    166 H166       -0.5972  -15.1192  -39.9382 H         1 UNK         0.0600 
    167 H167       -1.3037  -16.6647  -40.3753 H         1 UNK         0.0600 
    168 H168        0.3494  -16.5989  -39.7741 H         1 UNK         0.0600 
    169 H169        1.8000  -14.9997  -40.9374 H         1 UNK         0.3000 
    170 H170        3.0423  -13.0298  -41.7238 H         1 UNK         0.0600 
    171 H171        4.4258  -15.3476  -43.1977 H         1 UNK         0.0600 
    172 H172        5.2501  -14.1501  -42.2008 H         1 UNK         0.0600 
    173 H173        4.1103  -15.2644  -41.4692 H         1 UNK         0.0600 
    174 H174        3.8587  -13.3493  -44.5718 H         1 UNK         0.3000 
    175 H175        4.5420  -10.3006  -45.0736 H         1 UNK         0.0600 
    176 H176        3.1184  -12.5775  -46.5682 H         1 UNK         0.0600 
    177 H177        4.1950  -11.4018  -47.3129 H         1 UNK         0.0600 
    178 H178        4.8291  -12.5253  -46.1305 H         1 UNK         0.0600 
    179 H179        1.6276  -10.3556  -45.4476 H         1 UNK         0.3000 
    180 H180        1.5018   -7.0845  -46.3875 H         1 UNK         0.0600 
    181 H181        0.5043   -7.4684  -48.6399 H         1 UNK         0.0600 
    182 H182        1.3133   -9.0326  -48.7490 H         1 UNK         0.0600 
    183 H183        2.2560   -7.5477  -48.7138 H         1 UNK         0.0600 
    184 H184       -0.2816   -9.3335  -46.9222 H         1 UNK         0.3000 
    185 H185       -1.4928   -9.6723  -43.6711 H         1 UNK         0.0600 
    186 H186       -2.9881   -8.2165  -45.9176 H         1 UNK         0.0600 
    187 H187       -3.7259   -9.0565  -44.5525 H         1 UNK         0.0600 
    188 H188       -2.7698   -7.6095  -44.2808 H         1 UNK         0.0600 
    189 H189       -2.5703  -10.6700  -46.0684 H         1 UNK         0.3000 
    190 H190       -2.2054  -23.4404  -45.9758 H         1 UNK         0.3000 
    191 H191       -3.7598  -25.3730  -47.3015 H         1 UNK         0.0600 
    192 H192       -3.9647  -24.3159  -44.4335 H         1 UNK         0.0600 
    193 H193       -5.2231  -25.2215  -45.2662 H         1 UNK         0.0600 
    194 H194       -4.7472  -23.6395  -45.8611 H         1 UNK         0.0600 
    195 H195       -1.6529  -25.7426  -44.4182 H         1 UNK         0.3000 
    196 H196       -2.2311  -28.4959  -43.9326 H         1 UNK         0.0600 
    197 H197       -1.2130  -27.0062  -42.2320 H         1 UNK         0.0600 
    198 H198        0.2401  -26.8322  -43.2125 H         1 UNK         0.0600 
    199 H199       -0.1776  -28.3960  -42.5241 H         1 UNK         0.0600 
    200 H200        0.2059  -26.8879  -45.9855 H         1 UNK         0.3000 
    201 H201        1.5281  -29.3235  -46.8209 H         1 UNK         0.0600 
    202 H202        2.6694  -27.1047  -46.7198 H         1 UNK         0.0600 
    203 H203        1.5964  -26.4835  -47.9729 H         1 UNK         0.0600 
    204 H204        2.7342  -27.7718  -48.3437 H         1 UNK         0.0600 
    205 H205       -1.4284  -27.9194  -47.7254 H         1 UNK         0.3000 
    206 H206       -2.9541  -28.1745  -49.2872 H         1 UNK         0.0600 
    207 H207       -2.6005  -30.6458  -49.0602 H         1 UNK         0.0600 
    208 H208       -3.1004  -30.1887  -50.6802 H         1 UNK         0.0600 
    209 H209       -1.4201  -30.5953  -50.3694 H         1 UNK         0.0600 
    210 H210       -1.0134  -26.2876  -49.6126 H         1 UNK         0.3000 
    211 H211       -0.5862  -26.0096  -52.5598 H         1 UNK         0.0600 
    212 H212        0.8008  -24.6333  -50.1831 H         1 UNK         0.0600 
    213 H213        1.1683  -24.3667  -51.8825 H         1 UNK         0.0600 
    214 H214        1.5003  -25.9275  -51.1501 H         1 UNK         0.0600 
    215 H215       -0.7284  -23.6047  -53.2017 H         1 UNK         0.3000 
    216 H216       -2.5802  -21.9425  -51.6872 H         1 UNK         0.0600 
    217 H217       -4.1431  -21.7176  -53.6347 H         1 UNK         0.0600 
    218 H218       -4.1487  -23.3726  -53.0332 H         1 UNK         0.0600 
    219 H219       -3.2685  -22.9697  -54.5050 H         1 UNK         0.0600 
    220 H220       -2.5683  -19.7770  -52.4934 H         1 UNK         0.3000 
    221 H221       -0.2384  -18.9674  -54.1211 H         1 UNK         0.0600 
    222 H222       -2.3883  -17.2876  -52.7083 H         1 UNK         0.0600 
    223 H223       -0.8405  -17.7263  -51.9929 H         1 UNK         0.0600 
    224 H224       -0.8894  -16.6961  -53.4079 H         1 UNK         0.0600 
    225 H225       -0.8969  -17.0706  -55.6864 H         1 UNK         0.3000 
    226 H226       -2.3218  -18.0978  -57.8649 H         1 UNK         0.0600 
    227 H227       -0.5200  -16.4053  -58.0439 H         1 UNK         0.0600 
    228 H228       -1.9784  -15.8073  -58.8162 H         1 UNK         0.0600 
    229 H229       -1.5243  -15.2069  -57.2260 H         1 UNK         0.0600 
    230 H230       -3.6064  -16.4496  -55.1163 H         1 UNK         0.3000 
    231 H231       -6.1078  -15.5389  -56.2405 H         1 UNK         0.0600 
    232 H232       -6.7011  -15.2484  -53.8288 H         1 UNK         0.0600 
    233 H233       -5.1214  -14.5636  -54.1710 H         1 UNK         0.0600 
    234 H234       -5.2501  -16.1199  -53.3505 H         1 UNK         0.0600 
    235 H235       -4.9236  -18.6854  -55.5384 H         1 UNK         0.3000 
    236 H236       -5.7389  -20.7161  -55.4257 H         1 UNK         0.0600 
    237 H237       -8.4164  -19.6608  -56.4722 H         1 UNK         0.0600 
    238 H238       -7.0401  -20.1070  -57.4803 H         1 UNK         0.0600 
    239 H239       -7.8513  -21.3235  -56.5080 H         1 UNK         0.0600 
    240 H240       -5.7092  -19.1339  -53.1331 H         1 UNK         0.3000 
    241 H241       -8.0429  -19.5614  -51.5080 H         1 UNK         0.0600 
    242 H242       -5.9903  -22.8851  -50.8568 H         1 UNK         0.3800 
    243 H243       -5.9611  -21.9941  -52.3565 H         1 UNK         0.3800 
    244 H244       -6.6477  -18.4377  -49.7242 H         1 UNK         0.0800 
    245 H245       -6.8592  -17.5291  -51.1838 H         1 UNK         0.0800 
    246 H246       -4.2198  -19.7503  -49.1634 H         1 UNK         0.0800 
    247 H247       -4.4763  -18.1195  -48.5830 H         1 UNK         0.0800 
@<TRIPOS>BOND
     1    1    2 1    
     2    1  127 1    
     3    1  128 1    
     4    1  129 1    
     5    2    3 2    
     6    2    4 am   BACKBONE|DICT|INTERRES
     7    4    5 1    
     8    4  130 1    
     9    5    6 1    
    10    5   65 1    
    11    5  131 1    
    12    6    7 1    
    13    6  132 1    
    14    6  133 1    
    15    7    8 1    
    16    8    9 1    
    17    8  134 1    
    18    8  135 1    
    19    9   10 ar   
    20    9   14 ar   
    21   10   11 ar   
    22   10  136 1    
    23   11   12 ar   
    24   11  126 1    
    25   12   13 ar   
    26   12  137 1    
    27   13   14 ar   
    28   13   15 1    
    29   14  138 1    
    30   15   16 1    
    31   15  139 1    
    32   15  140 1    
    33   16   17 1    
    34   17   18 1    
    35   17  141 1    
    36   17  142 1    
    37   18   19 1    
    38   18   67 1    
    39   18  143 1    
    40   19   20 am   BACKBONE|DICT|INTERRES
    41   19  144 1    
    42   20   21 2    
    43   20   22 1    
    44   22   23 1    
    45   22   24 1    
    46   22  145 1    
    47   23  146 1    
    48   23  147 1    
    49   23  148 1    
    50   24   25 am   BACKBONE|DICT|INTERRES
    51   24  149 1    
    52   25   26 2    
    53   25   27 1    
    54   27   28 1    
    55   27   29 1    
    56   27  150 1    
    57   28  151 1    
    58   28  152 1    
    59   28  153 1    
    60   29   30 am   BACKBONE|DICT|INTERRES
    61   29  154 1    
    62   30   31 2    
    63   30   32 1    
    64   32   33 1    
    65   32   34 1    
    66   32  155 1    
    67   33  156 1    
    68   33  157 1    
    69   33  158 1    
    70   34   35 am   BACKBONE|DICT|INTERRES
    71   34  159 1    
    72   35   36 2    
    73   35   37 1    
    74   37   38 1    
    75   37   39 1    
    76   37  160 1    
    77   38  161 1    
    78   38  162 1    
    79   38  163 1    
    80   39   40 am   BACKBONE|DICT|INTERRES
    81   39  164 1    
    82   40   41 2    
    83   40   42 1    
    84   42   43 1    
    85   42   44 1    
    86   42  165 1    
    87   43  166 1    
    88   43  167 1    
    89   43  168 1    
    90   44   45 am   BACKBONE|DICT|INTERRES
    91   44  169 1    
    92   45   46 2    
    93   45   47 1    
    94   47   48 1    
    95   47   49 1    
    96   47  170 1    
    97   48  171 1    
    98   48  172 1    
    99   48  173 1    
   100   49   50 am   BACKBONE|DICT|INTERRES
   101   49  174 1    
   102   50   51 2    
   103   50   52 1    
   104   52   53 1    
   105   52   54 1    
   106   52  175 1    
   107   53  176 1    
   108   53  177 1    
   109   53  178 1    
   110   54   55 am   BACKBONE|DICT|INTERRES
   111   54  179 1    
   112   55   56 2    
   113   55   57 1    
   114   57   58 1    
   115   57   59 1    
   116   57  180 1    
   117   58  181 1    
   118   58  182 1    
   119   58  183 1    
   120   59   60 am   BACKBONE|DICT|INTERRES
   121   59  184 1    
   122   60   61 2    
   123   60   62 1    
   124   62   63 1    
   125   62   64 1    
   126   62  185 1    
   127   63  186 1    
   128   63  187 1    
   129   63  188 1    
   130   64   65 am   BACKBONE|DICT|INTERRES
   131   64  189 1    
   132   65   66 2    
   133   67   68 2    
   134   67   69 am   BACKBONE|DICT|INTERRES
   135   69   70 1    
   136   69  190 1    
   137   70   71 1    
   138   70   72 1    
   139   70  191 1    
   140   71  192 1    
   141   71  193 1    
   142   71  194 1    
   143   72   73 2    
   144   72   74 am   BACKBONE|DICT|INTERRES
   145   74   75 1    
   146   74  195 1    
   147   75   76 1    
   148   75   77 1    
   149   75  196 1    
   150   76  197 1    
   151   76  198 1    
   152   76  199 1    
   153   77   78 2    
   154   77   79 am   BACKBONE|DICT|INTERRES
   155   79   80 1    
   156   79  200 1    
   157   80   81 1    
   158   80   82 1    
   159   80  201 1    
   160   81  202 1    
   161   81  203 1    
   162   81  204 1    
   163   82   83 2    
   164   82   84 am   BACKBONE|DICT|INTERRES
   165   84   85 1    
   166   84  205 1    
   167   85   86 1    
   168   85   87 1    
   169   85  206 1    
   170   86  207 1    
   171   86  208 1    
   172   86  209 1    
   173   87   88 2    
   174   87   89 am   BACKBONE|DICT|INTERRES
   175   89   90 1    
   176   89  210 1    
   177   90   91 1    
   178   90   92 1    
   179   90  211 1    
   180   91  212 1    
   181   91  213 1    
   182   91  214 1    
   183   92   93 2    
   184   92   94 am   BACKBONE|DICT|INTERRES
   185   94   95 1    
   186   94  215 1    
   187   95   96 1    
   188   95   97 1    
   189   95  216 1    
   190   96  217 1    
   191   96  218 1    
   192   96  219 1    
   193   97   98 2    
   194   97   99 am   BACKBONE|DICT|INTERRES
   195   99  100 1    
   196   99  220 1    
   197  100  101 1    
   198  100  102 1    
   199  100  221 1    
   200  101  222 1    
   201  101  223 1    
   202  101  224 1    
   203  102  103 2    
   204  102  104 am   BACKBONE|DICT|INTERRES
   205  104  105 1    
   206  104  225 1    
   207  105  106 1    
   208  105  107 1    
   209  105  226 1    
   210  106  227 1    
   211  106  228 1    
   212  106  229 1    
   213  107  108 2    
   214  107  109 am   BACKBONE|DICT|INTERRES
   215  109  110 1    
   216  109  230 1    
   217  110  111 1    
   218  110  112 1    
   219  110  231 1    
   220  111  232 1    
   221  111  233 1    
   222  111  234 1    
   223  112  113 2    
   224  112  114 am   BACKBONE|DICT|INTERRES
   225  114  115 1    
   226  114  235 1    
   227  115  116 1    
   228  115  117 1    
   229  115  236 1    
   230  116  237 1    
   231  116  238 1    
   232  116  239 1    
   233  117  118 2    
   234  117  119 am   BACKBONE|DICT|INTERRES
   235  119  120 1    
   236  119  240 1    
   237  120  121 1    
   238  120  124 1    
   239  120  241 1    
   240  121  122 am   BACKBONE|DICT|INTERRES
   241  121  123 2    
   242  122  242 1    
   243  122  243 1    
   244  124  125 1    
   245  124  244 1    
   246  124  245 1    
   247  125  126 1    
   248  126  246 1    
   249  126  247 1    
@<TRIPOS>SUBSTRUCTURE
     1 UNK         1 GROUP             0       ****    0 ROOT    
