@<TRIPOS>MOLECULE
3R540
247   249    1
SMALL
USER_CHARGES


@<TRIPOS>ATOM
      1 CA         -5.6554  -12.3254  -44.8190 C.3       0 UNK        -0.1800 
      2 C          -4.5564  -13.3265  -45.1417 C.2       0 UNK         0.5000 
      3 O          -3.3895  -13.0743  -44.8429 O.2       0 UNK        -0.5000 
      4 N          -4.9211  -14.4705  -45.7363 N.am      1 UNK        -0.5000 
      5 CA         -4.0002  -15.5377  -46.1565 C.3       1 UNK         0.1400 
      6 C6         -4.7036  -16.6308  -46.9960 C.3       23 UNK        -0.0398 
      7 S7         -5.6765  -15.9782  -48.3985 S.3       23 UNK        -0.2404 
      8 C8         -4.3823  -15.4740  -49.5786 C.3       23 UNK        -0.0205 
      9 C9         -3.5154  -16.6423  -50.0202 C.ar      23 UNK        -0.0193 
     10 C10        -4.0215  -17.5988  -50.9035 C.ar      23 UNK        -0.1150 
     11 C11        -3.2366  -18.6858  -51.2975 C.ar      23 UNK        -0.0193 
     12 C12        -1.9347  -18.8097  -50.8037 C.ar      23 UNK        -0.1150 
     13 C13        -1.4138  -17.8523  -49.9279 C.ar      23 UNK        -0.0193 
     14 C14        -2.2083  -16.7690  -49.5432 C.ar      23 UNK        -0.1150 
     15 C15         0.0081  -17.9797  -49.4002 C.3       23 UNK        -0.0205 
     16 S16         0.2116  -19.3790  -48.2548 S.3       23 UNK        -0.2404 
     17 C17        -0.8985  -18.9354  -46.8745 C.3       23 UNK        -0.0398 
     18 CA         -1.4612  -20.2066  -46.2024 C.3       11 UNK         0.1400 
     19 N          -0.4080  -20.9626  -45.5156 N.am      11 UNK        -0.5000 
     20 C          -0.4850  -22.2378  -45.1148 C.2       10 UNK         0.5000 
     21 O          -1.5133  -22.9103  -45.1710 O.2       10 UNK        -0.5000 
     22 CA          0.7923  -22.8428  -44.5169 C.3       10 UNK         0.1400 
     23 CB          1.8300  -23.1272  -45.6147 C.3       10 UNK        -0.1800 
     24 N           1.3668  -21.9338  -43.5286 N.am      10 UNK        -0.5000 
     25 C           1.0853  -21.9646  -42.2196 C.2       9 UNK         0.5000 
     26 O           0.3674  -22.8150  -41.6927 O.2       9 UNK        -0.5000 
     27 CA          1.6997  -20.8526  -41.3471 C.3       9 UNK         0.1400 
     28 CB          3.0495  -21.3052  -40.7702 C.3       9 UNK        -0.1800 
     29 N           1.8858  -19.5858  -42.0566 N.am      9 UNK        -0.5000 
     30 C           0.8906  -18.8192  -42.5229 C.2       8 UNK         0.5000 
     31 O          -0.3017  -19.0998  -42.4102 O.2       8 UNK        -0.5000 
     32 CA          1.2997  -17.5306  -43.2587 C.3       8 UNK         0.1400 
     33 CB          1.5569  -16.4192  -42.2321 C.3       8 UNK        -0.1800 
     34 N           2.4832  -17.6418  -44.1176 N.am      8 UNK        -0.5000 
     35 C           2.7463  -18.5868  -45.0331 C.2       7 UNK         0.5000 
     36 O           2.0409  -19.5793  -45.2131 O.2       7 UNK        -0.5000 
     37 CA          4.0144  -18.4092  -45.8895 C.3       7 UNK         0.1400 
     38 CB          3.6449  -18.1526  -47.3583 C.3       7 UNK        -0.1800 
     39 N           4.8725  -17.3195  -45.4192 N.am      7 UNK        -0.5000 
     40 C           5.8056  -17.4468  -44.4651 C.2       6 UNK         0.5000 
     41 O           6.0330  -18.5038  -43.8757 O.2       6 UNK        -0.5000 
     42 CA          6.6254  -16.1920  -44.1014 C.3       6 UNK         0.1400 
     43 CB          7.9954  -16.2279  -44.7961 C.3       6 UNK        -0.1800 
     44 N           5.9572  -14.9338  -44.4405 N.am      6 UNK        -0.5000 
     45 C           4.8885  -14.4419  -43.8008 C.2       5 UNK         0.5000 
     46 O           4.3655  -15.0002  -42.8364 O.2       5 UNK        -0.5000 
     47 CA          4.2874  -13.1177  -44.3217 C.3       5 UNK         0.1400 
     48 CB          5.0455  -12.5080  -45.5226 C.3       5 UNK        -0.1800 
     49 N           2.8623  -13.2432  -44.6435 N.am      5 UNK        -0.5000 
     50 C           2.2882  -14.1195  -45.4780 C.2       4 UNK         0.5000 
     51 O           2.9134  -15.0055  -46.0641 O.2       4 UNK        -0.5000 
     52 CA          0.7638  -13.9689  -45.6936 C.3       4 UNK         0.1400 
     53 CB          0.2249  -14.9654  -46.7347 C.3       4 UNK        -0.1800 
     54 N          -0.0245  -14.0982  -44.4621 N.am      4 UNK        -0.5000 
     55 C          -0.1016  -13.1898  -43.4755 C.2       3 UNK         0.5000 
     56 O           0.5227  -12.1271  -43.4934 O.2       3 UNK        -0.5000 
     57 CA         -1.0075  -13.5140  -42.2689 C.3       3 UNK         0.1400 
     58 CB         -1.7250  -12.2644  -41.7278 C.3       3 UNK        -0.1800 
     59 N          -2.0089  -14.5204  -42.6132 N.am      3 UNK        -0.5000 
     60 C          -2.2542  -15.6512  -41.9378 C.2       2 UNK         0.5000 
     61 O          -1.6975  -15.9401  -40.8790 O.2       2 UNK        -0.5000 
     62 CA         -3.3018  -16.6277  -42.5189 C.3       2 UNK         0.1400 
     63 CB         -4.4453  -16.8611  -41.5175 C.3       2 UNK        -0.1800 
     64 N          -3.8820  -16.1995  -43.7937 N.am      2 UNK        -0.5000 
     65 C          -3.2390  -16.1677  -44.9691 C.2       1 UNK         0.5000 
     66 O          -2.0738  -16.5358  -45.1113 O.2       1 UNK        -0.5000 
     67 C          -2.7021  -19.9150  -45.3307 C.2       11 UNK         0.5000 
     68 O          -3.7264  -19.4980  -45.8680 O.2       11 UNK        -0.5000 
     69 N          -2.6509  -20.2259  -44.0283 N.am      12 UNK        -0.5000 
     70 CA         -3.8298  -20.3769  -43.1716 C.3       12 UNK         0.1400 
     71 CB         -3.3722  -20.6272  -41.7273 C.3       12 UNK        -0.1800 
     72 C          -4.7861  -21.4963  -43.6464 C.2       12 UNK         0.5000 
     73 O          -5.9825  -21.4261  -43.3647 O.2       12 UNK        -0.5000 
     74 N          -4.2534  -22.4777  -44.3876 N.am      13 UNK        -0.5000 
     75 CA         -4.9843  -23.5277  -45.0875 C.3       13 UNK         0.1400 
     76 CB         -4.5379  -24.8954  -44.5401 C.3       13 UNK        -0.1800 
     77 C          -4.7391  -23.3878  -46.6027 C.2       13 UNK         0.5000 
     78 O          -4.3495  -24.3550  -47.2591 O.2       13 UNK        -0.5000 
     79 N          -4.9776  -22.1808  -47.1405 N.am      14 UNK        -0.5000 
     80 CA         -4.7837  -21.7838  -48.5452 C.3       14 UNK         0.1400 
     81 CB         -5.2480  -20.3282  -48.7223 C.3       14 UNK        -0.1800 
     82 C          -5.4688  -22.6790  -49.5996 C.2       14 UNK         0.5000 
     83 O          -5.0150  -22.7193  -50.7426 O.2       14 UNK        -0.5000 
     84 N          -6.5345  -23.3894  -49.2045 N.am      15 UNK        -0.5000 
     85 CA         -7.2206  -24.3887  -50.0261 C.3       15 UNK         0.1400 
     86 CB         -8.5092  -24.8235  -49.3116 C.3       15 UNK        -0.1800 
     87 C          -6.3434  -25.6159  -50.3520 C.2       15 UNK         0.5000 
     88 O          -6.5203  -26.2174  -51.4121 O.2       15 UNK        -0.5000 
     89 N          -5.4161  -25.9550  -49.4465 N.am      16 UNK        -0.5000 
     90 CA         -4.4106  -26.9991  -49.6296 C.3       16 UNK         0.1400 
     91 CB         -4.2695  -27.8010  -48.3257 C.3       16 UNK        -0.1800 
     92 C          -3.0648  -26.3774  -50.0347 C.2       16 UNK         0.5000 
     93 O          -2.4280  -26.8541  -50.9754 O.2       16 UNK        -0.5000 
     94 N          -2.6635  -25.3087  -49.3343 N.am      17 UNK        -0.5000 
     95 CA         -1.4317  -24.5545  -49.5564 C.3       17 UNK         0.1400 
     96 CB         -1.0320  -23.8706  -48.2393 C.3       17 UNK        -0.1800 
     97 C          -1.5829  -23.5527  -50.7170 C.2       17 UNK         0.5000 
     98 O          -1.5054  -22.3413  -50.5078 O.2       17 UNK        -0.5000 
     99 N          -1.8115  -24.0807  -51.9246 N.am      18 UNK        -0.5000 
    100 CA        -1.8982  -23.3118  -53.1622 C.3       18 UNK         0.1400 
    101 CB        -2.4413  -24.2130  -54.2812 C.3       18 UNK        -0.1800 
    102 C         -0.5280  -22.7226  -53.5452 C.2       18 UNK         0.5000 
    103 O          0.4608  -23.4580  -53.5905 O.2       18 UNK        -0.5000 
    104 N         -0.5005  -21.4171  -53.8350 N.am      19 UNK        -0.5000 
    105 CA         0.6978  -20.6752  -54.2380 C.3       19 UNK         0.1400 
    106 CB         0.5537  -19.2168  -53.7699 C.3       19 UNK        -0.1800 
    107 C          0.9658  -20.7338  -55.7565 C.2       19 UNK         0.5000 
    108 O          1.9717  -20.1830  -56.2050 O.2       19 UNK        -0.5000 
    109 N          0.0597  -21.3707  -56.5175 N.am      20 UNK        -0.5000 
    110 CA         0.0403  -21.4714  -57.9837 C.3       20 UNK         0.1400 
    111 CB         1.2523  -22.2717  -58.5060 C.3       20 UNK        -0.1800 
    112 C         -0.1236  -20.0932  -58.6613 C.2       20 UNK         0.5000 
    113 O          0.5160  -19.8100  -59.6762 O.2       20 UNK        -0.5000 
    114 N         -0.9887  -19.2626  -58.0693 N.am      21 UNK        -0.5000 
    115 CA        -1.3244  -17.9100  -58.5103 C.3       21 UNK         0.1400 
    116 CB        -0.2056  -16.9214  -58.1331 C.3       21 UNK        -0.1800 
    117 C         -2.6682  -17.4826  -57.9024 C.2       21 UNK         0.5000 
    118 O         -3.4835  -16.8716  -58.5944 O.2       21 UNK        -0.5000 
    119 N         -2.8817  -17.8342  -56.6269 N.am      22 UNK        -0.5000 
    120 CA        -4.1521  -17.6846  -55.9030 C.3       22 UNK         0.1400 
    121 C         -5.3073  -18.5597  -56.4745 C.2       22 UNK         0.5000 
    122 N         -6.5547  -18.1705  -56.2466 N.am      22 UNK        -0.7600 
    123 O         -5.0890  -19.5967  -57.0981 O.2       22 UNK        -0.5000 
    124 C124       -3.9555  -17.9072  -54.3801 C.3       23 UNK        -0.0398 
    125 S125       -3.2136  -19.5219  -53.9440 S.3       23 UNK        -0.2404 
    126 C126       -3.8038  -19.7386  -52.2363 C.3       23 UNK        -0.0205 
    127 H127       -6.6365  -12.6865  -45.1283 H         1 UNK         0.0600 
    128 H128       -5.4632  -11.3816  -45.3292 H         1 UNK         0.0600 
    129 H129       -5.6846  -12.1346  -43.7463 H         1 UNK         0.0600 
    130 H130       -5.8919  -14.6167  -45.9757 H         1 UNK         0.3000 
    131 H131       -3.2464  -15.0688  -46.7908 H         1 UNK         0.0600 
    132 H132       -5.3841  -17.2103  -46.3695 H         1 UNK         0.0800 
    133 H133       -3.9756  -17.3458  -47.3790 H         1 UNK         0.0800 
    134 H134       -4.8597  -15.0324  -50.4544 H         1 UNK         0.0800 
    135 H135       -3.7748  -14.6833  -49.1363 H         1 UNK         0.0800 
    136 H136       -5.0336  -17.5024  -51.2704 H         1 UNK         0.1150 
    137 H137       -1.3293  -19.6570  -51.0940 H         1 UNK         0.1150 
    138 H138       -1.8119  -16.0290  -48.8629 H         1 UNK         0.1150 
    139 H139        0.6880  -18.1156  -50.2422 H         1 UNK         0.0800 
    140 H140        0.3234  -17.0637  -48.8994 H         1 UNK         0.0800 
    141 H141       -1.7072  -18.3123  -47.2546 H         1 UNK         0.0800 
    142 H142       -0.3508  -18.3264  -46.1547 H         1 UNK         0.0800 
    143 H143       -1.8372  -20.8515  -47.0000 H         1 UNK         0.0600 
    144 H144        0.4848  -20.4808  -45.4277 H         1 UNK         0.3000 
    145 H145        0.5319  -23.7936  -44.0468 H         1 UNK         0.0600 
    146 H146        2.7325  -23.5721  -45.1955 H         1 UNK         0.0600 
    147 H147        1.4352  -23.8280  -46.3509 H         1 UNK         0.0600 
    148 H148        2.1210  -22.2206  -46.1470 H         1 UNK         0.0600 
    149 H149        1.9072  -21.1573  -43.8923 H         1 UNK         0.3000 
    150 H150        1.0152  -20.6726  -40.5154 H         1 UNK         0.0600 
    151 H151        2.9437  -22.2374  -40.2135 H         1 UNK         0.0600 
    152 H152        3.4544  -20.5621  -40.0829 H         1 UNK         0.0600 
    153 H153        3.7867  -21.4739  -41.5562 H         1 UNK         0.0600 
    154 H154        2.8367  -19.2816  -42.2071 H         1 UNK         0.3000 
    155 H155        0.4619  -17.2345  -43.8928 H         1 UNK         0.0600 
    156 H156        2.4440  -16.6275  -41.6328 H         1 UNK         0.0600 
    157 H157        0.7239  -16.3129  -41.5407 H         1 UNK         0.0600 
    158 H158        1.7056  -15.4559  -42.7159 H         1 UNK         0.0600 
    159 H159        3.1405  -16.8766  -44.0539 H         1 UNK         0.3000 
    160 H160        4.5705  -19.3478  -45.8457 H         1 UNK         0.0600 
    161 H161        2.9894  -17.2880  -47.4680 H         1 UNK         0.0600 
    162 H162        3.1257  -19.0129  -47.7808 H         1 UNK         0.0600 
    163 H163        4.5326  -17.9825  -47.9675 H         1 UNK         0.0600 
    164 H164        4.6932  -16.4059  -45.8182 H         1 UNK         0.3000 
    165 H165        6.7908  -16.2114  -43.0220 H         1 UNK         0.0600 
    166 H166        8.6161  -15.3858  -44.4892 H         1 UNK         0.0600 
    167 H167        8.5389  -17.1392  -44.5424 H         1 UNK         0.0600 
    168 H168        7.8971  -16.1961  -45.8819 H         1 UNK         0.0600 
    169 H169        6.3236  -14.4246  -45.2316 H         1 UNK         0.3000 
    170 H170        4.3548  -12.4103  -43.4941 H         1 UNK         0.0600 
    171 H171        6.0897  -12.3121  -45.2757 H         1 UNK         0.0600 
    172 H172        5.0215  -13.1585  -46.3977 H         1 UNK         0.0600 
    173 H173        4.6058  -11.5537  -45.8131 H         1 UNK         0.0600 
    174 H174        2.2390  -12.5992  -44.1635 H         1 UNK         0.3000 
    175 H175        0.6020  -12.9655  -46.0924 H         1 UNK         0.0600 
    176 H176        0.3432  -15.9969  -46.4017 H         1 UNK         0.0600 
    177 H177       -0.8320  -14.7925  -46.9333 H         1 UNK         0.0600 
    178 H178        0.7514  -14.8638  -47.6844 H         1 UNK         0.0600 
    179 H179       -0.5707  -14.9455  -44.3781 H         1 UNK         0.3000 
    180 H180       -0.3453  -13.8918  -41.4877 H         1 UNK         0.0600 
    181 H181       -2.3637  -11.8106  -42.4865 H         1 UNK         0.0600 
    182 H182       -1.0106  -11.5079  -41.4011 H         1 UNK         0.0600 
    183 H183       -2.3489  -12.5107  -40.8685 H         1 UNK         0.0600 
    184 H184       -2.5376  -14.3231  -43.4570 H         1 UNK         0.3000 
    185 H185       -2.7875  -17.5763  -42.6834 H         1 UNK         0.0600 
    186 H186       -4.0677  -17.2716  -40.5801 H         1 UNK         0.0600 
    187 H187       -4.9676  -15.9328  -41.2830 H         1 UNK         0.0600 
    188 H188       -5.1783  -17.5683  -41.9053 H         1 UNK         0.0600 
    189 H189       -4.8248  -15.8398  -43.7590 H         1 UNK         0.3000 
    190 H190       -1.7600  -20.4901  -43.6298 H         1 UNK         0.3000 
    191 H191       -4.3886  -19.4405  -43.2032 H         1 UNK         0.0600 
    192 H192       -2.7675  -21.5318  -41.6491 H         1 UNK         0.0600 
    193 H193       -4.2270  -20.7417  -41.0596 H         1 UNK         0.0600 
    194 H194       -2.7780  -19.7941  -41.3514 H         1 UNK         0.0600 
    195 H195       -3.2543  -22.4599  -44.5813 H         1 UNK         0.3000 
    196 H196       -6.0592  -23.4281  -44.9259 H         1 UNK         0.0600 
    197 H197       -5.0784  -25.7087  -45.0260 H         1 UNK         0.0600 
    198 H198       -4.7292  -24.9717  -43.4697 H         1 UNK         0.0600 
    199 H199       -3.4722  -25.0635  -44.7024 H         1 UNK         0.0600 
    200 H200       -5.2559  -21.4362  -46.5161 H         1 UNK         0.3000 
    201 H201       -3.7128  -21.8250  -48.7521 H         1 UNK         0.0600 
    202 H202       -4.5399  -19.6298  -48.2797 H         1 UNK         0.0600 
    203 H203       -6.2249  -20.1553  -48.2700 H         1 UNK         0.0600 
    204 H204       -5.3301  -20.0590  -49.7749 H         1 UNK         0.0600 
    205 H205       -6.8528  -23.2853  -48.2528 H         1 UNK         0.3000 
    206 H206       -7.4946  -23.9173  -50.9723 H         1 UNK         0.0600 
    207 H207       -9.1727  -23.9752  -49.1426 H         1 UNK         0.0600 
    208 H208       -9.0600  -25.5512  -49.9091 H         1 UNK         0.0600 
    209 H209       -8.2981  -25.2842  -48.3457 H         1 UNK         0.0600 
    210 H210       -5.3068  -25.3736  -48.6219 H         1 UNK         0.3000 
    211 H211       -4.7155  -27.6898  -50.4185 H         1 UNK         0.0600 
    212 H212       -3.9720  -27.1680  -47.4885 H         1 UNK         0.0600 
    213 H213       -3.5181  -28.5848  -48.4292 H         1 UNK         0.0600 
    214 H214       -5.2095  -28.2846  -48.0597 H         1 UNK         0.0600 
    215 H215       -3.2577  -24.9710  -48.5808 H         1 UNK         0.3000 
    216 H216       -0.6318  -25.2477  -49.8246 H         1 UNK         0.0600 
    217 H217       -0.1050  -23.3071  -48.3524 H         1 UNK         0.0600 
    218 H218       -0.8764  -24.6018  -47.4460 H         1 UNK         0.0600 
    219 H219       -1.7995  -23.1737  -47.9029 H         1 UNK         0.0600 
    220 H220       -1.8758  -25.0890  -51.9995 H         1 UNK         0.3000 
    221 H221       -2.6109  -22.5010  -53.0082 H         1 UNK         0.0600 
    222 H222       -1.7819  -25.0606  -54.4725 H         1 UNK         0.0600 
    223 H223       -3.4262  -24.6052  -54.0264 H         1 UNK         0.0600 
    224 H224       -2.5445  -23.6580  -55.2144 H         1 UNK         0.0600 
    225 H225       -1.3548  -20.8782  -53.7650 H         1 UNK         0.3000 
    226 H226        1.5703  -21.1023  -53.7391 H         1 UNK         0.0600 
    227 H227        0.4126  -19.1616  -52.6909 H         1 UNK         0.0600 
    228 H228        1.4481  -18.6385  -54.0048 H         1 UNK         0.0600 
    229 H229       -0.2908  -18.7184  -54.2462 H         1 UNK         0.0600 
    230 H230       -0.7219  -21.7943  -56.0399 H         1 UNK         0.3000 
    231 H231       -0.8557  -22.0394  -58.2381 H         1 UNK         0.0600 
    232 H232        1.1572  -22.4685  -59.5744 H         1 UNK         0.0600 
    233 H233        1.3327  -23.2364  -58.0051 H         1 UNK         0.0600 
    234 H234        2.1904  -21.7366  -58.3569 H         1 UNK         0.0600 
    235 H235       -1.5237  -19.6155  -57.2898 H         1 UNK         0.3000 
    236 H236       -1.4413  -17.9143  -59.5962 H         1 UNK         0.0600 
    237 H237        0.7290  -17.1683  -58.6368 H         1 UNK         0.0600 
    238 H238       -0.4698  -15.9036  -58.4227 H         1 UNK         0.0600 
    239 H239       -0.0151  -16.9207  -57.0592 H         1 UNK         0.0600 
    240 H240       -2.1494  -18.2953  -56.1113 H         1 UNK         0.3000 
    241 H241       -4.4594  -16.6457  -56.0382 H         1 UNK         0.0600 
    242 H242       -6.7646  -17.3241  -55.7402 H         1 UNK         0.3800 
    243 H243       -7.3129  -18.7321  -56.6024 H         1 UNK         0.3800 
    244 H244       -4.9059  -17.7926  -53.8564 H         1 UNK         0.0800 
    245 H245       -3.3064  -17.1266  -53.9806 H         1 UNK         0.0800 
    246 H246       -3.5142  -20.7250  -51.8741 H         1 UNK         0.0800 
    247 H247       -4.8947  -19.7232  -52.2252 H         1 UNK         0.0800 
@<TRIPOS>BOND
     1    1    2 1    
     2    1  127 1    
     3    1  128 1    
     4    1  129 1    
     5    2    3 2    
     6    2    4 am   BACKBONE|DICT|INTERRES
     7    4    5 1    
     8    4  130 1    
     9    5    6 1    
    10    5   65 1    
    11    5  131 1    
    12    6    7 1    
    13    6  132 1    
    14    6  133 1    
    15    7    8 1    
    16    8    9 1    
    17    8  134 1    
    18    8  135 1    
    19    9   10 ar   
    20    9   14 ar   
    21   10   11 ar   
    22   10  136 1    
    23   11   12 ar   
    24   11  126 1    
    25   12   13 ar   
    26   12  137 1    
    27   13   14 ar   
    28   13   15 1    
    29   14  138 1    
    30   15   16 1    
    31   15  139 1    
    32   15  140 1    
    33   16   17 1    
    34   17   18 1    
    35   17  141 1    
    36   17  142 1    
    37   18   19 1    
    38   18   67 1    
    39   18  143 1    
    40   19   20 am   BACKBONE|DICT|INTERRES
    41   19  144 1    
    42   20   21 2    
    43   20   22 1    
    44   22   23 1    
    45   22   24 1    
    46   22  145 1    
    47   23  146 1    
    48   23  147 1    
    49   23  148 1    
    50   24   25 am   BACKBONE|DICT|INTERRES
    51   24  149 1    
    52   25   26 2    
    53   25   27 1    
    54   27   28 1    
    55   27   29 1    
    56   27  150 1    
    57   28  151 1    
    58   28  152 1    
    59   28  153 1    
    60   29   30 am   BACKBONE|DICT|INTERRES
    61   29  154 1    
    62   30   31 2    
    63   30   32 1    
    64   32   33 1    
    65   32   34 1    
    66   32  155 1    
    67   33  156 1    
    68   33  157 1    
    69   33  158 1    
    70   34   35 am   BACKBONE|DICT|INTERRES
    71   34  159 1    
    72   35   36 2    
    73   35   37 1    
    74   37   38 1    
    75   37   39 1    
    76   37  160 1    
    77   38  161 1    
    78   38  162 1    
    79   38  163 1    
    80   39   40 am   BACKBONE|DICT|INTERRES
    81   39  164 1    
    82   40   41 2    
    83   40   42 1    
    84   42   43 1    
    85   42   44 1    
    86   42  165 1    
    87   43  166 1    
    88   43  167 1    
    89   43  168 1    
    90   44   45 am   BACKBONE|DICT|INTERRES
    91   44  169 1    
    92   45   46 2    
    93   45   47 1    
    94   47   48 1    
    95   47   49 1    
    96   47  170 1    
    97   48  171 1    
    98   48  172 1    
    99   48  173 1    
   100   49   50 am   BACKBONE|DICT|INTERRES
   101   49  174 1    
   102   50   51 2    
   103   50   52 1    
   104   52   53 1    
   105   52   54 1    
   106   52  175 1    
   107   53  176 1    
   108   53  177 1    
   109   53  178 1    
   110   54   55 am   BACKBONE|DICT|INTERRES
   111   54  179 1    
   112   55   56 2    
   113   55   57 1    
   114   57   58 1    
   115   57   59 1    
   116   57  180 1    
   117   58  181 1    
   118   58  182 1    
   119   58  183 1    
   120   59   60 am   BACKBONE|DICT|INTERRES
   121   59  184 1    
   122   60   61 2    
   123   60   62 1    
   124   62   63 1    
   125   62   64 1    
   126   62  185 1    
   127   63  186 1    
   128   63  187 1    
   129   63  188 1    
   130   64   65 am   BACKBONE|DICT|INTERRES
   131   64  189 1    
   132   65   66 2    
   133   67   68 2    
   134   67   69 am   BACKBONE|DICT|INTERRES
   135   69   70 1    
   136   69  190 1    
   137   70   71 1    
   138   70   72 1    
   139   70  191 1    
   140   71  192 1    
   141   71  193 1    
   142   71  194 1    
   143   72   73 2    
   144   72   74 am   BACKBONE|DICT|INTERRES
   145   74   75 1    
   146   74  195 1    
   147   75   76 1    
   148   75   77 1    
   149   75  196 1    
   150   76  197 1    
   151   76  198 1    
   152   76  199 1    
   153   77   78 2    
   154   77   79 am   BACKBONE|DICT|INTERRES
   155   79   80 1    
   156   79  200 1    
   157   80   81 1    
   158   80   82 1    
   159   80  201 1    
   160   81  202 1    
   161   81  203 1    
   162   81  204 1    
   163   82   83 2    
   164   82   84 am   BACKBONE|DICT|INTERRES
   165   84   85 1    
   166   84  205 1    
   167   85   86 1    
   168   85   87 1    
   169   85  206 1    
   170   86  207 1    
   171   86  208 1    
   172   86  209 1    
   173   87   88 2    
   174   87   89 am   BACKBONE|DICT|INTERRES
   175   89   90 1    
   176   89  210 1    
   177   90   91 1    
   178   90   92 1    
   179   90  211 1    
   180   91  212 1    
   181   91  213 1    
   182   91  214 1    
   183   92   93 2    
   184   92   94 am   BACKBONE|DICT|INTERRES
   185   94   95 1    
   186   94  215 1    
   187   95   96 1    
   188   95   97 1    
   189   95  216 1    
   190   96  217 1    
   191   96  218 1    
   192   96  219 1    
   193   97   98 2    
   194   97   99 am   BACKBONE|DICT|INTERRES
   195   99  100 1    
   196   99  220 1    
   197  100  101 1    
   198  100  102 1    
   199  100  221 1    
   200  101  222 1    
   201  101  223 1    
   202  101  224 1    
   203  102  103 2    
   204  102  104 am   BACKBONE|DICT|INTERRES
   205  104  105 1    
   206  104  225 1    
   207  105  106 1    
   208  105  107 1    
   209  105  226 1    
   210  106  227 1    
   211  106  228 1    
   212  106  229 1    
   213  107  108 2    
   214  107  109 am   BACKBONE|DICT|INTERRES
   215  109  110 1    
   216  109  230 1    
   217  110  111 1    
   218  110  112 1    
   219  110  231 1    
   220  111  232 1    
   221  111  233 1    
   222  111  234 1    
   223  112  113 2    
   224  112  114 am   BACKBONE|DICT|INTERRES
   225  114  115 1    
   226  114  235 1    
   227  115  116 1    
   228  115  117 1    
   229  115  236 1    
   230  116  237 1    
   231  116  238 1    
   232  116  239 1    
   233  117  118 2    
   234  117  119 am   BACKBONE|DICT|INTERRES
   235  119  120 1    
   236  119  240 1    
   237  120  121 1    
   238  120  124 1    
   239  120  241 1    
   240  121  122 am   BACKBONE|DICT|INTERRES
   241  121  123 2    
   242  122  242 1    
   243  122  243 1    
   244  124  125 1    
   245  124  244 1    
   246  124  245 1    
   247  125  126 1    
   248  126  246 1    
   249  126  247 1    
@<TRIPOS>SUBSTRUCTURE
     1 UNK         1 GROUP             0       ****    0 ROOT    
