@<TRIPOS>MOLECULE
3R540
247   249    1
SMALL
USER_CHARGES


@<TRIPOS>ATOM
      1 CA         -1.0674  -16.6953  -42.0934 C.3       0 UNK        -0.1800 
      2 C          -1.7595  -17.1027  -43.3837 C.2       0 UNK         0.5000 
      3 O          -2.4619  -18.1115  -43.4121 O.2       0 UNK        -0.5000 
      4 N          -1.5745  -16.3127  -44.4430 N.am      1 UNK        -0.5000 
      5 CA         -2.2015  -16.4860  -45.7500 C.3       1 UNK         0.1400 
      6 C6         -1.3899  -17.4403  -46.6668 C.3       23 UNK        -0.0398 
      7 S7         -2.4439  -18.2884  -47.8894 S.3       23 UNK        -0.2404 
      8 C8         -1.8532  -17.5549  -49.4489 C.3       23 UNK        -0.0205 
      9 C9         -0.5092  -18.0810  -49.9427 C.ar      23 UNK        -0.0193 
     10 C10         0.3102  -17.2255  -50.6829 C.ar      23 UNK        -0.1150 
     11 C11         1.4775  -17.6993  -51.2848 C.ar      23 UNK        -0.0193 
     12 C12         1.8582  -19.0302  -51.0971 C.ar      23 UNK        -0.1150 
     13 C13         1.0492  -19.9000  -50.3630 C.ar      23 UNK        -0.0193 
     14 C14        -0.1285  -19.4194  -49.7807 C.ar      23 UNK        -0.1150 
     15 C15         1.4043  -21.3772  -50.2918 C.3       23 UNK        -0.0205 
     16 S16         2.7553  -21.7262  -49.1261 S.3       23 UNK        -0.2404 
     17 C17         1.9516  -21.4489  -47.5154 C.3       23 UNK        -0.0398 
     18 CA          1.2551  -22.7231  -46.9648 C.3       11 UNK         0.1400 
     19 N           1.4711  -22.8851  -45.5262 N.am      11 UNK        -0.5000 
     20 C           1.3506  -24.0342  -44.8482 C.2       10 UNK         0.5000 
     21 O           1.1053  -25.1160  -45.3803 O.2       10 UNK        -0.5000 
     22 CA          1.5116  -23.9573  -43.3160 C.3       10 UNK         0.1400 
     23 CB          2.9654  -24.2460  -42.9137 C.3       10 UNK        -0.1800 
     24 N           1.1173  -22.6559  -42.7722 N.am      10 UNK        -0.5000 
     25 C          -0.1486  -22.2191  -42.6954 C.2       9 UNK         0.5000 
     26 O          -1.1245  -22.9110  -42.9849 O.2       9 UNK        -0.5000 
     27 CA         -0.3507  -20.7450  -42.2850 C.3       9 UNK         0.1400 
     28 CB         -0.5266  -20.6206  -40.7652 C.3       9 UNK        -0.1800 
     29 N           0.7413  -19.8655  -42.7159 N.am      9 UNK        -0.5000 
     30 C           1.1095  -19.6725  -43.9908 C.2       8 UNK         0.5000 
     31 O           0.5186  -20.1841  -44.9396 O.2       8 UNK        -0.5000 
     32 CA          2.3585  -18.8183  -44.2772 C.3       8 UNK         0.1400 
     33 CB          2.0264  -17.6653  -45.2333 C.3       8 UNK        -0.1800 
     34 N           3.0083  -18.2914  -43.0761 N.am      8 UNK        -0.5000 
     35 C           3.7720  -19.0150  -42.2425 C.2       7 UNK         0.5000 
     36 O           3.9879  -20.2172  -42.4012 O.2       7 UNK        -0.5000 
     37 CA          4.3778  -18.2971  -41.0179 C.3       7 UNK         0.1400 
     38 CB          5.8575  -17.9700  -41.2694 C.3       7 UNK        -0.1800 
     39 N           3.6808  -17.0642  -40.6479 N.am      7 UNK        -0.5000 
     40 C           2.4241  -16.9923  -40.1879 C.2       6 UNK         0.5000 
     41 O           1.7224  -17.9799  -39.9682 O.2       6 UNK        -0.5000 
     42 CA          1.8398  -15.5780  -39.9835 C.3       6 UNK         0.1400 
     43 CB          2.0061  -15.1402  -38.5207 C.3       6 UNK        -0.1800 
     44 N           2.4116  -14.5450  -40.8596 N.am      6 UNK        -0.5000 
     45 C           2.4291  -14.5764  -42.2002 C.2       5 UNK         0.5000 
     46 O           1.9920  -15.5188  -42.8626 O.2       5 UNK        -0.5000 
     47 CA          3.1124  -13.3862  -42.9017 C.3       5 UNK         0.1400 
     48 CB          4.6356  -13.4528  -42.6994 C.3       5 UNK        -0.1800 
     49 N           2.8432  -13.3516  -44.3405 N.am      5 UNK        -0.5000 
     50 C           1.6735  -13.0225  -44.9015 C.2       4 UNK         0.5000 
     51 O           0.6844  -12.6550  -44.2617 O.2       4 UNK        -0.5000 
     52 CA          1.6214  -13.1174  -46.4363 C.3       4 UNK         0.1400 
     53 CB          1.5863  -14.5819  -46.9006 C.3       4 UNK        -0.1800 
     54 N           0.4333  -12.4411  -46.9500 N.am      4 UNK        -0.5000 
     55 C           0.4242  -11.5412  -47.9415 C.2       3 UNK         0.5000 
     56 O           1.4426  -11.1711  -48.5297 O.2       3 UNK        -0.5000 
     57 CA         -0.9463  -10.9437  -48.3372 C.3       3 UNK         0.1400 
     58 CB         -0.9691  -10.3994  -49.7817 C.3       3 UNK        -0.1800 
     59 N          -2.0796  -11.8480  -48.1080 N.am      3 UNK        -0.5000 
     60 C          -2.2869  -13.0495  -48.6662 C.2       2 UNK         0.5000 
     61 O          -1.5420  -13.5762  -49.4949 O.2       2 UNK        -0.5000 
     62 CA         -3.5403  -13.8044  -48.1811 C.3       2 UNK         0.1400 
     63 CB         -4.4480  -14.1779  -49.3640 C.3       2 UNK        -0.1800 
     64 N          -3.2088  -15.0183  -47.4330 N.am      2 UNK        -0.5000 
     65 C          -2.4081  -15.0880  -46.3617 C.2       1 UNK         0.5000 
     66 O          -1.8583  -14.1072  -45.8504 O.2       1 UNK        -0.5000 
     67 C          -0.2535  -22.7279  -47.2802 C.2       11 UNK         0.5000 
     68 O          -0.6805  -23.4025  -48.2163 O.2       11 UNK        -0.5000 
     69 N          -1.0396  -22.0227  -46.4539 N.am      12 UNK        -0.5000 
     70 CA         -2.5011  -21.9255  -46.5234 C.3       12 UNK         0.1400 
     71 CB         -2.9862  -20.9543  -45.4371 C.3       12 UNK        -0.1800 
     72 C          -3.2310  -23.2748  -46.3749 C.2       12 UNK         0.5000 
     73 O          -4.3647  -23.4025  -46.8341 O.2       12 UNK        -0.5000 
     74 N          -2.5754  -24.2588  -45.7448 N.am      13 UNK        -0.5000 
     75 CA         -3.0516  -25.6371  -45.6427 C.3       13 UNK         0.1400 
     76 CB         -2.2459  -26.3658  -44.5569 C.3       13 UNK        -0.1800 
     77 C          -2.9725  -26.3979  -46.9826 C.2       13 UNK         0.5000 
     78 O          -3.7763  -27.3039  -47.2053 O.2       13 UNK        -0.5000 
     79 N          -2.0173  -26.0226  -47.8454 N.am      14 UNK        -0.5000 
     80 CA         -1.8431  -26.5760  -49.1870 C.3       14 UNK         0.1400 
     81 CB         -0.3462  -26.6215  -49.5359 C.3       14 UNK        -0.1800 
     82 C          -2.6300  -25.7441  -50.2109 C.2       14 UNK         0.5000 
     83 O          -3.4545  -26.2924  -50.9438 O.2       14 UNK        -0.5000 
     84 N          -2.3984  -24.4250  -50.2137 N.am      15 UNK        -0.5000 
     85 CA         -3.1246  -23.4437  -51.0162 C.3       15 UNK         0.1400 
     86 CB         -2.2048  -22.2436  -51.3001 C.3       15 UNK        -0.1800 
     87 C          -4.4108  -23.0376  -50.2767 C.2       15 UNK         0.5000 
     88 O          -4.5059  -21.9152  -49.7776 O.2       15 UNK        -0.5000 
     89 N          -5.3533  -23.9863  -50.1892 N.am      16 UNK        -0.5000 
     90 CA         -6.6144  -23.9139  -49.4477 C.3       16 UNK         0.1400 
     91 CB         -7.4257  -25.1889  -49.7277 C.3       16 UNK        -0.1800 
     92 C          -7.4339  -22.6507  -49.7690 C.2       16 UNK         0.5000 
     93 O          -7.9615  -22.5340  -50.8754 O.2       16 UNK        -0.5000 
     94 N          -7.4845  -21.7205  -48.8051 N.am      17 UNK        -0.5000 
     95 CA         -8.1147  -20.3970  -48.8916 C.3       17 UNK         0.1400 
     96 CB         -9.6492  -20.5271  -48.9967 C.3       17 UNK        -0.1800 
     97 C          -7.5036  -19.5036  -49.9959 C.2       17 UNK         0.5000 
     98 O          -8.2271  -18.7491  -50.6485 O.2       17 UNK        -0.5000 
     99 N          -6.1782  -19.6130  -50.1762 N.am      18 UNK        -0.5000 
    100 CA        -5.3544  -18.9368  -51.1823 C.3       18 UNK         0.1400 
    101 CB        -5.3681  -17.4063  -50.9867 C.3       18 UNK        -0.1800 
    102 C         -5.7001  -19.3788  -52.6183 C.2       18 UNK         0.5000 
    103 O         -5.7943  -18.5463  -53.5235 O.2       18 UNK        -0.5000 
    104 N         -5.8814  -20.6959  -52.7997 N.am      19 UNK        -0.5000 
    105 CA        -6.0949  -21.3534  -54.0909 C.3       19 UNK         0.1400 
    106 CB        -6.2442  -22.8680  -53.8800 C.3       19 UNK        -0.1800 
    107 C         -4.9432  -21.0635  -55.0697 C.2       19 UNK         0.5000 
    108 O         -3.7803  -21.2518  -54.7065 O.2       19 UNK        -0.5000 
    109 N         -5.2895  -20.5728  -56.2691 N.am      20 UNK        -0.5000 
    110 CA        -4.3760  -20.1196  -57.3291 C.3       20 UNK         0.1400 
    111 CB        -3.6280  -21.3204  -57.9455 C.3       20 UNK        -0.1800 
    112 C         -3.4180  -18.9939  -56.8723 C.2       20 UNK         0.5000 
    113 O         -2.2952  -18.8997  -57.3719 O.2       20 UNK        -0.5000 
    114 N         -3.8699  -18.1876  -55.8993 N.am      21 UNK        -0.5000 
    115 CA        -3.1524  -17.1598  -55.1389 C.3       21 UNK         0.1400 
    116 CB        -2.5877  -16.0485  -56.0457 C.3       21 UNK        -0.1800 
    117 C         -2.0751  -17.7401  -54.2035 C.2       21 UNK         0.5000 
    118 O         -2.1285  -17.4831  -53.0019 O.2       21 UNK        -0.5000 
    119 N         -1.1390  -18.5098  -54.7683 N.am      22 UNK        -0.5000 
    120 CA         0.0176  -19.1123  -54.0898 C.3       22 UNK         0.1400 
    121 C          0.1349  -20.6458  -54.3369 C.2       22 UNK         0.5000 
    122 N         -0.9211  -21.3511  -54.7211 N.am      22 UNK        -0.7600 
    123 O          1.2045  -21.2255  -54.1697 O.2       22 UNK        -0.5000 
    124 C124        1.3424  -18.3609  -54.4245 C.3       23 UNK        -0.0398 
    125 S125        1.3943  -16.6308  -53.8321 S.3       23 UNK        -0.2404 
    126 C126        2.2590  -16.8036  -52.2316 C.3       23 UNK        -0.0205 
    127 H127       -1.7408  -16.8143  -41.2447 H         1 UNK         0.0600 
    128 H128       -0.7436  -15.6548  -42.1276 H         1 UNK         0.0600 
    129 H129       -0.1919  -17.3208  -41.9275 H         1 UNK         0.0600 
    130 H130       -1.0524  -15.4487  -44.3548 H         1 UNK         0.3000 
    131 H131       -3.1972  -16.9045  -45.5857 H         1 UNK         0.0600 
    132 H132       -0.9281  -18.2264  -46.0698 H         1 UNK         0.0800 
    133 H133       -0.5637  -16.9273  -47.1608 H         1 UNK         0.0800 
    134 H134       -1.8179  -16.4698  -49.3460 H         1 UNK         0.0800 
    135 H135       -2.5881  -17.7614  -50.2257 H         1 UNK         0.0800 
    136 H136       -0.0005  -16.2047  -50.8589 H         1 UNK         0.1150 
    137 H137        2.7486  -19.4100  -51.5782 H         1 UNK         0.1150 
    138 H138       -0.7697  -20.0986  -49.2384 H         1 UNK         0.1150 
    139 H139        0.5308  -21.9747  -50.0367 H         1 UNK         0.0800 
    140 H140        1.7087  -21.7141  -51.2841 H         1 UNK         0.0800 
    141 H141        1.2814  -20.5888  -47.5657 H         1 UNK         0.0800 
    142 H142        2.7510  -21.1403  -46.8406 H         1 UNK         0.0800 
    143 H143        1.6899  -23.5992  -47.4516 H         1 UNK         0.0600 
    144 H144        1.5892  -22.0301  -45.0013 H         1 UNK         0.3000 
    145 H145        0.8735  -24.7263  -42.8754 H         1 UNK         0.0600 
    146 H146        3.0777  -24.2652  -41.8295 H         1 UNK         0.0600 
    147 H147        3.2899  -25.2169  -43.2906 H         1 UNK         0.0600 
    148 H148        3.6499  -23.4939  -43.3085 H         1 UNK         0.0600 
    149 H149        1.8627  -22.0265  -42.5079 H         1 UNK         0.3000 
    150 H150       -1.2667  -20.3980  -42.7653 H         1 UNK         0.0600 
    151 H151       -1.3418  -21.2535  -40.4123 H         1 UNK         0.0600 
    152 H152       -0.7648  -19.5954  -40.4805 H         1 UNK         0.0600 
    153 H153        0.3769  -20.9152  -40.2299 H         1 UNK         0.0600 
    154 H154        1.2659  -19.4026  -41.9862 H         1 UNK         0.3000 
    155 H155        3.0728  -19.4678  -44.7869 H         1 UNK         0.0600 
    156 H156        1.2342  -17.0306  -44.8372 H         1 UNK         0.0600 
    157 H157        1.6916  -18.0413  -46.2009 H         1 UNK         0.0600 
    158 H158        2.9025  -17.0430  -45.4123 H         1 UNK         0.0600 
    159 H159        2.8281  -17.3134  -42.8688 H         1 UNK         0.3000 
    160 H160        4.3163  -18.9859  -40.1729 H         1 UNK         0.0600 
    161 H161        5.9790  -17.2659  -42.0938 H         1 UNK         0.0600 
    162 H162        6.4203  -18.8701  -41.5206 H         1 UNK         0.0600 
    163 H163        6.3221  -17.5352  -40.3841 H         1 UNK         0.0600 
    164 H164        4.1789  -16.2004  -40.8021 H         1 UNK         0.3000 
    165 H165        0.7719  -15.6342  -40.1970 H         1 UNK         0.0600 
    166 H166        1.5075  -14.1890  -38.3335 H         1 UNK         0.0600 
    167 H167        1.5687  -15.8729  -37.8409 H         1 UNK         0.0600 
    168 H168        3.0571  -15.0287  -38.2512 H         1 UNK         0.0600 
    169 H169        2.8081  -13.7426  -40.3919 H         1 UNK         0.3000 
    170 H170        2.7354  -12.4634  -42.4557 H         1 UNK         0.0600 
    171 H171        4.8989  -13.4191  -41.6415 H         1 UNK         0.0600 
    172 H172        5.0568  -14.3702  -43.1131 H         1 UNK         0.0600 
    173 H173        5.1339  -12.6099  -43.1790 H         1 UNK         0.0600 
    174 H174        3.5917  -13.6732  -44.9361 H         1 UNK         0.3000 
    175 H175        2.5261  -12.6461  -46.8256 H         1 UNK         0.0600 
    176 H176        0.7814  -15.1322  -46.4147 H         1 UNK         0.0600 
    177 H177        1.4392  -14.6555  -47.9786 H         1 UNK         0.0600 
    178 H178        2.5233  -15.0865  -46.6679 H         1 UNK         0.0600 
    179 H179       -0.4352  -12.6895  -46.4864 H         1 UNK         0.3000 
    180 H180       -1.1004  -10.0955  -47.6689 H         1 UNK         0.0600 
    181 H181       -0.7509  -11.1795  -50.5116 H         1 UNK         0.0600 
    182 H182       -0.2281   -9.6106  -49.9158 H         1 UNK         0.0600 
    183 H183       -1.9414   -9.9725  -50.0272 H         1 UNK         0.0600 
    184 H184       -2.7382  -11.5347  -47.4084 H         1 UNK         0.3000 
    185 H185       -4.1091  -13.1546  -47.5130 H         1 UNK         0.0600 
    186 H186       -4.7368  -13.2905  -49.9286 H         1 UNK         0.0600 
    187 H187       -3.9475  -14.8565  -50.0560 H         1 UNK         0.0600 
    188 H188       -5.3655  -14.6590  -49.0245 H         1 UNK         0.0600 
    189 H189       -3.6008  -15.8773  -47.7906 H         1 UNK         0.3000 
    190 H190       -0.5876  -21.4510  -45.7447 H         1 UNK         0.3000 
    191 H191       -2.7565  -21.5130  -47.5017 H         1 UNK         0.0600 
    192 H192       -2.8564  -21.3700  -44.4379 H         1 UNK         0.0600 
    193 H193       -4.0454  -20.7278  -45.5628 H         1 UNK         0.0600 
    194 H194       -2.4456  -20.0101  -45.4716 H         1 UNK         0.0600 
    195 H195       -1.6702  -24.0539  -45.3465 H         1 UNK         0.3000 
    196 H196       -4.0985  -25.6161  -45.3327 H         1 UNK         0.0600 
    197 H197       -2.6207  -27.3792  -44.4081 H         1 UNK         0.0600 
    198 H198       -2.3146  -25.8487  -43.5994 H         1 UNK         0.0600 
    199 H199       -1.1910  -26.4428  -44.8216 H         1 UNK         0.0600 
    200 H200       -1.4369  -25.2256  -47.6133 H         1 UNK         0.3000 
    201 H201       -2.2225  -27.5997  -49.2188 H         1 UNK         0.0600 
    202 H202        0.2003  -27.2505  -48.8330 H         1 UNK         0.0600 
    203 H203        0.1109  -25.6317  -49.5197 H         1 UNK         0.0600 
    204 H204       -0.1918  -27.0373  -50.5323 H         1 UNK         0.0600 
    205 H205       -1.7388  -24.0467  -49.5363 H         1 UNK         0.3000 
    206 H206       -3.4043  -23.8834  -51.9757 H         1 UNK         0.0600 
    207 H207       -1.3053  -22.5508  -51.8337 H         1 UNK         0.0600 
    208 H208       -2.7101  -21.4997  -51.9178 H         1 UNK         0.0600 
    209 H209       -1.8976  -21.7522  -50.3777 H         1 UNK         0.0600 
    210 H210       -5.1431  -24.8815  -50.6123 H         1 UNK         0.3000 
    211 H211       -6.3709  -23.9077  -48.3850 H         1 UNK         0.0600 
    212 H212       -7.6503  -25.2983  -50.7895 H         1 UNK         0.0600 
    213 H213       -8.3749  -25.1739  -49.1905 H         1 UNK         0.0600 
    214 H214       -6.8846  -26.0790  -49.4057 H         1 UNK         0.0600 
    215 H215       -6.9761  -21.9019  -47.9502 H         1 UNK         0.3000 
    216 H216       -7.8949  -19.8952  -47.9483 H         1 UNK         0.0600 
    217 H217      -10.1307  -19.5520  -48.9155 H         1 UNK         0.0600 
    218 H218      -10.0477  -21.1513  -48.1970 H         1 UNK         0.0600 
    219 H219       -9.9555  -20.9637  -49.9477 H         1 UNK         0.0600 
    220 H220       -5.6852  -20.3256  -49.6450 H         1 UNK         0.3000 
    221 H221       -4.3325  -19.2763  -51.0070 H         1 UNK         0.0600 
    222 H222       -6.3402  -16.9713  -51.2189 H         1 UNK         0.0600 
    223 H223       -5.1171  -17.1415  -49.9600 H         1 UNK         0.0600 
    224 H224       -4.6344  -16.9264  -51.6356 H         1 UNK         0.0600 
    225 H225       -5.8319  -21.2971  -51.9906 H         1 UNK         0.3000 
    226 H226       -7.0270  -20.9683  -54.5089 H         1 UNK         0.0600 
    227 H227       -7.1191  -23.1008  -53.2748 H         1 UNK         0.0600 
    228 H228       -6.3687  -23.3841  -54.8329 H         1 UNK         0.0600 
    229 H229       -5.3700  -23.2955  -53.3888 H         1 UNK         0.0600 
    230 H230       -6.2724  -20.4400  -56.4644 H         1 UNK         0.3000 
    231 H231       -5.0016  -19.6841  -58.1094 H         1 UNK         0.0600 
    232 H232       -4.3232  -22.0975  -58.2629 H         1 UNK         0.0600 
    233 H233       -2.9259  -21.7661  -57.2402 H         1 UNK         0.0600 
    234 H234       -3.0587  -21.0181  -58.8252 H         1 UNK         0.0600 
    235 H235       -4.7833  -18.4030  -55.5174 H         1 UNK         0.3000 
    236 H236       -3.9046  -16.6971  -54.4978 H         1 UNK         0.0600 
    237 H237       -2.1600  -15.2442  -55.4459 H         1 UNK         0.0600 
    238 H238       -1.7987  -16.4119  -56.7041 H         1 UNK         0.0600 
    239 H239       -3.3695  -15.6116  -56.6668 H         1 UNK         0.0600 
    240 H240       -1.2295  -18.7087  -55.7602 H         1 UNK         0.3000 
    241 H241       -0.1474  -19.0456  -53.0158 H         1 UNK         0.0600 
    242 H242       -0.8069  -22.3393  -54.8733 H         1 UNK         0.3800 
    243 H243       -1.8543  -20.9555  -54.7767 H         1 UNK         0.3800 
    244 H244        2.2065  -18.8796  -54.0074 H         1 UNK         0.0800 
    245 H245        1.4986  -18.3534  -55.5041 H         1 UNK         0.0800 
    246 H246        2.3817  -15.8170  -51.7826 H         1 UNK         0.0800 
    247 H247        3.2638  -17.1948  -52.3981 H         1 UNK         0.0800 
@<TRIPOS>BOND
     1    1    2 1    
     2    1  127 1    
     3    1  128 1    
     4    1  129 1    
     5    2    3 2    
     6    2    4 am   BACKBONE|DICT|INTERRES
     7    4    5 1    
     8    4  130 1    
     9    5    6 1    
    10    5   65 1    
    11    5  131 1    
    12    6    7 1    
    13    6  132 1    
    14    6  133 1    
    15    7    8 1    
    16    8    9 1    
    17    8  134 1    
    18    8  135 1    
    19    9   10 ar   
    20    9   14 ar   
    21   10   11 ar   
    22   10  136 1    
    23   11   12 ar   
    24   11  126 1    
    25   12   13 ar   
    26   12  137 1    
    27   13   14 ar   
    28   13   15 1    
    29   14  138 1    
    30   15   16 1    
    31   15  139 1    
    32   15  140 1    
    33   16   17 1    
    34   17   18 1    
    35   17  141 1    
    36   17  142 1    
    37   18   19 1    
    38   18   67 1    
    39   18  143 1    
    40   19   20 am   BACKBONE|DICT|INTERRES
    41   19  144 1    
    42   20   21 2    
    43   20   22 1    
    44   22   23 1    
    45   22   24 1    
    46   22  145 1    
    47   23  146 1    
    48   23  147 1    
    49   23  148 1    
    50   24   25 am   BACKBONE|DICT|INTERRES
    51   24  149 1    
    52   25   26 2    
    53   25   27 1    
    54   27   28 1    
    55   27   29 1    
    56   27  150 1    
    57   28  151 1    
    58   28  152 1    
    59   28  153 1    
    60   29   30 am   BACKBONE|DICT|INTERRES
    61   29  154 1    
    62   30   31 2    
    63   30   32 1    
    64   32   33 1    
    65   32   34 1    
    66   32  155 1    
    67   33  156 1    
    68   33  157 1    
    69   33  158 1    
    70   34   35 am   BACKBONE|DICT|INTERRES
    71   34  159 1    
    72   35   36 2    
    73   35   37 1    
    74   37   38 1    
    75   37   39 1    
    76   37  160 1    
    77   38  161 1    
    78   38  162 1    
    79   38  163 1    
    80   39   40 am   BACKBONE|DICT|INTERRES
    81   39  164 1    
    82   40   41 2    
    83   40   42 1    
    84   42   43 1    
    85   42   44 1    
    86   42  165 1    
    87   43  166 1    
    88   43  167 1    
    89   43  168 1    
    90   44   45 am   BACKBONE|DICT|INTERRES
    91   44  169 1    
    92   45   46 2    
    93   45   47 1    
    94   47   48 1    
    95   47   49 1    
    96   47  170 1    
    97   48  171 1    
    98   48  172 1    
    99   48  173 1    
   100   49   50 am   BACKBONE|DICT|INTERRES
   101   49  174 1    
   102   50   51 2    
   103   50   52 1    
   104   52   53 1    
   105   52   54 1    
   106   52  175 1    
   107   53  176 1    
   108   53  177 1    
   109   53  178 1    
   110   54   55 am   BACKBONE|DICT|INTERRES
   111   54  179 1    
   112   55   56 2    
   113   55   57 1    
   114   57   58 1    
   115   57   59 1    
   116   57  180 1    
   117   58  181 1    
   118   58  182 1    
   119   58  183 1    
   120   59   60 am   BACKBONE|DICT|INTERRES
   121   59  184 1    
   122   60   61 2    
   123   60   62 1    
   124   62   63 1    
   125   62   64 1    
   126   62  185 1    
   127   63  186 1    
   128   63  187 1    
   129   63  188 1    
   130   64   65 am   BACKBONE|DICT|INTERRES
   131   64  189 1    
   132   65   66 2    
   133   67   68 2    
   134   67   69 am   BACKBONE|DICT|INTERRES
   135   69   70 1    
   136   69  190 1    
   137   70   71 1    
   138   70   72 1    
   139   70  191 1    
   140   71  192 1    
   141   71  193 1    
   142   71  194 1    
   143   72   73 2    
   144   72   74 am   BACKBONE|DICT|INTERRES
   145   74   75 1    
   146   74  195 1    
   147   75   76 1    
   148   75   77 1    
   149   75  196 1    
   150   76  197 1    
   151   76  198 1    
   152   76  199 1    
   153   77   78 2    
   154   77   79 am   BACKBONE|DICT|INTERRES
   155   79   80 1    
   156   79  200 1    
   157   80   81 1    
   158   80   82 1    
   159   80  201 1    
   160   81  202 1    
   161   81  203 1    
   162   81  204 1    
   163   82   83 2    
   164   82   84 am   BACKBONE|DICT|INTERRES
   165   84   85 1    
   166   84  205 1    
   167   85   86 1    
   168   85   87 1    
   169   85  206 1    
   170   86  207 1    
   171   86  208 1    
   172   86  209 1    
   173   87   88 2    
   174   87   89 am   BACKBONE|DICT|INTERRES
   175   89   90 1    
   176   89  210 1    
   177   90   91 1    
   178   90   92 1    
   179   90  211 1    
   180   91  212 1    
   181   91  213 1    
   182   91  214 1    
   183   92   93 2    
   184   92   94 am   BACKBONE|DICT|INTERRES
   185   94   95 1    
   186   94  215 1    
   187   95   96 1    
   188   95   97 1    
   189   95  216 1    
   190   96  217 1    
   191   96  218 1    
   192   96  219 1    
   193   97   98 2    
   194   97   99 am   BACKBONE|DICT|INTERRES
   195   99  100 1    
   196   99  220 1    
   197  100  101 1    
   198  100  102 1    
   199  100  221 1    
   200  101  222 1    
   201  101  223 1    
   202  101  224 1    
   203  102  103 2    
   204  102  104 am   BACKBONE|DICT|INTERRES
   205  104  105 1    
   206  104  225 1    
   207  105  106 1    
   208  105  107 1    
   209  105  226 1    
   210  106  227 1    
   211  106  228 1    
   212  106  229 1    
   213  107  108 2    
   214  107  109 am   BACKBONE|DICT|INTERRES
   215  109  110 1    
   216  109  230 1    
   217  110  111 1    
   218  110  112 1    
   219  110  231 1    
   220  111  232 1    
   221  111  233 1    
   222  111  234 1    
   223  112  113 2    
   224  112  114 am   BACKBONE|DICT|INTERRES
   225  114  115 1    
   226  114  235 1    
   227  115  116 1    
   228  115  117 1    
   229  115  236 1    
   230  116  237 1    
   231  116  238 1    
   232  116  239 1    
   233  117  118 2    
   234  117  119 am   BACKBONE|DICT|INTERRES
   235  119  120 1    
   236  119  240 1    
   237  120  121 1    
   238  120  124 1    
   239  120  241 1    
   240  121  122 am   BACKBONE|DICT|INTERRES
   241  121  123 2    
   242  122  242 1    
   243  122  243 1    
   244  124  125 1    
   245  124  244 1    
   246  124  245 1    
   247  125  126 1    
   248  126  246 1    
   249  126  247 1    
@<TRIPOS>SUBSTRUCTURE
     1 UNK         1 GROUP             0       ****    0 ROOT    
