@<TRIPOS>MOLECULE
3R540
247   249    1
SMALL
USER_CHARGES


@<TRIPOS>ATOM
      1 CA          1.8831  -16.9899  -48.0522 C.3       0 UNK        -0.1800 
      2 C           0.3674  -16.9479  -47.9739 C.2       0 UNK         0.5000 
      3 O          -0.1748  -16.1641  -47.2008 O.2       0 UNK        -0.5000 
      4 N          -0.3274  -17.7530  -48.7902 N.am      1 UNK        -0.5000 
      5 CA         -1.7977  -17.8388  -48.8381 C.3       1 UNK         0.1400 
      6 C6         -2.2925  -18.9614  -49.7795 C.3       23 UNK        -0.0398 
      7 S7         -1.9237  -20.6249  -49.1199 S.3       23 UNK        -0.2404 
      8 C8         -0.8123  -21.3458  -50.3635 C.3       23 UNK        -0.0205 
      9 C9          0.4894  -20.5738  -50.4662 C.ar      23 UNK        -0.0193 
     10 C10         0.6810  -19.6844  -51.5213 C.ar      23 UNK        -0.1150 
     11 C11         1.8390  -18.9097  -51.5989 C.ar      23 UNK        -0.0193 
     12 C12         2.8474  -19.0877  -50.6465 C.ar      23 UNK        -0.1150 
     13 C13         2.6774  -19.9935  -49.5921 C.ar      23 UNK        -0.0193 
     14 C14         1.4873  -20.7222  -49.4998 C.ar      23 UNK        -0.1150 
     15 C15         3.7608  -20.1450  -48.5324 C.3       23 UNK        -0.0205 
     16 S16         4.9416  -21.4666  -48.9463 S.3       23 UNK        -0.2404 
     17 C17         4.0854  -22.9448  -48.2995 C.3       23 UNK        -0.0398 
     18 CA          4.7157  -23.4853  -46.9903 C.3       11 UNK         0.1400 
     19 N           4.7227  -22.4692  -45.9319 N.am      11 UNK        -0.5000 
     20 C           5.7764  -22.1351  -45.1757 C.2       10 UNK         0.5000 
     21 O           6.9037  -22.6082  -45.3216 O.2       10 UNK        -0.5000 
     22 CA          5.5241  -21.1198  -44.0407 C.3       10 UNK         0.1400 
     23 CB          5.9041  -19.7049  -44.5015 C.3       10 UNK        -0.1800 
     24 N           4.1382  -21.1168  -43.5596 N.am      10 UNK        -0.5000 
     25 C           3.5426  -22.1533  -42.9473 C.2       9 UNK         0.5000 
     26 O           4.1308  -23.1964  -42.6639 O.2       9 UNK        -0.5000 
     27 CA          2.0299  -22.0566  -42.6618 C.3       9 UNK         0.1400 
     28 CB          1.7868  -21.6592  -41.1987 C.3       9 UNK        -0.1800 
     29 N           1.3075  -21.1283  -43.5291 N.am      9 UNK        -0.5000 
     30 C           1.2766  -21.1459  -44.8693 C.2       8 UNK         0.5000 
     31 O           1.8389  -21.9972  -45.5629 O.2       8 UNK        -0.5000 
     32 CA          0.5437  -19.9721  -45.5435 C.3       8 UNK         0.1400 
     33 CB         -0.9241  -20.3433  -45.7578 C.3       8 UNK        -0.1800 
     34 N           0.6074  -18.7204  -44.7793 N.am      8 UNK        -0.5000 
     35 C           1.7314  -18.0919  -44.4019 C.2       7 UNK         0.5000 
     36 O           2.8598  -18.4923  -44.6869 O.2       7 UNK        -0.5000 
     37 CA          1.5788  -16.8482  -43.5109 C.3       7 UNK         0.1400 
     38 CB          1.3854  -15.5796  -44.3459 C.3       7 UNK        -0.1800 
     39 N           0.4509  -16.9837  -42.5929 N.am      7 UNK        -0.5000 
     40 C           0.5480  -17.4431  -41.3395 C.2       6 UNK         0.5000 
     41 O           1.6105  -17.7624  -40.8054 O.2       6 UNK        -0.5000 
     42 CA         -0.7661  -17.5798  -40.5470 C.3       6 UNK         0.1400 
     43 CB         -1.0749  -16.2797  -39.7893 C.3       6 UNK        -0.1800 
     44 N          -1.9170  -17.9314  -41.3804 N.am      6 UNK        -0.5000 
     45 C          -2.0503  -19.0848  -42.0483 C.2       5 UNK         0.5000 
     46 O          -1.2063  -19.9808  -42.0447 O.2       5 UNK        -0.5000 
     47 CA         -3.3339  -19.2541  -42.8813 C.3       5 UNK         0.1400 
     48 CB         -4.4561  -19.8484  -42.0179 C.3       5 UNK        -0.1800 
     49 N          -3.8249  -18.0327  -43.5290 N.am      5 UNK        -0.5000 
     50 C          -3.1359  -17.2219  -44.3463 C.2       4 UNK         0.5000 
     51 O          -1.9253  -17.3307  -44.5537 O.2       4 UNK        -0.5000 
     52 CA         -3.9753  -16.1588  -45.0889 C.3       4 UNK         0.1400 
     53 CB         -5.0141  -15.4693  -44.1760 C.3       4 UNK        -0.1800 
     54 N          -3.1845  -15.1619  -45.8165 N.am      4 UNK        -0.5000 
     55 C          -2.3819  -14.2127  -45.3096 C.2       3 UNK         0.5000 
     56 O          -2.1605  -14.0736  -44.1053 O.2       3 UNK        -0.5000 
     57 CA         -1.7633  -13.2222  -46.3215 C.3       3 UNK         0.1400 
     58 CB         -0.3605  -12.7371  -45.9154 C.3       3 UNK        -0.1800 
     59 N          -1.6895  -13.8055  -47.6604 N.am      3 UNK        -0.5000 
     60 C          -2.3297  -13.3643  -48.7509 C.2       2 UNK         0.5000 
     61 O          -3.0387  -12.3579  -48.7651 O.2       2 UNK        -0.5000 
     62 CA         -2.1722  -14.1868  -50.0497 C.3       2 UNK         0.1400 
     63 CB         -1.1507  -13.5190  -50.9838 C.3       2 UNK        -0.1800 
     64 N          -1.7749  -15.5812  -49.8389 N.am      2 UNK        -0.5000 
     65 C          -2.4888  -16.4953  -49.1656 C.2       1 UNK         0.5000 
     66 O          -3.6226  -16.2812  -48.7353 O.2       1 UNK        -0.5000 
     67 C           3.9720  -24.7567  -46.5176 C.2       11 UNK         0.5000 
     68 O           3.7552  -25.6610  -47.3249 O.2       11 UNK        -0.5000 
     69 N           3.5693  -24.7949  -45.2356 N.am      12 UNK        -0.5000 
     70 CA          2.7348  -25.8088  -44.5810 C.3       12 UNK         0.1400 
     71 CB          3.4732  -27.1614  -44.5045 C.3       12 UNK        -0.1800 
     72 C           1.3174  -25.9286  -45.1868 C.2       12 UNK         0.5000 
     73 O           0.7053  -26.9953  -45.1033 O.2       12 UNK        -0.5000 
     74 N           0.8166  -24.8385  -45.7827 N.am      13 UNK        -0.5000 
     75 CA         -0.5080  -24.7570  -46.3918 C.3       13 UNK         0.1400 
     76 CB         -0.4138  -23.8803  -47.6485 C.3       13 UNK        -0.1800 
     77 C          -1.5376  -24.1973  -45.3946 C.2       13 UNK         0.5000 
     78 O          -1.1707  -23.4897  -44.4547 O.2       13 UNK        -0.5000 
     79 N          -2.8144  -24.5249  -45.6260 N.am      14 UNK        -0.5000 
     80 CA         -3.9376  -24.1632  -44.7550 C.3       14 UNK         0.1400 
     81 CB         -4.9151  -25.3502  -44.7160 C.3       14 UNK        -0.1800 
     82 C          -4.6769  -22.8841  -45.1967 C.2       14 UNK         0.5000 
     83 O          -5.5538  -22.4262  -44.4640 O.2       14 UNK        -0.5000 
     84 N          -4.3409  -22.3514  -46.3824 N.am      15 UNK        -0.5000 
     85 CA         -5.0026  -21.2293  -47.0620 C.3       15 UNK         0.1400 
     86 CB         -4.8225  -19.9067  -46.2904 C.3       15 UNK        -0.1800 
     87 C          -6.4724  -21.5353  -47.4146 C.2       15 UNK         0.5000 
     88 O          -7.3702  -20.7452  -47.1166 O.2       15 UNK        -0.5000 
     89 N          -6.6843  -22.6888  -48.0669 N.am      16 UNK        -0.5000 
     90 CA         -7.9717  -23.0963  -48.6431 C.3       16 UNK         0.1400 
     91 CB         -7.8929  -24.5752  -49.0510 C.3       16 UNK        -0.1800 
     92 C          -8.3912  -22.2203  -49.8441 C.2       16 UNK         0.5000 
     93 O          -9.5854  -22.0665  -50.1027 O.2       16 UNK        -0.5000 
     94 N          -7.3967  -21.6408  -50.5242 N.am      17 UNK        -0.5000 
     95 CA         -7.5204  -20.5383  -51.4697 C.3       17 UNK         0.1400 
     96 CB         -7.0127  -20.9956  -52.8466 C.3       17 UNK        -0.1800 
     97 C          -6.6674  -19.3779  -50.9316 C.2       17 UNK         0.5000 
     98 O          -5.7602  -19.6138  -50.1295 O.2       17 UNK        -0.5000 
     99 N          -6.9754  -18.1539  -51.3730 N.am      18 UNK        -0.5000 
    100 CA        -6.2786  -16.9297  -50.9768 C.3       18 UNK         0.1400 
    101 CB        -7.3152  -15.7950  -50.8456 C.3       18 UNK        -0.1800 
    102 C         -5.1268  -16.6135  -51.9562 C.2       18 UNK         0.5000 
    103 O         -4.3787  -17.5153  -52.3395 O.2       18 UNK        -0.5000 
    104 N         -5.0072  -15.3428  -52.3703 N.am      19 UNK        -0.5000 
    105 CA        -3.9696  -14.8265  -53.2716 C.3       19 UNK         0.1400 
    106 CB        -4.0985  -13.2990  -53.3666 C.3       19 UNK        -0.1800 
    107 C         -3.9640  -15.4561  -54.6768 C.2       19 UNK         0.5000 
    108 O         -2.9363  -15.4081  -55.3531 O.2       19 UNK        -0.5000 
    109 N         -5.0786  -16.0875  -55.0699 N.am      20 UNK        -0.5000 
    110 CA        -5.2172  -16.8981  -56.2817 C.3       20 UNK         0.1400 
    111 CB        -6.6700  -17.3871  -56.3852 C.3       20 UNK        -0.1800 
    112 C         -4.2423  -18.0934  -56.3475 C.2       20 UNK         0.5000 
    113 O         -3.9207  -18.5438  -57.4475 O.2       20 UNK        -0.5000 
    114 N         -3.7723  -18.5708  -55.1845 N.am      21 UNK        -0.5000 
    115 CA        -2.7389  -19.5999  -55.0791 C.3       21 UNK         0.1400 
    116 CB        -2.7781  -20.2075  -53.6704 C.3       21 UNK        -0.1800 
    117 C         -1.3252  -19.0713  -55.3982 C.2       21 UNK         0.5000 
    118 O         -0.4772  -19.8609  -55.8157 O.2       21 UNK        -0.5000 
    119 N         -1.0919  -17.7666  -55.1977 N.am      22 UNK        -0.5000 
    120 CA         0.1820  -17.0914  -55.4975 C.3       22 UNK         0.1400 
    121 C          0.1771  -16.4113  -56.8926 C.2       22 UNK         0.5000 
    122 N         -0.9361  -15.8413  -57.3367 N.am      22 UNK        -0.7600 
    123 O          1.1925  -16.4064  -57.5829 O.2       22 UNK        -0.5000 
    124 C124        0.5960  -16.0671  -54.4048 C.3       23 UNK        -0.0398 
    125 S125        0.5584  -16.7224  -52.7014 S.3       23 UNK        -0.2404 
    126 C126        1.9727  -17.8790  -52.7089 C.3       23 UNK        -0.0205 
    127 H127        2.3162  -16.1324  -47.5376 H         1 UNK         0.0600 
    128 H128        2.2169  -16.9563  -49.0878 H         1 UNK         0.0600 
    129 H129        2.2621  -17.8934  -47.5779 H         1 UNK         0.0600 
    130 H130        0.1678  -18.3844  -49.4064 H         1 UNK         0.3000 
    131 H131       -2.1285  -18.0842  -47.8277 H         1 UNK         0.0600 
    132 H132       -1.8774  -18.8360  -50.7783 H         1 UNK         0.0800 
    133 H133       -3.3732  -18.9054  -49.9019 H         1 UNK         0.0800 
    134 H134       -0.5982  -22.3809  -50.0978 H         1 UNK         0.0800 
    135 H135       -1.3240  -21.3813  -51.3251 H         1 UNK         0.0800 
    136 H136       -0.0905  -19.5617  -52.2685 H         1 UNK         0.1150 
    137 H137        3.7548  -18.5036  -50.7090 H         1 UNK         0.1150 
    138 H138        1.3265  -21.3959  -48.6719 H         1 UNK         0.1150 
    139 H139        4.3124  -19.2088  -48.4354 H         1 UNK         0.0800 
    140 H140        3.3175  -20.3319  -47.5530 H         1 UNK         0.0800 
    141 H141        3.0288  -22.7288  -48.1464 H         1 UNK         0.0800 
    142 H142        4.1246  -23.7039  -49.0826 H         1 UNK         0.0800 
    143 H143        5.7379  -23.7945  -47.2171 H         1 UNK         0.0600 
    144 H144        3.8208  -22.0489  -45.7315 H         1 UNK         0.3000 
    145 H145        6.1685  -21.3922  -43.2024 H         1 UNK         0.0600 
    146 H146        5.7458  -18.9732  -43.7092 H         1 UNK         0.0600 
    147 H147        5.3187  -19.3946  -45.3680 H         1 UNK         0.0600 
    148 H148        6.9564  -19.6567  -44.7846 H         1 UNK         0.0600 
    149 H149        3.5867  -20.2968  -43.7879 H         1 UNK         0.3000 
    150 H150        1.6029  -23.0479  -42.8256 H         1 UNK         0.0600 
    151 H151        2.3005  -22.3374  -40.5161 H         1 UNK         0.0600 
    152 H152        0.7255  -21.6949  -40.9520 H         1 UNK         0.0600 
    153 H153        2.1446  -20.6494  -40.9928 H         1 UNK         0.0600 
    154 H154        0.7530  -20.4228  -43.0597 H         1 UNK         0.3000 
    155 H155        1.0055  -19.7949  -46.5158 H         1 UNK         0.0600 
    156 H156       -1.0230  -21.1883  -46.4342 H         1 UNK         0.0600 
    157 H157       -1.4819  -19.5131  -46.1840 H         1 UNK         0.0600 
    158 H158       -1.3969  -20.6341  -44.8225 H         1 UNK         0.0600 
    159 H159       -0.2843  -18.2831  -44.5613 H         1 UNK         0.3000 
    160 H160        2.5088  -16.7340  -42.9500 H         1 UNK         0.0600 
    161 H161        0.4016  -15.5687  -44.8122 H         1 UNK         0.0600 
    162 H162        2.1347  -15.5004  -45.1341 H         1 UNK         0.0600 
    163 H163        1.4646  -14.6865  -43.7262 H         1 UNK         0.0600 
    164 H164       -0.4670  -16.7894  -42.9749 H         1 UNK         0.3000 
    165 H165       -0.6269  -18.3782  -39.8150 H         1 UNK         0.0600 
    166 H166       -1.9561  -16.3905  -39.1573 H         1 UNK         0.0600 
    167 H167       -0.2441  -15.9990  -39.1404 H         1 UNK         0.0600 
    168 H168       -1.2530  -15.4485  -40.4731 H         1 UNK         0.0600 
    169 H169       -2.6527  -17.2446  -41.4578 H         1 UNK         0.3000 
    170 H170       -3.1236  -19.9724  -43.6720 H         1 UNK         0.0600 
    171 H171       -4.1323  -20.7738  -41.5393 H         1 UNK         0.0600 
    172 H172       -4.7667  -19.1610  -41.2302 H         1 UNK         0.0600 
    173 H173       -5.3320  -20.0896  -42.6208 H         1 UNK         0.0600 
    174 H174       -4.8107  -17.8504  -43.4119 H         1 UNK         0.3000 
    175 H175       -4.5248  -16.7013  -45.8594 H         1 UNK         0.0600 
    176 H176       -4.5486  -15.0211  -43.2975 H         1 UNK         0.0600 
    177 H177       -5.5437  -14.6802  -44.7102 H         1 UNK         0.0600 
    178 H178       -5.7699  -16.1720  -43.8247 H         1 UNK         0.0600 
    179 H179       -3.2597  -15.2163  -46.8245 H         1 UNK         0.3000 
    180 H180       -2.4243  -12.3536  -46.3222 H         1 UNK         0.0600 
    181 H181       -0.3457  -12.3519  -44.8953 H         1 UNK         0.0600 
    182 H182       -0.0263  -11.9309  -46.5683 H         1 UNK         0.0600 
    183 H183        0.3749  -13.5374  -45.9821 H         1 UNK         0.0600 
    184 H184       -1.1436  -14.6638  -47.7136 H         1 UNK         0.3000 
    185 H185       -3.1460  -14.1914  -50.5393 H         1 UNK         0.0600 
    186 H186       -1.4448  -12.4946  -51.2162 H         1 UNK         0.0600 
    187 H187       -0.1594  -13.4815  -50.5303 H         1 UNK         0.0600 
    188 H188       -1.0624  -14.0523  -51.9300 H         1 UNK         0.0600 
    189 H189       -0.8472  -15.8367  -50.1459 H         1 UNK         0.3000 
    190 H190        3.8414  -24.0231  -44.6402 H         1 UNK         0.3000 
    191 H191        2.5895  -25.4605  -43.5576 H         1 UNK         0.0600 
    192 H192        2.9283  -27.8704  -43.8803 H         1 UNK         0.0600 
    193 H193        4.4651  -27.0443  -44.0681 H         1 UNK         0.0600 
    194 H194        3.5902  -27.6165  -45.4882 H         1 UNK         0.0600 
    195 H195        1.3371  -23.9689  -45.7393 H         1 UNK         0.3000 
    196 H196       -0.8372  -25.7518  -46.6996 H         1 UNK         0.0600 
    197 H197        0.0097  -22.9025  -47.4274 H         1 UNK         0.0600 
    198 H198        0.2211  -24.3475  -48.4016 H         1 UNK         0.0600 
    199 H199       -1.3937  -23.7249  -48.1010 H         1 UNK         0.0600 
    200 H200       -3.0342  -25.1156  -46.4154 H         1 UNK         0.3000 
    201 H201       -3.5775  -23.9919  -43.7382 H         1 UNK         0.0600 
    202 H202       -5.7493  -25.1510  -44.0419 H         1 UNK         0.0600 
    203 H203       -4.4225  -26.2548  -44.3589 H         1 UNK         0.0600 
    204 H204       -5.3333  -25.5613  -45.7011 H         1 UNK         0.0600 
    205 H205       -3.5946  -22.7960  -46.8959 H         1 UNK         0.3000 
    206 H206       -4.4984  -21.1098  -48.0199 H         1 UNK         0.0600 
    207 H207       -3.7706  -19.7061  -46.1011 H         1 UNK         0.0600 
    208 H208       -5.2110  -19.0669  -46.8678 H         1 UNK         0.0600 
    209 H209       -5.3437  -19.9162  -45.3333 H         1 UNK         0.0600 
    210 H210       -5.8980  -23.2955  -48.2464 H         1 UNK         0.3000 
    211 H211       -8.7390  -22.9928  -47.8731 H         1 UNK         0.0600 
    212 H212       -7.1307  -24.7434  -49.8129 H         1 UNK         0.0600 
    213 H213       -8.8450  -24.9185  -49.4580 H         1 UNK         0.0600 
    214 H214       -7.6594  -25.2088  -48.1951 H         1 UNK         0.0600 
    215 H215       -6.4571  -21.7703  -50.1749 H         1 UNK         0.3000 
    216 H216       -8.5576  -20.2064  -51.5505 H         1 UNK         0.0600 
    217 H217       -7.6177  -21.8154  -53.2343 H         1 UNK         0.0600 
    218 H218       -5.9786  -21.3380  -52.7995 H         1 UNK         0.0600 
    219 H219       -7.0582  -20.1841  -53.5740 H         1 UNK         0.0600 
    220 H220       -7.7144  -18.0495  -52.0528 H         1 UNK         0.3000 
    221 H221       -5.8258  -17.0708  -49.9939 H         1 UNK         0.0600 
    222 H222       -6.8636  -14.8858  -50.4464 H         1 UNK         0.0600 
    223 H223       -7.7797  -15.5525  -51.8024 H         1 UNK         0.0600 
    224 H224       -8.1114  -16.0761  -50.1558 H         1 UNK         0.0600 
    225 H225       -5.6746  -14.6666  -52.0280 H         1 UNK         0.3000 
    226 H226       -3.0034  -15.0667  -52.8259 H         1 UNK         0.0600 
    227 H227       -4.0170  -12.8290  -52.3867 H         1 UNK         0.0600 
    228 H228       -3.3092  -12.8787  -53.9915 H         1 UNK         0.0600 
    229 H229       -5.0540  -13.0037  -53.8018 H         1 UNK         0.0600 
    230 H230       -5.8716  -16.0720  -54.4468 H         1 UNK         0.3000 
    231 H231       -5.0055  -16.2547  -57.1381 H         1 UNK         0.0600 
    232 H232       -6.8216  -17.9728  -57.2929 H         1 UNK         0.0600 
    233 H233       -7.3675  -16.5500  -56.4208 H         1 UNK         0.0600 
    234 H234       -6.9429  -18.0179  -55.5382 H         1 UNK         0.0600 
    235 H235       -4.0847  -18.1553  -54.3132 H         1 UNK         0.3000 
    236 H236       -2.9654  -20.3937  -55.7942 H         1 UNK         0.0600 
    237 H237       -3.7605  -20.6198  -53.4428 H         1 UNK         0.0600 
    238 H238       -2.0544  -21.0178  -53.5780 H         1 UNK         0.0600 
    239 H239       -2.5439  -19.4638  -52.9098 H         1 UNK         0.0600 
    240 H240       -1.8534  -17.1670  -54.9107 H         1 UNK         0.3000 
    241 H241        0.9717  -17.8417  -55.5431 H         1 UNK         0.0600 
    242 H242       -1.7488  -15.7620  -56.7307 H         1 UNK         0.3800 
    243 H243       -0.9440  -15.4046  -58.2445 H         1 UNK         0.3800 
    244 H244       -0.0706  -15.2030  -54.4301 H         1 UNK         0.0800 
    245 H245        1.5980  -15.6826  -54.6030 H         1 UNK         0.0800 
    246 H246        2.8992  -17.3115  -52.6110 H         1 UNK         0.0800 
    247 H247        2.0286  -18.4128  -53.6566 H         1 UNK         0.0800 
@<TRIPOS>BOND
     1    1    2 1    
     2    1  127 1    
     3    1  128 1    
     4    1  129 1    
     5    2    3 2    
     6    2    4 am   BACKBONE|DICT|INTERRES
     7    4    5 1    
     8    4  130 1    
     9    5    6 1    
    10    5   65 1    
    11    5  131 1    
    12    6    7 1    
    13    6  132 1    
    14    6  133 1    
    15    7    8 1    
    16    8    9 1    
    17    8  134 1    
    18    8  135 1    
    19    9   10 ar   
    20    9   14 ar   
    21   10   11 ar   
    22   10  136 1    
    23   11   12 ar   
    24   11  126 1    
    25   12   13 ar   
    26   12  137 1    
    27   13   14 ar   
    28   13   15 1    
    29   14  138 1    
    30   15   16 1    
    31   15  139 1    
    32   15  140 1    
    33   16   17 1    
    34   17   18 1    
    35   17  141 1    
    36   17  142 1    
    37   18   19 1    
    38   18   67 1    
    39   18  143 1    
    40   19   20 am   BACKBONE|DICT|INTERRES
    41   19  144 1    
    42   20   21 2    
    43   20   22 1    
    44   22   23 1    
    45   22   24 1    
    46   22  145 1    
    47   23  146 1    
    48   23  147 1    
    49   23  148 1    
    50   24   25 am   BACKBONE|DICT|INTERRES
    51   24  149 1    
    52   25   26 2    
    53   25   27 1    
    54   27   28 1    
    55   27   29 1    
    56   27  150 1    
    57   28  151 1    
    58   28  152 1    
    59   28  153 1    
    60   29   30 am   BACKBONE|DICT|INTERRES
    61   29  154 1    
    62   30   31 2    
    63   30   32 1    
    64   32   33 1    
    65   32   34 1    
    66   32  155 1    
    67   33  156 1    
    68   33  157 1    
    69   33  158 1    
    70   34   35 am   BACKBONE|DICT|INTERRES
    71   34  159 1    
    72   35   36 2    
    73   35   37 1    
    74   37   38 1    
    75   37   39 1    
    76   37  160 1    
    77   38  161 1    
    78   38  162 1    
    79   38  163 1    
    80   39   40 am   BACKBONE|DICT|INTERRES
    81   39  164 1    
    82   40   41 2    
    83   40   42 1    
    84   42   43 1    
    85   42   44 1    
    86   42  165 1    
    87   43  166 1    
    88   43  167 1    
    89   43  168 1    
    90   44   45 am   BACKBONE|DICT|INTERRES
    91   44  169 1    
    92   45   46 2    
    93   45   47 1    
    94   47   48 1    
    95   47   49 1    
    96   47  170 1    
    97   48  171 1    
    98   48  172 1    
    99   48  173 1    
   100   49   50 am   BACKBONE|DICT|INTERRES
   101   49  174 1    
   102   50   51 2    
   103   50   52 1    
   104   52   53 1    
   105   52   54 1    
   106   52  175 1    
   107   53  176 1    
   108   53  177 1    
   109   53  178 1    
   110   54   55 am   BACKBONE|DICT|INTERRES
   111   54  179 1    
   112   55   56 2    
   113   55   57 1    
   114   57   58 1    
   115   57   59 1    
   116   57  180 1    
   117   58  181 1    
   118   58  182 1    
   119   58  183 1    
   120   59   60 am   BACKBONE|DICT|INTERRES
   121   59  184 1    
   122   60   61 2    
   123   60   62 1    
   124   62   63 1    
   125   62   64 1    
   126   62  185 1    
   127   63  186 1    
   128   63  187 1    
   129   63  188 1    
   130   64   65 am   BACKBONE|DICT|INTERRES
   131   64  189 1    
   132   65   66 2    
   133   67   68 2    
   134   67   69 am   BACKBONE|DICT|INTERRES
   135   69   70 1    
   136   69  190 1    
   137   70   71 1    
   138   70   72 1    
   139   70  191 1    
   140   71  192 1    
   141   71  193 1    
   142   71  194 1    
   143   72   73 2    
   144   72   74 am   BACKBONE|DICT|INTERRES
   145   74   75 1    
   146   74  195 1    
   147   75   76 1    
   148   75   77 1    
   149   75  196 1    
   150   76  197 1    
   151   76  198 1    
   152   76  199 1    
   153   77   78 2    
   154   77   79 am   BACKBONE|DICT|INTERRES
   155   79   80 1    
   156   79  200 1    
   157   80   81 1    
   158   80   82 1    
   159   80  201 1    
   160   81  202 1    
   161   81  203 1    
   162   81  204 1    
   163   82   83 2    
   164   82   84 am   BACKBONE|DICT|INTERRES
   165   84   85 1    
   166   84  205 1    
   167   85   86 1    
   168   85   87 1    
   169   85  206 1    
   170   86  207 1    
   171   86  208 1    
   172   86  209 1    
   173   87   88 2    
   174   87   89 am   BACKBONE|DICT|INTERRES
   175   89   90 1    
   176   89  210 1    
   177   90   91 1    
   178   90   92 1    
   179   90  211 1    
   180   91  212 1    
   181   91  213 1    
   182   91  214 1    
   183   92   93 2    
   184   92   94 am   BACKBONE|DICT|INTERRES
   185   94   95 1    
   186   94  215 1    
   187   95   96 1    
   188   95   97 1    
   189   95  216 1    
   190   96  217 1    
   191   96  218 1    
   192   96  219 1    
   193   97   98 2    
   194   97   99 am   BACKBONE|DICT|INTERRES
   195   99  100 1    
   196   99  220 1    
   197  100  101 1    
   198  100  102 1    
   199  100  221 1    
   200  101  222 1    
   201  101  223 1    
   202  101  224 1    
   203  102  103 2    
   204  102  104 am   BACKBONE|DICT|INTERRES
   205  104  105 1    
   206  104  225 1    
   207  105  106 1    
   208  105  107 1    
   209  105  226 1    
   210  106  227 1    
   211  106  228 1    
   212  106  229 1    
   213  107  108 2    
   214  107  109 am   BACKBONE|DICT|INTERRES
   215  109  110 1    
   216  109  230 1    
   217  110  111 1    
   218  110  112 1    
   219  110  231 1    
   220  111  232 1    
   221  111  233 1    
   222  111  234 1    
   223  112  113 2    
   224  112  114 am   BACKBONE|DICT|INTERRES
   225  114  115 1    
   226  114  235 1    
   227  115  116 1    
   228  115  117 1    
   229  115  236 1    
   230  116  237 1    
   231  116  238 1    
   232  116  239 1    
   233  117  118 2    
   234  117  119 am   BACKBONE|DICT|INTERRES
   235  119  120 1    
   236  119  240 1    
   237  120  121 1    
   238  120  124 1    
   239  120  241 1    
   240  121  122 am   BACKBONE|DICT|INTERRES
   241  121  123 2    
   242  122  242 1    
   243  122  243 1    
   244  124  125 1    
   245  124  244 1    
   246  124  245 1    
   247  125  126 1    
   248  126  246 1    
   249  126  247 1    
@<TRIPOS>SUBSTRUCTURE
     1 UNK         1 GROUP             0       ****    0 ROOT    
