@<TRIPOS>MOLECULE
3R540
247   249    1
SMALL
USER_CHARGES


@<TRIPOS>ATOM
      1 CA          4.3302  -21.0847  -49.1600 C.3       0 UNK        -0.1800 
      2 C           4.2184  -19.8475  -48.2804 C.2       0 UNK         0.5000 
      3 O           4.1166  -19.9679  -47.0595 O.2       0 UNK        -0.5000 
      4 N           4.2766  -18.6547  -48.8902 N.am      1 UNK        -0.5000 
      5 CA          4.2230  -17.3495  -48.2097 C.3       1 UNK         0.1400 
      6 C6          4.0794  -16.1701  -49.2015 C.3       23 UNK        -0.0398 
      7 S7          2.5173  -16.2543  -50.1397 S.3       23 UNK        -0.2404 
      8 C8          1.5340  -14.9559  -49.3073 C.3       23 UNK        -0.0205 
      9 C9          0.0525  -14.9424  -49.6874 C.ar      23 UNK        -0.0193 
     10 C10        -0.3806  -15.2899  -50.9736 C.ar      23 UNK        -0.1150 
     11 C11        -1.7399  -15.2886  -51.2949 C.ar      23 UNK        -0.0193 
     12 C12        -2.6724  -14.8968  -50.3328 C.ar      23 UNK        -0.1150 
     13 C13        -2.2625  -14.5534  -49.0431 C.ar      23 UNK        -0.0193 
     14 C14        -0.8985  -14.5661  -48.7300 C.ar      23 UNK        -0.1150 
     15 C15        -3.3076  -14.2000  -47.9938 C.3       23 UNK        -0.0205 
     16 S16        -4.3262  -15.6468  -47.5400 S.3       23 UNK        -0.2404 
     17 C17        -3.2597  -16.5145  -46.3430 C.3       23 UNK        -0.0398 
     18 CA         -2.2079  -17.4431  -46.9943 C.3       11 UNK         0.1400 
     19 N          -1.0594  -17.6182  -46.1044 N.am      11 UNK        -0.5000 
     20 C           0.2061  -17.7828  -46.5086 C.2       10 UNK         0.5000 
     21 O           0.5550  -17.7951  -47.6851 O.2       10 UNK        -0.5000 
     22 CA          1.2663  -17.9640  -45.4087 C.3       10 UNK         0.1400 
     23 CB          1.8956  -16.6094  -45.0524 C.3       10 UNK        -0.1800 
     24 N           0.7262  -18.5905  -44.1982 N.am      10 UNK        -0.5000 
     25 C           0.3809  -19.8853  -44.1349 C.2       9 UNK         0.5000 
     26 O           0.5103  -20.6675  -45.0760 O.2       9 UNK        -0.5000 
     27 CA         -0.2656  -20.3930  -42.8319 C.3       9 UNK         0.1400 
     28 CB          0.8067  -20.9418  -41.8789 C.3       9 UNK        -0.1800 
     29 N          -1.0999  -19.4109  -42.1308 N.am      9 UNK        -0.5000 
     30 C          -2.1632  -18.7846  -42.6553 C.2       8 UNK         0.5000 
     31 O          -2.4895  -18.8859  -43.8395 O.2       8 UNK        -0.5000 
     32 CA         -3.0043  -17.8869  -41.7333 C.3       8 UNK         0.1400 
     33 CB         -2.4897  -17.7832  -40.2842 C.3       8 UNK        -0.1800 
     34 N          -3.0539  -16.5570  -42.3264 N.am      8 UNK        -0.5000 
     35 C          -4.1461  -15.7949  -42.4634 C.2       7 UNK         0.5000 
     36 O          -5.2641  -16.1382  -42.0764 O.2       7 UNK        -0.5000 
     37 CA         -3.9756  -14.4314  -43.1765 C.3       7 UNK         0.1400 
     38 CB         -4.7938  -13.3093  -42.5038 C.3       7 UNK        -0.1800 
     39 N          -2.5755  -14.0251  -43.3728 N.am      7 UNK        -0.5000 
     40 C          -1.6755  -13.7286  -42.4251 C.2       6 UNK         0.5000 
     41 O          -1.9251  -13.6614  -41.2196 O.2       6 UNK        -0.5000 
     42 CA         -0.2365  -13.5002  -42.9206 C.3       6 UNK         0.1400 
     43 CB          0.0828  -12.0000  -42.9943 C.3       6 UNK        -0.1800 
     44 N           0.7481  -14.1595  -42.0641 N.am      6 UNK        -0.5000 
     45 C           0.8083  -15.4708  -41.8007 C.2       5 UNK         0.5000 
     46 O           0.0703  -16.3137  -42.3214 O.2       5 UNK        -0.5000 
     47 CA          1.9304  -15.9088  -40.8405 C.3       5 UNK         0.1400 
     48 CB          1.6151  -17.2404  -40.1413 C.3       5 UNK        -0.1800 
     49 N           3.1962  -16.0465  -41.5560 N.am      5 UNK        -0.5000 
     50 C           3.9652  -15.0428  -41.9931 C.2       4 UNK         0.5000 
     51 O           3.7020  -13.8567  -41.7880 O.2       4 UNK        -0.5000 
     52 CA          5.2273  -15.3950  -42.8095 C.3       4 UNK         0.1400 
     53 CB          6.5081  -15.0446  -42.0275 C.3       4 UNK        -0.1800 
     54 N           5.3025  -16.7649  -43.3407 N.am      4 UNK        -0.5000 
     55 C           5.4379  -17.9250  -42.6763 C.2       3 UNK         0.5000 
     56 O           5.3752  -18.0215  -41.4513 O.2       3 UNK        -0.5000 
     57 CA          5.6739  -19.2007  -43.5151 C.3       3 UNK         0.1400 
     58 CB          4.3675  -19.9989  -43.6452 C.3       3 UNK        -0.1800 
     59 N           6.2056  -18.9339  -44.8543 N.am      3 UNK        -0.5000 
     60 C           7.3960  -18.3679  -45.1132 C.2       2 UNK         0.5000 
     61 O           8.2435  -18.1484  -44.2471 O.2       2 UNK        -0.5000 
     62 CA          7.6844  -17.9346  -46.5680 C.3       2 UNK         0.1400 
     63 CB          8.7150  -18.8735  -47.2139 C.3       2 UNK        -0.1800 
     64 N           6.5028  -17.8724  -47.4329 N.am      2 UNK        -0.5000 
     65 C           5.4115  -17.1130  -47.2490 C.2       1 UNK         0.5000 
     66 O           5.2974  -16.2988  -46.3316 O.2       1 UNK        -0.5000 
     67 C          -2.7900  -18.8009  -47.4338 C.2       11 UNK         0.5000 
     68 O          -3.3119  -18.9072  -48.5448 O.2       11 UNK        -0.5000 
     69 N          -2.6571  -19.8244  -46.5774 N.am      12 UNK        -0.5000 
     70 CA         -2.9044  -21.2239  -46.9186 C.3       12 UNK         0.1400 
     71 CB         -2.9255  -22.0742  -45.6401 C.3       12 UNK        -0.1800 
     72 C          -1.8602  -21.7492  -47.9192 C.2       12 UNK         0.5000 
     73 O          -2.2331  -22.3649  -48.9200 O.2       12 UNK        -0.5000 
     74 N          -0.5823  -21.4550  -47.6337 N.am      13 UNK        -0.5000 
     75 CA          0.6103  -21.7625  -48.4226 C.3       13 UNK         0.1400 
     76 CB          0.6501  -20.8736  -49.6850 C.3       13 UNK        -0.1800 
     77 C           0.7498  -23.2725  -48.7156 C.2       13 UNK         0.5000 
     78 O           0.4017  -24.0972  -47.8671 O.2       13 UNK        -0.5000 
     79 N           1.2344  -23.6226  -49.9135 N.am      14 UNK        -0.5000 
     80 CA          1.3502  -24.9932  -50.4152 C.3       14 UNK         0.1400 
     81 CB          2.4795  -25.0381  -51.4606 C.3       14 UNK        -0.1800 
     82 C          -0.0009  -25.4973  -50.9685 C.2       14 UNK         0.5000 
     83 O          -0.0912  -25.8658  -52.1407 O.2       14 UNK        -0.5000 
     84 N          -1.0342  -25.4626  -50.1136 N.am      15 UNK        -0.5000 
     85 CA         -2.4386  -25.7928  -50.3895 C.3       15 UNK         0.1400 
     86 CB         -2.5975  -27.2908  -50.7217 C.3       15 UNK        -0.1800 
     87 C          -3.0873  -24.8712  -51.4465 C.2       15 UNK         0.5000 
     88 O          -4.0004  -25.2875  -52.1619 O.2       15 UNK        -0.5000 
     89 N          -2.6307  -23.6138  -51.5066 N.am      16 UNK        -0.5000 
     90 CA         -3.1238  -22.5915  -52.4274 C.3       16 UNK         0.1400 
     91 CB         -2.1498  -21.4090  -52.4449 C.3       16 UNK        -0.1800 
     92 C          -4.5465  -22.1213  -52.0821 C.2       16 UNK         0.5000 
     93 O          -5.2848  -21.7281  -52.9848 O.2       16 UNK        -0.5000 
     94 N          -4.9238  -22.1957  -50.7983 N.am      17 UNK        -0.5000 
     95 CA         -6.2920  -21.9542  -50.3357 C.3       17 UNK         0.1400 
     96 CB         -6.3081  -21.7900  -48.8105 C.3       17 UNK        -0.1800 
     97 C          -7.2690  -23.0582  -50.7775 C.2       17 UNK         0.5000 
     98 O          -8.4042  -22.7494  -51.1382 O.2       17 UNK        -0.5000 
     99 N          -6.8044  -24.3166  -50.7848 N.am      18 UNK        -0.5000 
    100 CA        -7.5679  -25.4743  -51.2609 C.3       18 UNK         0.1400 
    101 CB        -6.8953  -26.7705  -50.7851 C.3       18 UNK        -0.1800 
    102 C         -7.7313  -25.4679  -52.7921 C.2       18 UNK         0.5000 
    103 O         -8.7886  -25.8481  -53.2951 O.2       18 UNK        -0.5000 
    104 N         -6.6982  -24.9882  -53.4990 N.am      19 UNK        -0.5000 
    105 CA        -6.7076  -24.7410  -54.9430 C.3       19 UNK         0.1400 
    106 CB        -5.2557  -24.5842  -55.4218 C.3       19 UNK        -0.1800 
    107 C         -7.5396  -23.5052  -55.3522 C.2       19 UNK         0.5000 
    108 O         -7.7995  -23.3276  -56.5426 O.2       19 UNK        -0.5000 
    109 N         -7.9174  -22.6709  -54.3707 N.am      20 UNK        -0.5000 
    110 CA        -8.6365  -21.3971  -54.4901 C.3       20 UNK         0.1400 
    111 CB       -10.0486  -21.6064  -55.0753 C.3       20 UNK        -0.1800 
    112 C         -7.8311  -20.3036  -55.2261 C.2       20 UNK         0.5000 
    113 O         -8.4180  -19.3805  -55.7938 O.2       20 UNK        -0.5000 
    114 N         -6.4983  -20.4175  -55.1870 N.am      21 UNK        -0.5000 
    115 CA        -5.5532  -19.4299  -55.7017 C.3       21 UNK         0.1400 
    116 CB        -4.2604  -20.1485  -56.1193 C.3       21 UNK        -0.1800 
    117 C         -5.2558  -18.3466  -54.6503 C.2       21 UNK         0.5000 
    118 O         -5.0946  -17.1799  -55.0107 O.2       21 UNK        -0.5000 
    119 N         -5.2054  -18.7561  -53.3773 N.am      22 UNK        -0.5000 
    120 CA        -4.9870  -17.9018  -52.2036 C.3       22 UNK         0.1400 
    121 C         -6.1103  -18.1609  -51.1596 C.2       22 UNK         0.5000 
    122 N         -5.8111  -18.3535  -49.8810 N.am      22 UNK        -0.7600 
    123 O         -7.2898  -18.1534  -51.5037 O.2       22 UNK        -0.5000 
    124 C124       -3.5438  -18.0220  -51.6424 C.3       23 UNK        -0.0398 
    125 S125       -2.2362  -17.5526  -52.8302 S.3       23 UNK        -0.2404 
    126 C126       -2.2038  -15.7355  -52.6730 C.3       23 UNK        -0.0205 
    127 H127        3.6311  -21.8526  -48.8321 H         1 UNK         0.0600 
    128 H128        5.3368  -21.4969  -49.0935 H         1 UNK         0.0600 
    129 H129        4.1228  -20.8561  -50.2055 H         1 UNK         0.0600 
    130 H130        4.3431  -18.6154  -49.8975 H         1 UNK         0.3000 
    131 H131        3.3292  -17.3659  -47.5870 H         1 UNK         0.0600 
    132 H132        4.9089  -16.1636  -49.9105 H         1 UNK         0.0800 
    133 H133        4.1229  -15.2127  -48.6784 H         1 UNK         0.0800 
    134 H134        1.9639  -13.9800  -49.5355 H         1 UNK         0.0800 
    135 H135        1.6287  -15.0989  -48.2297 H         1 UNK         0.0800 
    136 H136        0.3350  -15.5860  -51.7270 H         1 UNK         0.1150 
    137 H137       -3.7264  -14.8975  -50.5735 H         1 UNK         0.1150 
    138 H138       -0.5776  -14.3033  -47.7319 H         1 UNK         0.1150 
    139 H139       -3.9624  -13.4272  -48.3988 H         1 UNK         0.0800 
    140 H140       -2.8458  -13.7697  -47.1043 H         1 UNK         0.0800 
    141 H141       -2.7596  -15.7523  -45.7465 H         1 UNK         0.0800 
    142 H142       -3.8887  -17.0664  -45.6417 H         1 UNK         0.0800 
    143 H143       -1.8493  -16.9696  -47.9073 H         1 UNK         0.0600 
    144 H144       -1.2681  -17.7115  -45.1187 H         1 UNK         0.3000 
    145 H145        2.0501  -18.6090  -45.8105 H         1 UNK         0.0600 
    146 H146        2.3794  -16.1540  -45.9155 H         1 UNK         0.0600 
    147 H147        2.6516  -16.7201  -44.2779 H         1 UNK         0.0600 
    148 H148        1.1477  -15.8999  -44.7018 H         1 UNK         0.0600 
    149 H149        0.5402  -17.9828  -43.4066 H         1 UNK         0.3000 
    150 H150       -0.9212  -21.2226  -43.1026 H         1 UNK         0.0600 
    151 H151        1.5253  -20.1767  -41.5888 H         1 UNK         0.0600 
    152 H152        1.3692  -21.7473  -42.3532 H         1 UNK         0.0600 
    153 H153        0.3615  -21.3502  -40.9716 H         1 UNK         0.0600 
    154 H154       -0.8818  -19.2476  -41.1592 H         1 UNK         0.3000 
    155 H155       -4.0026  -18.3282  -41.7123 H         1 UNK         0.0600 
    156 H156       -3.1589  -17.1693  -39.6811 H         1 UNK         0.0600 
    157 H157       -1.5018  -17.3268  -40.2389 H         1 UNK         0.0600 
    158 H158       -2.4379  -18.7619  -39.8056 H         1 UNK         0.0600 
    159 H159       -2.1647  -16.2054  -42.6575 H         1 UNK         0.3000 
    160 H160       -4.3876  -14.5706  -44.1769 H         1 UNK         0.0600 
    161 H161       -4.5119  -13.1683  -41.4602 H         1 UNK         0.0600 
    162 H162       -5.8599  -13.5384  -42.5224 H         1 UNK         0.0600 
    163 H163       -4.6596  -12.3589  -43.0202 H         1 UNK         0.0600 
    164 H164       -2.2637  -14.0214  -44.3329 H         1 UNK         0.3000 
    165 H165       -0.1345  -13.9235  -43.9217 H         1 UNK         0.0600 
    166 H166        1.0839  -11.8286  -43.3906 H         1 UNK         0.0600 
    167 H167       -0.6191  -11.4821  -43.6492 H         1 UNK         0.0600 
    168 H168        0.0251  -11.5286  -42.0122 H         1 UNK         0.0600 
    169 H169        1.4498  -13.5632  -41.6454 H         1 UNK         0.3000 
    170 H170        2.0421  -15.1444  -40.0686 H         1 UNK         0.0600 
    171 H171        2.4282  -17.5415  -39.4805 H         1 UNK         0.0600 
    172 H172        1.4542  -18.0425  -40.8593 H         1 UNK         0.0600 
    173 H173        0.7175  -17.1554  -39.5293 H         1 UNK         0.0600 
    174 H174        3.5317  -16.9874  -41.7121 H         1 UNK         0.3000 
    175 H175        5.1976  -14.7506  -43.6895 H         1 UNK         0.0600 
    176 H176        6.5185  -13.9909  -41.7463 H         1 UNK         0.0600 
    177 H177        6.5960  -15.6264  -41.1097 H         1 UNK         0.0600 
    178 H178        7.3989  -15.2286  -42.6284 H         1 UNK         0.0600 
    179 H179        5.3286  -16.8072  -44.3548 H         1 UNK         0.3000 
    180 H180        6.4015  -19.8148  -42.9807 H         1 UNK         0.0600 
    181 H181        4.5265  -20.9343  -44.1819 H         1 UNK         0.0600 
    182 H182        3.6058  -19.4336  -44.1812 H         1 UNK         0.0600 
    183 H183        3.9608  -20.2515  -42.6652 H         1 UNK         0.0600 
    184 H184        5.5802  -19.1219  -45.6292 H         1 UNK         0.3000 
    185 H185        8.1120  -16.9311  -46.5242 H         1 UNK         0.0600 
    186 H186        9.6285  -18.9220  -46.6195 H         1 UNK         0.0600 
    187 H187        8.3294  -19.8897  -47.3064 H         1 UNK         0.0600 
    188 H188        8.9962  -18.5279  -48.2088 H         1 UNK         0.0600 
    189 H189        6.4888  -18.5202  -48.2070 H         1 UNK         0.3000 
    190 H190       -2.3091  -19.6312  -45.6445 H         1 UNK         0.3000 
    191 H191       -3.8846  -21.2938  -47.3862 H         1 UNK         0.0600 
    192 H192       -3.6780  -21.7132  -44.9387 H         1 UNK         0.0600 
    193 H193       -3.1642  -23.1134  -45.8697 H         1 UNK         0.0600 
    194 H194       -1.9616  -22.0649  -45.1316 H         1 UNK         0.0600 
    195 H195       -0.3842  -21.0159  -46.7394 H         1 UNK         0.3000 
    196 H196        1.4578  -21.4904  -47.7925 H         1 UNK         0.0600 
    197 H197        1.6121  -20.9329  -50.1926 H         1 UNK         0.0600 
    198 H198        0.4915  -19.8252  -49.4330 H         1 UNK         0.0600 
    199 H199       -0.1187  -21.1584  -50.3999 H         1 UNK         0.0600 
    200 H200        1.4657  -22.8915  -50.5700 H         1 UNK         0.3000 
    201 H201        1.6328  -25.6557  -49.5944 H         1 UNK         0.0600 
    202 H202        2.6256  -26.0520  -51.8355 H         1 UNK         0.0600 
    203 H203        3.4271  -24.7134  -51.0305 H         1 UNK         0.0600 
    204 H204        2.2632  -24.3980  -52.3169 H         1 UNK         0.0600 
    205 H205       -0.8410  -25.1095  -49.1817 H         1 UNK         0.3000 
    206 H206       -2.9781  -25.6044  -49.4604 H         1 UNK         0.0600 
    207 H207       -2.1248  -27.9154  -49.9638 H         1 UNK         0.0600 
    208 H208       -3.6490  -27.5748  -50.7620 H         1 UNK         0.0600 
    209 H209       -2.1563  -27.5414  -51.6867 H         1 UNK         0.0600 
    210 H210       -1.9687  -23.3103  -50.8028 H         1 UNK         0.3000 
    211 H211       -3.1490  -23.0221  -53.4297 H         1 UNK         0.0600 
    212 H212       -2.0896  -20.9330  -51.4669 H         1 UNK         0.0600 
    213 H213       -2.4669  -20.6514  -53.1622 H         1 UNK         0.0600 
    214 H214       -1.1465  -21.7259  -52.7297 H         1 UNK         0.0600 
    215 H215       -4.2364  -22.4758  -50.1102 H         1 UNK         0.3000 
    216 H216       -6.6450  -21.0212  -50.7780 H         1 UNK         0.0600 
    217 H217       -7.3286  -21.6961  -48.4366 H         1 UNK         0.0600 
    218 H218       -5.8481  -22.6396  -48.3047 H         1 UNK         0.0600 
    219 H219       -5.7785  -20.8853  -48.5156 H         1 UNK         0.0600 
    220 H220       -5.8487  -24.4850  -50.5098 H         1 UNK         0.3000 
    221 H221       -8.5655  -25.4303  -50.8186 H         1 UNK         0.0600 
    222 H222       -5.9072  -26.8985  -51.2255 H         1 UNK         0.0600 
    223 H223       -6.7865  -26.7860  -49.7006 H         1 UNK         0.0600 
    224 H224       -7.4906  -27.6405  -51.0646 H         1 UNK         0.0600 
    225 H225       -5.8346  -24.7824  -53.0089 H         1 UNK         0.3000 
    226 H226       -7.1416  -25.6114  -55.4391 H         1 UNK         0.0600 
    227 H227       -5.2097  -24.4984  -56.5081 H         1 UNK         0.0600 
    228 H228       -4.7915  -23.6907  -55.0049 H         1 UNK         0.0600 
    229 H229       -4.6481  -25.4435  -55.1370 H         1 UNK         0.0600 
    230 H230       -7.6361  -22.9125  -53.4307 H         1 UNK         0.3000 
    231 H231       -8.7594  -21.0326  -53.4692 H         1 UNK         0.0600 
    232 H232      -10.0151  -21.8917  -56.1269 H         1 UNK         0.0600 
    233 H233      -10.6400  -20.6928  -55.0049 H         1 UNK         0.0600 
    234 H234      -10.5882  -22.3827  -54.5327 H         1 UNK         0.0600 
    235 H235       -6.1044  -21.1696  -54.6301 H         1 UNK         0.3000 
    236 H236       -5.9749  -18.9439  -56.5840 H         1 UNK         0.0600 
    237 H237       -3.7995  -20.6714  -55.2807 H         1 UNK         0.0600 
    238 H238       -4.4540  -20.8809  -56.9033 H         1 UNK         0.0600 
    239 H239       -3.5280  -19.4397  -56.5078 H         1 UNK         0.0600 
    240 H240       -5.3866  -19.7337  -53.1805 H         1 UNK         0.3000 
    241 H241       -5.1318  -16.8593  -52.4905 H         1 UNK         0.0600 
    242 H242       -4.8557  -18.4166  -49.5384 H         1 UNK         0.3800 
    243 H243       -6.5681  -18.4770  -49.2292 H         1 UNK         0.3800 
    244 H244       -3.3596  -19.0465  -51.3231 H         1 UNK         0.0800 
    245 H245       -3.4276  -17.4163  -50.7459 H         1 UNK         0.0800 
    246 H246       -1.5321  -15.3295  -53.4305 H         1 UNK         0.0800 
    247 H247       -3.1926  -15.3336  -52.8987 H         1 UNK         0.0800 
@<TRIPOS>BOND
     1    1    2 1    
     2    1  127 1    
     3    1  128 1    
     4    1  129 1    
     5    2    3 2    
     6    2    4 am   BACKBONE|DICT|INTERRES
     7    4    5 1    
     8    4  130 1    
     9    5    6 1    
    10    5   65 1    
    11    5  131 1    
    12    6    7 1    
    13    6  132 1    
    14    6  133 1    
    15    7    8 1    
    16    8    9 1    
    17    8  134 1    
    18    8  135 1    
    19    9   10 ar   
    20    9   14 ar   
    21   10   11 ar   
    22   10  136 1    
    23   11   12 ar   
    24   11  126 1    
    25   12   13 ar   
    26   12  137 1    
    27   13   14 ar   
    28   13   15 1    
    29   14  138 1    
    30   15   16 1    
    31   15  139 1    
    32   15  140 1    
    33   16   17 1    
    34   17   18 1    
    35   17  141 1    
    36   17  142 1    
    37   18   19 1    
    38   18   67 1    
    39   18  143 1    
    40   19   20 am   BACKBONE|DICT|INTERRES
    41   19  144 1    
    42   20   21 2    
    43   20   22 1    
    44   22   23 1    
    45   22   24 1    
    46   22  145 1    
    47   23  146 1    
    48   23  147 1    
    49   23  148 1    
    50   24   25 am   BACKBONE|DICT|INTERRES
    51   24  149 1    
    52   25   26 2    
    53   25   27 1    
    54   27   28 1    
    55   27   29 1    
    56   27  150 1    
    57   28  151 1    
    58   28  152 1    
    59   28  153 1    
    60   29   30 am   BACKBONE|DICT|INTERRES
    61   29  154 1    
    62   30   31 2    
    63   30   32 1    
    64   32   33 1    
    65   32   34 1    
    66   32  155 1    
    67   33  156 1    
    68   33  157 1    
    69   33  158 1    
    70   34   35 am   BACKBONE|DICT|INTERRES
    71   34  159 1    
    72   35   36 2    
    73   35   37 1    
    74   37   38 1    
    75   37   39 1    
    76   37  160 1    
    77   38  161 1    
    78   38  162 1    
    79   38  163 1    
    80   39   40 am   BACKBONE|DICT|INTERRES
    81   39  164 1    
    82   40   41 2    
    83   40   42 1    
    84   42   43 1    
    85   42   44 1    
    86   42  165 1    
    87   43  166 1    
    88   43  167 1    
    89   43  168 1    
    90   44   45 am   BACKBONE|DICT|INTERRES
    91   44  169 1    
    92   45   46 2    
    93   45   47 1    
    94   47   48 1    
    95   47   49 1    
    96   47  170 1    
    97   48  171 1    
    98   48  172 1    
    99   48  173 1    
   100   49   50 am   BACKBONE|DICT|INTERRES
   101   49  174 1    
   102   50   51 2    
   103   50   52 1    
   104   52   53 1    
   105   52   54 1    
   106   52  175 1    
   107   53  176 1    
   108   53  177 1    
   109   53  178 1    
   110   54   55 am   BACKBONE|DICT|INTERRES
   111   54  179 1    
   112   55   56 2    
   113   55   57 1    
   114   57   58 1    
   115   57   59 1    
   116   57  180 1    
   117   58  181 1    
   118   58  182 1    
   119   58  183 1    
   120   59   60 am   BACKBONE|DICT|INTERRES
   121   59  184 1    
   122   60   61 2    
   123   60   62 1    
   124   62   63 1    
   125   62   64 1    
   126   62  185 1    
   127   63  186 1    
   128   63  187 1    
   129   63  188 1    
   130   64   65 am   BACKBONE|DICT|INTERRES
   131   64  189 1    
   132   65   66 2    
   133   67   68 2    
   134   67   69 am   BACKBONE|DICT|INTERRES
   135   69   70 1    
   136   69  190 1    
   137   70   71 1    
   138   70   72 1    
   139   70  191 1    
   140   71  192 1    
   141   71  193 1    
   142   71  194 1    
   143   72   73 2    
   144   72   74 am   BACKBONE|DICT|INTERRES
   145   74   75 1    
   146   74  195 1    
   147   75   76 1    
   148   75   77 1    
   149   75  196 1    
   150   76  197 1    
   151   76  198 1    
   152   76  199 1    
   153   77   78 2    
   154   77   79 am   BACKBONE|DICT|INTERRES
   155   79   80 1    
   156   79  200 1    
   157   80   81 1    
   158   80   82 1    
   159   80  201 1    
   160   81  202 1    
   161   81  203 1    
   162   81  204 1    
   163   82   83 2    
   164   82   84 am   BACKBONE|DICT|INTERRES
   165   84   85 1    
   166   84  205 1    
   167   85   86 1    
   168   85   87 1    
   169   85  206 1    
   170   86  207 1    
   171   86  208 1    
   172   86  209 1    
   173   87   88 2    
   174   87   89 am   BACKBONE|DICT|INTERRES
   175   89   90 1    
   176   89  210 1    
   177   90   91 1    
   178   90   92 1    
   179   90  211 1    
   180   91  212 1    
   181   91  213 1    
   182   91  214 1    
   183   92   93 2    
   184   92   94 am   BACKBONE|DICT|INTERRES
   185   94   95 1    
   186   94  215 1    
   187   95   96 1    
   188   95   97 1    
   189   95  216 1    
   190   96  217 1    
   191   96  218 1    
   192   96  219 1    
   193   97   98 2    
   194   97   99 am   BACKBONE|DICT|INTERRES
   195   99  100 1    
   196   99  220 1    
   197  100  101 1    
   198  100  102 1    
   199  100  221 1    
   200  101  222 1    
   201  101  223 1    
   202  101  224 1    
   203  102  103 2    
   204  102  104 am   BACKBONE|DICT|INTERRES
   205  104  105 1    
   206  104  225 1    
   207  105  106 1    
   208  105  107 1    
   209  105  226 1    
   210  106  227 1    
   211  106  228 1    
   212  106  229 1    
   213  107  108 2    
   214  107  109 am   BACKBONE|DICT|INTERRES
   215  109  110 1    
   216  109  230 1    
   217  110  111 1    
   218  110  112 1    
   219  110  231 1    
   220  111  232 1    
   221  111  233 1    
   222  111  234 1    
   223  112  113 2    
   224  112  114 am   BACKBONE|DICT|INTERRES
   225  114  115 1    
   226  114  235 1    
   227  115  116 1    
   228  115  117 1    
   229  115  236 1    
   230  116  237 1    
   231  116  238 1    
   232  116  239 1    
   233  117  118 2    
   234  117  119 am   BACKBONE|DICT|INTERRES
   235  119  120 1    
   236  119  240 1    
   237  120  121 1    
   238  120  124 1    
   239  120  241 1    
   240  121  122 am   BACKBONE|DICT|INTERRES
   241  121  123 2    
   242  122  242 1    
   243  122  243 1    
   244  124  125 1    
   245  124  244 1    
   246  124  245 1    
   247  125  126 1    
   248  126  246 1    
   249  126  247 1    
@<TRIPOS>SUBSTRUCTURE
     1 UNK         1 GROUP             0       ****    0 ROOT    
