@<TRIPOS>MOLECULE
3R540
247   249    1
SMALL
USER_CHARGES


@<TRIPOS>ATOM
      1 CA          0.2062  -14.4279  -50.3986 C.3       0 UNK        -0.1800 
      2 C           1.7135  -14.6172  -50.3162 C.2       0 UNK         0.5000 
      3 O           2.4520  -13.9965  -51.0817 O.2       0 UNK        -0.5000 
      4 N           2.1729  -15.4709  -49.3935 N.am      1 UNK        -0.5000 
      5 CA          3.5852  -15.7591  -49.1251 C.3       1 UNK         0.1400 
      6 C6          3.7566  -17.0668  -48.3138 C.3       23 UNK        -0.0398 
      7 S7          3.2852  -18.5493  -49.2648 S.3       23 UNK        -0.2404 
      8 C8          1.9101  -19.2149  -48.2772 C.3       23 UNK        -0.0205 
      9 C9          0.5890  -18.5260  -48.5773 C.ar      23 UNK        -0.0193 
     10 C10        -0.0257  -18.7139  -49.8182 C.ar      23 UNK        -0.1150 
     11 C11        -1.2745  -18.1517  -50.0904 C.ar      23 UNK        -0.0193 
     12 C12        -1.9141  -17.4011  -49.1004 C.ar      23 UNK        -0.1150 
     13 C13        -1.3038  -17.1910  -47.8609 C.ar      23 UNK        -0.0193 
     14 C14        -0.0452  -17.7461  -47.6064 C.ar      23 UNK        -0.1150 
     15 C15        -2.0245  -16.3877  -46.7910 C.3       23 UNK        -0.0205 
     16 S16        -3.2909  -17.3782  -45.9436 S.3       23 UNK        -0.2404 
     17 C17        -2.2610  -18.6090  -45.0776 C.3       23 UNK        -0.0398 
     18 CA         -2.1345  -19.9428  -45.8545 C.3       11 UNK         0.1400 
     19 N          -0.9458  -20.6986  -45.4435 N.am      11 UNK        -0.5000 
     20 C          -0.5239  -21.8550  -45.9747 C.2       10 UNK         0.5000 
     21 O          -1.0757  -22.4079  -46.9240 O.2       10 UNK        -0.5000 
     22 CA          0.6818  -22.5353  -45.3068 C.3       10 UNK         0.1400 
     23 CB          2.0047  -22.0038  -45.8747 C.3       10 UNK        -0.1800 
     24 N           0.6581  -22.3421  -43.8583 N.am      10 UNK        -0.5000 
     25 C          -0.0511  -23.0983  -43.0095 C.2       9 UNK         0.5000 
     26 O          -0.6874  -24.0954  -43.3503 O.2       9 UNK        -0.5000 
     27 CA         -0.0726  -22.6548  -41.5335 C.3       9 UNK         0.1400 
     28 CB          1.0849  -23.3028  -40.7594 C.3       9 UNK        -0.1800 
     29 N          -0.0095  -21.2010  -41.3641 N.am      9 UNK        -0.5000 
     30 C          -0.9723  -20.3493  -41.7431 C.2       8 UNK         0.5000 
     31 O          -2.0278  -20.7019  -42.2703 O.2       8 UNK        -0.5000 
     32 CA         -0.6863  -18.8472  -41.5450 C.3       8 UNK         0.1400 
     33 CB         -1.0838  -18.4132  -40.1268 C.3       8 UNK        -0.1800 
     34 N           0.7008  -18.4430  -41.8050 N.am      8 UNK        -0.5000 
     35 C           1.3951  -18.6844  -42.9275 C.2       7 UNK         0.5000 
     36 O           0.9597  -19.3646  -43.8567 O.2       7 UNK        -0.5000 
     37 CA          2.7985  -18.0598  -43.0280 C.3       7 UNK         0.1400 
     38 CB          3.3059  -18.0004  -44.4805 C.3       7 UNK        -0.1800 
     39 N           2.7808  -16.7034  -42.4891 N.am      7 UNK        -0.5000 
     40 C           3.4103  -16.2850  -41.3834 C.2       6 UNK         0.5000 
     41 O           4.0874  -17.0203  -40.6647 O.2       6 UNK        -0.5000 
     42 CA          3.2624  -14.7944  -41.0105 C.3       6 UNK         0.1400 
     43 CB          4.5478  -14.0294  -41.3609 C.3       6 UNK        -0.1800 
     44 N           2.1342  -14.1415  -41.6770 N.am      6 UNK        -0.5000 
     45 C           0.8424  -14.3583  -41.3940 C.2       5 UNK         0.5000 
     46 O           0.4578  -15.0776  -40.4726 O.2       5 UNK        -0.5000 
     47 CA         -0.1897  -13.6899  -42.3231 C.3       5 UNK         0.1400 
     48 CB         -0.6909  -12.3726  -41.7136 C.3       5 UNK        -0.1800 
     49 N           0.3237  -13.4262  -43.6708 N.am      5 UNK        -0.5000 
     50 C           0.6879  -14.3573  -44.5604 C.2       4 UNK         0.5000 
     51 O           0.6554  -15.5656  -44.3299 O.2       4 UNK        -0.5000 
     52 CA          1.2252  -13.8623  -45.9137 C.3       4 UNK         0.1400 
     53 CB          0.1290  -13.2087  -46.7766 C.3       4 UNK        -0.1800 
     54 N           2.3973  -12.9901  -45.7991 N.am      4 UNK        -0.5000 
     55 C           2.4860  -11.7421  -45.3125 C.2       3 UNK         0.5000 
     56 O           1.5509  -11.1413  -44.7815 O.2       3 UNK        -0.5000 
     57 CA          3.8532  -11.0394  -45.4442 C.3       3 UNK         0.1400 
     58 CB          4.6248  -11.1156  -44.1182 C.3       3 UNK        -0.1800 
     59 N           4.6873  -11.5969  -46.5119 N.am      3 UNK        -0.5000 
     60 C           4.4257  -11.4992  -47.8228 C.2       2 UNK         0.5000 
     61 O           3.4991  -10.8343  -48.2879 O.2       2 UNK        -0.5000 
     62 CA          5.3226  -12.3105  -48.7785 C.3       2 UNK         0.1400 
     63 CB          6.7378  -12.5883  -48.2233 C.3       2 UNK        -0.1800 
     64 N           4.6717  -13.5579  -49.1935 N.am      2 UNK        -0.5000 
     65 C           4.2590  -14.5665  -48.4121 C.2       1 UNK         0.5000 
     66 O           4.3690  -14.5727  -47.1838 O.2       1 UNK        -0.5000 
     67 C          -3.4265  -20.7778  -45.7533 C.2       11 UNK         0.5000 
     68 O          -4.2528  -20.7337  -46.6646 O.2       11 UNK        -0.5000 
     69 N          -3.5334  -21.5901  -44.6923 N.am      12 UNK        -0.5000 
     70 CA         -4.6153  -22.5507  -44.4593 C.3       12 UNK         0.1400 
     71 CB         -4.4019  -23.2040  -43.0852 C.3       12 UNK        -0.1800 
     72 C          -4.7644  -23.6319  -45.5536 C.2       12 UNK         0.5000 
     73 O          -5.8386  -24.2233  -45.6654 O.2       12 UNK        -0.5000 
     74 N          -3.7036  -23.8632  -46.3380 N.am      13 UNK        -0.5000 
     75 CA         -3.6719  -24.7740  -47.4811 C.3       13 UNK         0.1400 
     76 CB         -2.5350  -25.7858  -47.2554 C.3       13 UNK        -0.1800 
     77 C          -3.4704  -24.0242  -48.8129 C.2       13 UNK         0.5000 
     78 O          -3.2825  -24.6850  -49.8350 O.2       13 UNK        -0.5000 
     79 N          -3.4729  -22.6791  -48.7866 N.am      14 UNK        -0.5000 
     80 CA         -3.1434  -21.7595  -49.8846 C.3       14 UNK         0.1400 
     81 CB         -4.3223  -21.6634  -50.8715 C.3       14 UNK        -0.1800 
     82 C          -1.8081  -22.1264  -50.5679 C.2       14 UNK         0.5000 
     83 O          -1.7606  -22.3100  -51.7869 O.2       14 UNK        -0.5000 
     84 N          -0.7763  -22.3327  -49.7363 N.am      15 UNK        -0.5000 
     85 CA          0.5027  -22.9937  -50.0130 C.3       15 UNK         0.1400 
     86 CB          1.3291  -22.2750  -51.0989 C.3       15 UNK        -0.1800 
     87 C           0.3097  -24.4915  -50.3126 C.2       15 UNK         0.5000 
     88 O           0.7098  -25.3297  -49.5041 O.2       15 UNK        -0.5000 
     89 N          -0.3268  -24.7913  -51.4485 N.am      16 UNK        -0.5000 
     90 CA         -0.7318  -26.1319  -51.8677 C.3       16 UNK         0.1400 
     91 CB          0.4506  -26.8309  -52.5658 C.3       16 UNK        -0.1800 
     92 C          -1.9906  -26.1146  -52.7596 C.2       16 UNK         0.5000 
     93 O          -2.3785  -27.1700  -53.2630 O.2       16 UNK        -0.5000 
     94 N          -2.6069  -24.9405  -52.9662 N.am      17 UNK        -0.5000 
     95 CA         -3.7486  -24.7510  -53.8650 C.3       17 UNK         0.1400 
     96 CB         -3.6797  -23.3262  -54.4324 C.3       17 UNK        -0.1800 
     97 C          -5.1155  -25.0016  -53.1962 C.2       17 UNK         0.5000 
     98 O          -6.1414  -24.8497  -53.8631 O.2       17 UNK        -0.5000 
     99 N          -5.1220  -25.3258  -51.8951 N.am      18 UNK        -0.5000 
    100 CA        -6.2626  -25.5237  -50.9925 C.3       18 UNK         0.1400 
    101 CB        -7.1908  -26.6578  -51.4707 C.3       18 UNK        -0.1800 
    102 C         -7.0311  -24.2191  -50.7159 C.2       18 UNK         0.5000 
    103 O         -7.0706  -23.7646  -49.5729 O.2       18 UNK        -0.5000 
    104 N         -7.5952  -23.6337  -51.7749 N.am      19 UNK        -0.5000 
    105 CA        -8.2951  -22.3510  -51.7828 C.3       19 UNK         0.1400 
    106 CB        -9.7320  -22.5419  -51.2600 C.3       19 UNK        -0.1800 
    107 C         -8.2862  -21.6907  -53.1772 C.2       19 UNK         0.5000 
    108 O         -8.8790  -20.6225  -53.3324 O.2       19 UNK        -0.5000 
    109 N         -7.6465  -22.3193  -54.1777 N.am      20 UNK        -0.5000 
    110 CA        -7.6591  -21.8692  -55.5730 C.3       20 UNK         0.1400 
    111 CB        -7.4141  -23.0815  -56.4868 C.3       20 UNK        -0.1800 
    112 C         -6.6598  -20.7353  -55.8819 C.2       20 UNK         0.5000 
    113 O         -6.7130  -20.1829  -56.9820 O.2       20 UNK        -0.5000 
    114 N         -5.7745  -20.4065  -54.9331 N.am      21 UNK        -0.5000 
    115 CA        -4.8034  -19.3189  -55.0321 C.3       21 UNK         0.1400 
    116 CB        -3.3806  -19.8955  -54.9461 C.3       21 UNK        -0.1800 
    117 C         -5.0290  -18.3134  -53.8959 C.2       21 UNK         0.5000 
    118 O         -5.5182  -18.6881  -52.8275 O.2       21 UNK        -0.5000 
    119 N         -4.6165  -17.0656  -54.1470 N.am      22 UNK        -0.5000 
    120 CA        -4.5806  -15.9404  -53.1929 C.3       22 UNK         0.1400 
    121 C         -5.9742  -15.3707  -52.7854 C.2       22 UNK         0.5000 
    122 N         -7.0572  -15.7128  -53.4721 N.am      22 UNK        -0.7600 
    123 O         -6.0757  -14.5776  -51.8531 O.2       22 UNK        -0.5000 
    124 C124       -3.6666  -16.2010  -51.9604 C.3       23 UNK        -0.0398 
    125 S125       -2.0093  -16.8320  -52.4136 S.3       23 UNK        -0.2404 
    126 C126       -1.9290  -18.3731  -51.4470 C.3       23 UNK        -0.0205 
    127 H127       -0.3213  -15.0490  -49.6756 H         1 UNK         0.0600 
    128 H128       -0.1487  -14.6883  -51.3951 H         1 UNK         0.0600 
    129 H129       -0.0531  -13.3872  -50.2058 H         1 UNK         0.0600 
    130 H130        1.5112  -15.9852  -48.8307 H         1 UNK         0.3000 
    131 H131        4.0956  -15.8955  -50.0812 H         1 UNK         0.0600 
    132 H132        3.1857  -17.0177  -47.3862 H         1 UNK         0.0800 
    133 H133        4.7991  -17.1997  -48.0186 H         1 UNK         0.0800 
    134 H134        2.1527  -19.1528  -47.2161 H         1 UNK         0.0800 
    135 H135        1.8044  -20.2763  -48.5022 H         1 UNK         0.0800 
    136 H136        0.4688  -19.3069  -50.5730 H         1 UNK         0.1150 
    137 H137       -2.8892  -16.9773  -49.2902 H         1 UNK         0.1150 
    138 H138        0.4199  -17.6037  -46.6403 H         1 UNK         0.1150 
    139 H139       -1.3203  -16.0042  -46.0542 H         1 UNK         0.0800 
    140 H140       -2.5026  -15.5191  -47.2459 H         1 UNK         0.0800 
    141 H141       -2.6868  -18.7736  -44.0874 H         1 UNK         0.0800 
    142 H142       -1.2768  -18.1718  -44.9050 H         1 UNK         0.0800 
    143 H143       -1.9903  -19.7194  -46.9128 H         1 UNK         0.0600 
    144 H144       -0.3767  -20.2794  -44.7124 H         1 UNK         0.3000 
    145 H145        0.6278  -23.6030  -45.5307 H         1 UNK         0.0600 
    146 H146        2.8565  -22.5219  -45.4340 H         1 UNK         0.0600 
    147 H147        2.1277  -20.9392  -45.6821 H         1 UNK         0.0600 
    148 H148        2.0566  -22.1557  -46.9527 H         1 UNK         0.0600 
    149 H149        1.0978  -21.5001  -43.5104 H         1 UNK         0.3000 
    150 H150       -1.0120  -23.0038  -41.0992 H         1 UNK         0.0600 
    151 H151        1.0526  -24.3897  -40.8466 H         1 UNK         0.0600 
    152 H152        1.0333  -23.0619  -39.6974 H         1 UNK         0.0600 
    153 H153        2.0548  -22.9721  -41.1330 H         1 UNK         0.0600 
    154 H154        0.8286  -20.8246  -40.9461 H         1 UNK         0.3000 
    155 H155       -1.3129  -18.2984  -42.2487 H         1 UNK         0.0600 
    156 H156       -2.1144  -18.6942  -39.9052 H         1 UNK         0.0600 
    157 H157       -1.0138  -17.3319  -40.0104 H         1 UNK         0.0600 
    158 H158       -0.4472  -18.8744  -39.3709 H         1 UNK         0.0600 
    159 H159        1.1316  -17.8585  -41.1031 H         1 UNK         0.3000 
    160 H160        3.4751  -18.6971  -42.4559 H         1 UNK         0.0600 
    161 H161        4.2808  -17.5164  -44.5399 H         1 UNK         0.0600 
    162 H162        3.4152  -18.9999  -44.9016 H         1 UNK         0.0600 
    163 H163        2.6174  -17.4449  -45.1177 H         1 UNK         0.0600 
    164 H164        2.1837  -16.0546  -42.9894 H         1 UNK         0.3000 
    165 H165        3.1076  -14.7351  -39.9311 H         1 UNK         0.0600 
    166 H166        4.4704  -12.9762  -41.0898 H         1 UNK         0.0600 
    167 H167        5.4043  -14.4398  -40.8244 H         1 UNK         0.0600 
    168 H168        4.7711  -14.0893  -42.4266 H         1 UNK         0.0600 
    169 H169        2.3540  -13.5302  -42.4489 H         1 UNK         0.3000 
    170 H170       -1.0371  -14.3725  -42.4149 H         1 UNK         0.0600 
    171 H171        0.1121  -11.6394  -41.6264 H         1 UNK         0.0600 
    172 H172       -1.4818  -11.9330  -42.3216 H         1 UNK         0.0600 
    173 H173       -1.1004  -12.5335  -40.7154 H         1 UNK         0.0600 
    174 H174        0.4585  -12.4536  -43.9348 H         1 UNK         0.3000 
    175 H175        1.5722  -14.7462  -46.4513 H         1 UNK         0.0600 
    176 H176       -0.3237  -12.3472  -46.2855 H         1 UNK         0.0600 
    177 H177        0.5341  -12.8708  -47.7303 H         1 UNK         0.0600 
    178 H178       -0.6711  -13.9119  -46.9986 H         1 UNK         0.0600 
    179 H179        3.2472  -13.3955  -46.1837 H         1 UNK         0.3000 
    180 H180        3.6614   -9.9888  -45.6717 H         1 UNK         0.0600 
    181 H181        5.5479  -10.5377  -44.1663 H         1 UNK         0.0600 
    182 H182        4.8859  -12.1430  -43.8647 H         1 UNK         0.0600 
    183 H183        4.0333  -10.7128  -43.2948 H         1 UNK         0.0600 
    184 H184        5.4523  -12.1903  -46.2244 H         1 UNK         0.3000 
    185 H185        5.4381  -11.7055  -49.6791 H         1 UNK         0.0600 
    186 H186        7.3671  -13.0498  -48.9843 H         1 UNK         0.0600 
    187 H187        7.2279  -11.6619  -47.9211 H         1 UNK         0.0600 
    188 H188        6.7281  -13.2546  -47.3604 H         1 UNK         0.0600 
    189 H189        4.4114  -13.6046  -50.1719 H         1 UNK         0.3000 
    190 H190       -2.8294  -21.5218  -43.9642 H         1 UNK         0.3000 
    191 H191       -5.5510  -21.9891  -44.4307 H         1 UNK         0.0600 
    192 H192       -4.3785  -22.4568  -42.2916 H         1 UNK         0.0600 
    193 H193       -3.4649  -23.7609  -43.0482 H         1 UNK         0.0600 
    194 H194       -5.2082  -23.9004  -42.8517 H         1 UNK         0.0600 
    195 H195       -2.8581  -23.3253  -46.1886 H         1 UNK         0.3000 
    196 H196       -4.6114  -25.3232  -47.5661 H         1 UNK         0.0600 
    197 H197       -2.6702  -26.3290  -46.3201 H         1 UNK         0.0600 
    198 H198       -1.5621  -25.2930  -47.2197 H         1 UNK         0.0600 
    199 H199       -2.4982  -26.5250  -48.0566 H         1 UNK         0.0600 
    200 H200       -3.6810  -22.2256  -47.9040 H         1 UNK         0.3000 
    201 H201       -3.0016  -20.7749  -49.4364 H         1 UNK         0.0600 
    202 H202       -5.2329  -21.3435  -50.3651 H         1 UNK         0.0600 
    203 H203       -4.5247  -22.6211  -51.3465 H         1 UNK         0.0600 
    204 H204       -4.1191  -20.9399  -51.6612 H         1 UNK         0.0600 
    205 H205       -0.9721  -22.2333  -48.7418 H         1 UNK         0.3000 
    206 H206        1.0724  -22.9340  -49.0848 H         1 UNK         0.0600 
    207 H207        0.8078  -22.2102  -52.0535 H         1 UNK         0.0600 
    208 H208        1.5890  -21.2642  -50.7904 H         1 UNK         0.0600 
    209 H209        2.2666  -22.8020  -51.2796 H         1 UNK         0.0600 
    210 H210       -0.6397  -24.0167  -52.0216 H         1 UNK         0.3000 
    211 H211       -1.0031  -26.7078  -50.9804 H         1 UNK         0.0600 
    212 H212        0.7590  -26.2914  -53.4619 H         1 UNK         0.0600 
    213 H213        0.1896  -27.8466  -52.8651 H         1 UNK         0.0600 
    214 H214        1.3144  -26.9041  -51.9050 H         1 UNK         0.0600 
    215 H215       -2.2978  -24.1109  -52.4718 H         1 UNK         0.3000 
    216 H216       -3.6679  -25.4468  -54.7026 H         1 UNK         0.0600 
    217 H217       -4.4353  -23.1667  -55.2004 H         1 UNK         0.0600 
    218 H218       -2.7104  -23.1283  -54.8900 H         1 UNK         0.0600 
    219 H219       -3.8403  -22.5812  -53.6548 H         1 UNK         0.0600 
    220 H220       -4.2254  -25.3141  -51.4164 H         1 UNK         0.3000 
    221 H221       -5.8338  -25.8427  -50.0414 H         1 UNK         0.0600 
    222 H222       -7.6769  -26.4283  -52.4189 H         1 UNK         0.0600 
    223 H223       -6.6377  -27.5885  -51.5969 H         1 UNK         0.0600 
    224 H224       -7.9789  -26.8448  -50.7405 H         1 UNK         0.0600 
    225 H225       -7.4748  -24.0986  -52.6679 H         1 UNK         0.3000 
    226 H226       -7.7691  -21.6645  -51.1163 H         1 UNK         0.0600 
    227 H227       -9.7366  -22.9359  -50.2437 H         1 UNK         0.0600 
    228 H228      -10.2742  -21.5958  -51.2383 H         1 UNK         0.0600 
    229 H229      -10.2962  -23.2312  -51.8891 H         1 UNK         0.0600 
    230 H230       -7.1414  -23.1813  -54.0067 H         1 UNK         0.3000 
    231 H231       -8.6544  -21.4830  -55.8034 H         1 UNK         0.0600 
    232 H232       -7.4767  -22.7997  -57.5386 H         1 UNK         0.0600 
    233 H233       -8.1588  -23.8592  -56.3166 H         1 UNK         0.0600 
    234 H234       -6.4308  -23.5216  -56.3247 H         1 UNK         0.0600 
    235 H235       -5.8561  -20.8390  -54.0245 H         1 UNK         0.3000 
    236 H236       -4.9080  -18.7923  -55.9829 H         1 UNK         0.0600 
    237 H237       -3.1863  -20.3546  -53.9763 H         1 UNK         0.0600 
    238 H238       -3.2108  -20.6462  -55.7178 H         1 UNK         0.0600 
    239 H239       -2.6340  -19.1128  -55.0859 H         1 UNK         0.0600 
    240 H240       -4.2302  -16.8609  -55.0573 H         1 UNK         0.3000 
    241 H241       -4.1178  -15.1256  -53.7506 H         1 UNK         0.0600 
    242 H242       -6.9922  -16.3595  -54.2416 H         1 UNK         0.3800 
    243 H243       -7.9529  -15.3322  -53.2097 H         1 UNK         0.3800 
    244 H244       -4.1596  -16.8924  -51.2766 H         1 UNK         0.0800 
    245 H245       -3.5199  -15.2785  -51.3964 H         1 UNK         0.0800 
    246 H246       -1.3650  -19.1074  -52.0246 H         1 UNK         0.0800 
    247 H247       -2.9238  -18.7996  -51.3170 H         1 UNK         0.0800 
@<TRIPOS>BOND
     1    1    2 1    
     2    1  127 1    
     3    1  128 1    
     4    1  129 1    
     5    2    3 2    
     6    2    4 am   BACKBONE|DICT|INTERRES
     7    4    5 1    
     8    4  130 1    
     9    5    6 1    
    10    5   65 1    
    11    5  131 1    
    12    6    7 1    
    13    6  132 1    
    14    6  133 1    
    15    7    8 1    
    16    8    9 1    
    17    8  134 1    
    18    8  135 1    
    19    9   10 ar   
    20    9   14 ar   
    21   10   11 ar   
    22   10  136 1    
    23   11   12 ar   
    24   11  126 1    
    25   12   13 ar   
    26   12  137 1    
    27   13   14 ar   
    28   13   15 1    
    29   14  138 1    
    30   15   16 1    
    31   15  139 1    
    32   15  140 1    
    33   16   17 1    
    34   17   18 1    
    35   17  141 1    
    36   17  142 1    
    37   18   19 1    
    38   18   67 1    
    39   18  143 1    
    40   19   20 am   BACKBONE|DICT|INTERRES
    41   19  144 1    
    42   20   21 2    
    43   20   22 1    
    44   22   23 1    
    45   22   24 1    
    46   22  145 1    
    47   23  146 1    
    48   23  147 1    
    49   23  148 1    
    50   24   25 am   BACKBONE|DICT|INTERRES
    51   24  149 1    
    52   25   26 2    
    53   25   27 1    
    54   27   28 1    
    55   27   29 1    
    56   27  150 1    
    57   28  151 1    
    58   28  152 1    
    59   28  153 1    
    60   29   30 am   BACKBONE|DICT|INTERRES
    61   29  154 1    
    62   30   31 2    
    63   30   32 1    
    64   32   33 1    
    65   32   34 1    
    66   32  155 1    
    67   33  156 1    
    68   33  157 1    
    69   33  158 1    
    70   34   35 am   BACKBONE|DICT|INTERRES
    71   34  159 1    
    72   35   36 2    
    73   35   37 1    
    74   37   38 1    
    75   37   39 1    
    76   37  160 1    
    77   38  161 1    
    78   38  162 1    
    79   38  163 1    
    80   39   40 am   BACKBONE|DICT|INTERRES
    81   39  164 1    
    82   40   41 2    
    83   40   42 1    
    84   42   43 1    
    85   42   44 1    
    86   42  165 1    
    87   43  166 1    
    88   43  167 1    
    89   43  168 1    
    90   44   45 am   BACKBONE|DICT|INTERRES
    91   44  169 1    
    92   45   46 2    
    93   45   47 1    
    94   47   48 1    
    95   47   49 1    
    96   47  170 1    
    97   48  171 1    
    98   48  172 1    
    99   48  173 1    
   100   49   50 am   BACKBONE|DICT|INTERRES
   101   49  174 1    
   102   50   51 2    
   103   50   52 1    
   104   52   53 1    
   105   52   54 1    
   106   52  175 1    
   107   53  176 1    
   108   53  177 1    
   109   53  178 1    
   110   54   55 am   BACKBONE|DICT|INTERRES
   111   54  179 1    
   112   55   56 2    
   113   55   57 1    
   114   57   58 1    
   115   57   59 1    
   116   57  180 1    
   117   58  181 1    
   118   58  182 1    
   119   58  183 1    
   120   59   60 am   BACKBONE|DICT|INTERRES
   121   59  184 1    
   122   60   61 2    
   123   60   62 1    
   124   62   63 1    
   125   62   64 1    
   126   62  185 1    
   127   63  186 1    
   128   63  187 1    
   129   63  188 1    
   130   64   65 am   BACKBONE|DICT|INTERRES
   131   64  189 1    
   132   65   66 2    
   133   67   68 2    
   134   67   69 am   BACKBONE|DICT|INTERRES
   135   69   70 1    
   136   69  190 1    
   137   70   71 1    
   138   70   72 1    
   139   70  191 1    
   140   71  192 1    
   141   71  193 1    
   142   71  194 1    
   143   72   73 2    
   144   72   74 am   BACKBONE|DICT|INTERRES
   145   74   75 1    
   146   74  195 1    
   147   75   76 1    
   148   75   77 1    
   149   75  196 1    
   150   76  197 1    
   151   76  198 1    
   152   76  199 1    
   153   77   78 2    
   154   77   79 am   BACKBONE|DICT|INTERRES
   155   79   80 1    
   156   79  200 1    
   157   80   81 1    
   158   80   82 1    
   159   80  201 1    
   160   81  202 1    
   161   81  203 1    
   162   81  204 1    
   163   82   83 2    
   164   82   84 am   BACKBONE|DICT|INTERRES
   165   84   85 1    
   166   84  205 1    
   167   85   86 1    
   168   85   87 1    
   169   85  206 1    
   170   86  207 1    
   171   86  208 1    
   172   86  209 1    
   173   87   88 2    
   174   87   89 am   BACKBONE|DICT|INTERRES
   175   89   90 1    
   176   89  210 1    
   177   90   91 1    
   178   90   92 1    
   179   90  211 1    
   180   91  212 1    
   181   91  213 1    
   182   91  214 1    
   183   92   93 2    
   184   92   94 am   BACKBONE|DICT|INTERRES
   185   94   95 1    
   186   94  215 1    
   187   95   96 1    
   188   95   97 1    
   189   95  216 1    
   190   96  217 1    
   191   96  218 1    
   192   96  219 1    
   193   97   98 2    
   194   97   99 am   BACKBONE|DICT|INTERRES
   195   99  100 1    
   196   99  220 1    
   197  100  101 1    
   198  100  102 1    
   199  100  221 1    
   200  101  222 1    
   201  101  223 1    
   202  101  224 1    
   203  102  103 2    
   204  102  104 am   BACKBONE|DICT|INTERRES
   205  104  105 1    
   206  104  225 1    
   207  105  106 1    
   208  105  107 1    
   209  105  226 1    
   210  106  227 1    
   211  106  228 1    
   212  106  229 1    
   213  107  108 2    
   214  107  109 am   BACKBONE|DICT|INTERRES
   215  109  110 1    
   216  109  230 1    
   217  110  111 1    
   218  110  112 1    
   219  110  231 1    
   220  111  232 1    
   221  111  233 1    
   222  111  234 1    
   223  112  113 2    
   224  112  114 am   BACKBONE|DICT|INTERRES
   225  114  115 1    
   226  114  235 1    
   227  115  116 1    
   228  115  117 1    
   229  115  236 1    
   230  116  237 1    
   231  116  238 1    
   232  116  239 1    
   233  117  118 2    
   234  117  119 am   BACKBONE|DICT|INTERRES
   235  119  120 1    
   236  119  240 1    
   237  120  121 1    
   238  120  124 1    
   239  120  241 1    
   240  121  122 am   BACKBONE|DICT|INTERRES
   241  121  123 2    
   242  122  242 1    
   243  122  243 1    
   244  124  125 1    
   245  124  244 1    
   246  124  245 1    
   247  125  126 1    
   248  126  246 1    
   249  126  247 1    
@<TRIPOS>SUBSTRUCTURE
     1 UNK         1 GROUP             0       ****    0 ROOT    
