@<TRIPOS>MOLECULE
3R540
247   249    1
SMALL
USER_CHARGES


@<TRIPOS>ATOM
      1 CA          5.2355  -14.5720  -48.6052 C.3       0 UNK        -0.1800 
      2 C           4.1306  -14.1809  -47.6351 C.2       0 UNK         0.5000 
      3 O           4.0698  -14.7154  -46.5278 O.2       0 UNK        -0.5000 
      4 N           3.2542  -13.2594  -48.0443 N.am      1 UNK        -0.5000 
      5 CA          2.1424  -12.7560  -47.2409 C.3       1 UNK         0.1400 
      6 C6          0.7729  -13.0252  -47.9043 C.3       23 UNK        -0.0398 
      7 S7          0.3487  -14.7998  -47.8835 S.3       23 UNK        -0.2404 
      8 C8          0.3709  -15.2192  -49.6529 C.3       23 UNK        -0.0205 
      9 C9         -0.4366  -16.4790  -49.9280 C.ar      23 UNK        -0.0193 
     10 C10        -1.8311  -16.4212  -49.9076 C.ar      23 UNK        -0.1150 
     11 C11        -2.5993  -17.5582  -50.1676 C.ar      23 UNK        -0.0193 
     12 C12        -1.9566  -18.7631  -50.4695 C.ar      23 UNK        -0.1150 
     13 C13        -0.5568  -18.8370  -50.5071 C.ar      23 UNK        -0.0193 
     14 C14         0.1942  -17.6901  -50.2237 C.ar      23 UNK        -0.1150 
     15 C15         0.1729  -20.1213  -50.9017 C.3       23 UNK        -0.0205 
     16 S16        -0.5776  -21.6602  -50.2714 S.3       23 UNK        -0.2404 
     17 C17        -0.5531  -21.3484  -48.4795 C.3       23 UNK        -0.0398 
     18 CA         -0.6220  -22.6300  -47.6179 C.3       11 UNK         0.1400 
     19 N          -0.1711  -22.3554  -46.2508 N.am      11 UNK        -0.5000 
     20 C          -0.0988  -23.2234  -45.2321 C.2       10 UNK         0.5000 
     21 O          -0.4529  -24.3999  -45.3018 O.2       10 UNK        -0.5000 
     22 CA          0.4172  -22.6610  -43.8996 C.3       10 UNK         0.1400 
     23 CB          1.9434  -22.4871  -43.9320 C.3       10 UNK        -0.1800 
     24 N          -0.2174  -21.3785  -43.6021 N.am      10 UNK        -0.5000 
     25 C          -1.4244  -21.2516  -43.0348 C.2       9 UNK         0.5000 
     26 O          -2.0906  -22.2015  -42.6224 O.2       9 UNK        -0.5000 
     27 CA         -1.9946  -19.8247  -42.9253 C.3       9 UNK         0.1400 
     28 CB         -1.5386  -19.1594  -41.6181 C.3       9 UNK        -0.1800 
     29 N          -1.6299  -18.9634  -44.0507 N.am      9 UNK        -0.5000 
     30 C          -2.0271  -19.1498  -45.3177 C.2       8 UNK         0.5000 
     31 O          -2.7292  -20.0901  -45.6882 O.2       8 UNK        -0.5000 
     32 CA         -1.5162  -18.1320  -46.3541 C.3       8 UNK         0.1400 
     33 CB         -2.4143  -16.8855  -46.3374 C.3       8 UNK        -0.1800 
     34 N          -0.1206  -17.7257  -46.1636 N.am      8 UNK        -0.5000 
     35 C           0.9340  -18.5367  -45.9885 C.2       7 UNK         0.5000 
     36 O           0.8587  -19.7640  -45.9462 O.2       7 UNK        -0.5000 
     37 CA          2.3086  -17.8746  -45.7935 C.3       7 UNK         0.1400 
     38 CB          3.0533  -17.8186  -47.1361 C.3       7 UNK        -0.1800 
     39 N           2.2624  -16.5323  -45.2074 N.am      7 UNK        -0.5000 
     40 C           1.7321  -16.2130  -44.0187 C.2       6 UNK         0.5000 
     41 O           1.1707  -17.0182  -43.2708 O.2       6 UNK        -0.5000 
     42 CA          1.7953  -14.7249  -43.6299 C.3       6 UNK         0.1400 
     43 CB          0.4648  -14.0299  -43.9605 C.3       6 UNK        -0.1800 
     44 N           2.0911  -14.5154  -42.2146 N.am      6 UNK        -0.5000 
     45 C           3.2349  -14.8580  -41.6055 C.2       5 UNK         0.5000 
     46 O           4.1747  -15.4124  -42.1788 O.2       5 UNK        -0.5000 
     47 CA          3.3456  -14.4875  -40.1086 C.3       5 UNK         0.1400 
     48 CB          4.7950  -14.5390  -39.5809 C.3       5 UNK        -0.1800 
     49 N           2.7264  -13.1946  -39.7827 N.am      5 UNK        -0.5000 
     50 C           3.0301  -11.9988  -40.3095 C.2       4 UNK         0.5000 
     51 O           3.9006  -11.8130  -41.1626 O.2       4 UNK        -0.5000 
     52 CA          2.1968  -10.8054  -39.8124 C.3       4 UNK         0.1400 
     53 CB          3.0932   -9.7077  -39.2175 C.3       4 UNK        -0.1800 
     54 N           1.4137  -10.2418  -40.9076 N.am      4 UNK        -0.5000 
     55 C           0.3527  -10.8239  -41.4764 C.2       3 UNK         0.5000 
     56 O          -0.1167  -11.8994  -41.1018 O.2       3 UNK        -0.5000 
     57 CA         -0.2775  -10.0975  -42.6806 C.3       3 UNK         0.1400 
     58 CB         -0.8764   -8.7338  -42.2826 C.3       3 UNK        -0.1800 
     59 N           0.6286   -9.9836  -43.8313 N.am      3 UNK        -0.5000 
     60 C           1.7731   -9.2897  -43.9427 C.2       2 UNK         0.5000 
     61 O           2.2201   -8.5560  -43.0592 O.2       2 UNK        -0.5000 
     62 CA          2.5562   -9.4854  -45.2558 C.3       2 UNK         0.1400 
     63 CB          4.0518   -9.1392  -45.1228 C.3       2 UNK        -0.1800 
     64 N           2.4077  -10.8643  -45.7238 N.am      2 UNK        -0.5000 
     65 C           2.3642  -11.2551  -47.0020 C.2       1 UNK         0.5000 
     66 O           2.4820  -10.4942  -47.9648 O.2       1 UNK        -0.5000 
     67 C          -2.0252  -23.2682  -47.6705 C.2       11 UNK         0.5000 
     68 O          -2.2437  -24.1885  -48.4611 O.2       11 UNK        -0.5000 
     69 N          -2.9339  -22.8045  -46.7998 N.am      12 UNK        -0.5000 
     70 CA         -4.2896  -23.3277  -46.6147 C.3       12 UNK         0.1400 
     71 CB         -5.0004  -22.5066  -45.5291 C.3       12 UNK        -0.1800 
     72 C          -4.3513  -24.8298  -46.2745 C.2       12 UNK         0.5000 
     73 O          -5.3132  -25.4911  -46.6646 O.2       12 UNK        -0.5000 
     74 N          -3.3280  -25.3410  -45.5788 N.am      13 UNK        -0.5000 
     75 CA         -3.1835  -26.7552  -45.2439 C.3       13 UNK         0.1400 
     76 CB         -2.6473  -26.8786  -43.8086 C.3       13 UNK        -0.1800 
     77 C          -2.2477  -27.4700  -46.2323 C.2       13 UNK         0.5000 
     78 O          -2.5589  -28.5783  -46.6688 O.2       13 UNK        -0.5000 
     79 N          -1.1124  -26.8348  -46.5524 N.am      14 UNK        -0.5000 
     80 CA         -0.0166  -27.4239  -47.3211 C.3       14 UNK         0.1400 
     81 CB          1.2411  -26.5595  -47.1411 C.3       14 UNK        -0.1800 
     82 C          -0.3184  -27.6162  -48.8171 C.2       14 UNK         0.5000 
     83 O           0.1648  -28.5873  -49.4013 O.2       14 UNK        -0.5000 
     84 N          -1.0788  -26.6906  -49.4150 N.am      15 UNK        -0.5000 
     85 CA         -1.3310  -26.6436  -50.8580 C.3       15 UNK         0.1400 
     86 CB         -0.3695  -25.6212  -51.4918 C.3       15 UNK        -0.1800 
     87 C          -2.7973  -26.3206  -51.1915 C.2       15 UNK         0.5000 
     88 O          -3.0932  -25.9988  -52.3438 O.2       15 UNK        -0.5000 
     89 N          -3.6856  -26.3671  -50.1866 N.am      16 UNK        -0.5000 
     90 CA         -5.1024  -25.9854  -50.2557 C.3       16 UNK         0.1400 
     91 CB         -5.8969  -26.9945  -51.1113 C.3       16 UNK        -0.1800 
     92 C          -5.2910  -24.5246  -50.7202 C.2       16 UNK         0.5000 
     93 O          -6.1480  -24.2457  -51.5590 O.2       16 UNK        -0.5000 
     94 N          -4.4352  -23.6298  -50.2033 N.am      17 UNK        -0.5000 
     95 CA         -4.3081  -22.2144  -50.5681 C.3       17 UNK         0.1400 
     96 CB         -5.5722  -21.4255  -50.1732 C.3       17 UNK        -0.1800 
     97 C          -3.8908  -22.0353  -52.0439 C.2       17 UNK         0.5000 
     98 O          -4.4193  -21.1720  -52.7444 O.2       17 UNK        -0.5000 
     99 N          -2.9655  -22.8997  -52.4889 N.am      18 UNK        -0.5000 
    100 CA        -2.4812  -23.0661  -53.8621 C.3       18 UNK         0.1400 
    101 CB        -1.6446  -21.8478  -54.3014 C.3       18 UNK        -0.1800 
    102 C         -3.6407  -23.3951  -54.8209 C.2       18 UNK         0.5000 
    103 O         -3.8621  -22.6785  -55.7971 O.2       18 UNK        -0.5000 
    104 N         -4.4057  -24.4392  -54.4662 N.am      19 UNK        -0.5000 
    105 CA        -5.6586  -24.8706  -55.1013 C.3       19 UNK         0.1400 
    106 CB        -5.3725  -25.5050  -56.4777 C.3       19 UNK        -0.1800 
    107 C         -6.7114  -23.7392  -55.1637 C.2       19 UNK         0.5000 
    108 O         -7.3739  -23.5554  -56.1862 O.2       19 UNK        -0.5000 
    109 N         -6.8015  -22.9787  -54.0641 N.am      20 UNK        -0.5000 
    110 CA        -7.6149  -21.7808  -53.8360 C.3       20 UNK         0.1400 
    111 CB        -9.1171  -22.1265  -53.8931 C.3       20 UNK        -0.1800 
    112 C         -7.2625  -20.5602  -54.7173 C.2       20 UNK         0.5000 
    113 O         -7.9988  -19.5723  -54.6792 O.2       20 UNK        -0.5000 
    114 N         -6.1661  -20.6178  -55.4872 N.am      21 UNK        -0.5000 
    115 CA        -5.7401  -19.5361  -56.3768 C.3       21 UNK         0.1400 
    116 CB        -5.0085  -20.1311  -57.5899 C.3       21 UNK        -0.1800 
    117 C         -4.8497  -18.4969  -55.6728 C.2       21 UNK         0.5000 
    118 O         -4.8100  -17.3502  -56.1211 O.2       21 UNK        -0.5000 
    119 N         -4.1466  -18.9054  -54.6063 N.am      22 UNK        -0.5000 
    120 CA        -3.2062  -18.0848  -53.8172 C.3       22 UNK         0.1400 
    121 C         -1.9910  -17.5176  -54.6166 C.2       22 UNK         0.5000 
    122 N         -1.5900  -18.1350  -55.7218 N.am      22 UNK        -0.7600 
    123 O         -1.3818  -16.5254  -54.2266 O.2       22 UNK        -0.5000 
    124 C124       -3.9342  -17.0179  -52.9506 C.3       23 UNK        -0.0398 
    125 S125       -4.9741  -17.8220  -51.6818 S.3       23 UNK        -0.2404 
    126 C126       -4.1208  -17.4636  -50.1060 C.3       23 UNK        -0.0205 
    127 H127        5.1648  -14.0217  -49.5437 H         1 UNK         0.0600 
    128 H128        5.1752  -15.6370  -48.8295 H         1 UNK         0.0600 
    129 H129        6.2111  -14.3697  -48.1635 H         1 UNK         0.0600 
    130 H130        3.3758  -12.8093  -48.9411 H         1 UNK         0.3000 
    131 H131        2.1296  -13.2410  -46.2653 H         1 UNK         0.0600 
    132 H132       -0.0217  -12.5033  -47.3679 H         1 UNK         0.0800 
    133 H133        0.7530  -12.6383  -48.9243 H         1 UNK         0.0800 
    134 H134        1.4046  -15.3357  -49.9820 H         1 UNK         0.0800 
    135 H135       -0.0520  -14.4002  -50.2362 H         1 UNK         0.0800 
    136 H136       -2.3170  -15.4832  -49.6779 H         1 UNK         0.1150 
    137 H137       -2.5519  -19.6351  -50.6945 H         1 UNK         0.1150 
    138 H138        1.2738  -17.7333  -50.2535 H         1 UNK         0.1150 
    139 H139        0.2084  -20.1722  -51.9901 H         1 UNK         0.0800 
    140 H140        1.2098  -20.0868  -50.5635 H         1 UNK         0.0800 
    141 H141        0.3727  -20.8133  -48.2668 H         1 UNK         0.0800 
    142 H142       -1.3650  -20.6663  -48.2279 H         1 UNK         0.0800 
    143 H143        0.0795  -23.3573  -48.0305 H         1 UNK         0.0600 
    144 H144        0.1585  -21.4063  -46.0836 H         1 UNK         0.3000 
    145 H145        0.1764  -23.3788  -43.1124 H         1 UNK         0.0600 
    146 H146        2.3182  -22.1329  -42.9717 H         1 UNK         0.0600 
    147 H147        2.2576  -21.7751  -44.6960 H         1 UNK         0.0600 
    148 H148        2.4382  -23.4357  -44.1444 H         1 UNK         0.0600 
    149 H149        0.2336  -20.5518  -43.9718 H         1 UNK         0.3000 
    150 H150       -3.0834  -19.9065  -42.9063 H         1 UNK         0.0600 
    151 H151       -1.8073  -19.7686  -40.7540 H         1 UNK         0.0600 
    152 H152       -2.0089  -18.1846  -41.4868 H         1 UNK         0.0600 
    153 H153       -0.4575  -19.0150  -41.5965 H         1 UNK         0.0600 
    154 H154       -1.0122  -18.1885  -43.8483 H         1 UNK         0.3000 
    155 H155       -1.5893  -18.5868  -47.3419 H         1 UNK         0.0600 
    156 H156       -3.4598  -17.1551  -46.4930 H         1 UNK         0.0600 
    157 H157       -2.1445  -16.1878  -47.1277 H         1 UNK         0.0600 
    158 H158       -2.3480  -16.3535  -45.3876 H         1 UNK         0.0600 
    159 H159        0.0627  -16.7338  -46.2168 H         1 UNK         0.3000 
    160 H160        2.8779  -18.5092  -45.1117 H         1 UNK         0.0600 
    161 H161        2.5637  -17.1429  -47.8387 H         1 UNK         0.0600 
    162 H162        3.0973  -18.8033  -47.6037 H         1 UNK         0.0600 
    163 H163        4.0804  -17.4788  -47.0030 H         1 UNK         0.0600 
    164 H164        2.7575  -15.8128  -45.7296 H         1 UNK         0.3000 
    165 H165        2.5940  -14.2498  -44.2019 H         1 UNK         0.0600 
    166 H166        0.5305  -12.9549  -43.7995 H         1 UNK         0.0600 
    167 H167        0.1802  -14.1865  -45.0002 H         1 UNK         0.0600 
    168 H168       -0.3495  -14.4109  -43.3426 H         1 UNK         0.0600 
    169 H169        1.3705  -14.0690  -41.6650 H         1 UNK         0.3000 
    170 H170        2.7746  -15.2452  -39.5703 H         1 UNK         0.0600 
    171 H171        5.4438  -13.8409  -40.1107 H         1 UNK         0.0600 
    172 H172        4.8370  -14.2958  -38.5192 H         1 UNK         0.0600 
    173 H173        5.2205  -15.5360  -39.7005 H         1 UNK         0.0600 
    174 H174        1.9705  -13.2375  -39.1129 H         1 UNK         0.3000 
    175 H175        1.5111  -11.1423  -39.0320 H         1 UNK         0.0600 
    176 H176        3.7770   -9.2973  -39.9619 H         1 UNK         0.0600 
    177 H177        2.4976   -8.8850  -38.8215 H         1 UNK         0.0600 
    178 H178        3.6957  -10.0986  -38.3967 H         1 UNK         0.0600 
    179 H179        1.7893   -9.4156  -41.3634 H         1 UNK         0.3000 
    180 H180       -1.1057  -10.7222  -43.0194 H         1 UNK         0.0600 
    181 H181       -0.1195   -8.0351  -41.9260 H         1 UNK         0.0600 
    182 H182       -1.6095   -8.8518  -41.4838 H         1 UNK         0.0600 
    183 H183       -1.3877   -8.2694  -43.1258 H         1 UNK         0.0600 
    184 H184        0.3528  -10.5304  -44.6341 H         1 UNK         0.3000 
    185 H185        2.1075   -8.8048  -45.9824 H         1 UNK         0.0600 
    186 H186        4.5429   -9.7703  -44.3811 H         1 UNK         0.0600 
    187 H187        4.5733   -9.2685  -46.0713 H         1 UNK         0.0600 
    188 H188        4.1904   -8.1012  -44.8182 H         1 UNK         0.0600 
    189 H189        2.3441  -11.5585  -44.9926 H         1 UNK         0.3000 
    190 H190       -2.6882  -22.0032  -46.2255 H         1 UNK         0.3000 
    191 H191       -4.8318  -23.1851  -47.5492 H         1 UNK         0.0600 
    192 H192       -5.0962  -21.4621  -45.8261 H         1 UNK         0.0600 
    193 H193       -4.4583  -22.5380  -44.5830 H         1 UNK         0.0600 
    194 H194       -6.0077  -22.8830  -45.3460 H         1 UNK         0.0600 
    195 H195       -2.5521  -24.7373  -45.3352 H         1 UNK         0.3000 
    196 H196       -4.1540  -27.2548  -45.2795 H         1 UNK         0.0600 
    197 H197       -3.3339  -26.4252  -43.0935 H         1 UNK         0.0600 
    198 H198       -1.6777  -26.3924  -43.6936 H         1 UNK         0.0600 
    199 H199       -2.5266  -27.9249  -43.5253 H         1 UNK         0.0600 
    200 H200       -0.9221  -25.9296  -46.1278 H         1 UNK         0.3000 
    201 H201        0.1925  -28.4101  -46.9010 H         1 UNK         0.0600 
    202 H202        1.5177  -26.4795  -46.0896 H         1 UNK         0.0600 
    203 H203        1.0932  -25.5499  -47.5253 H         1 UNK         0.0600 
    204 H204        2.0924  -26.9908  -47.6692 H         1 UNK         0.0600 
    205 H205       -1.4290  -25.9045  -48.8742 H         1 UNK         0.3000 
    206 H206       -1.1384  -27.6190  -51.3085 H         1 UNK         0.0600 
    207 H207        0.6693  -25.8732  -51.2783 H         1 UNK         0.0600 
    208 H208       -0.5519  -24.6146  -51.1150 H         1 UNK         0.0600 
    209 H209       -0.4753  -25.5952  -52.5767 H         1 UNK         0.0600 
    210 H210       -3.3476  -26.6431  -49.2759 H         1 UNK         0.3000 
    211 H211       -5.4928  -26.0379  -49.2397 H         1 UNK         0.0600 
    212 H212       -5.5984  -26.9651  -52.1595 H         1 UNK         0.0600 
    213 H213       -6.9661  -26.7832  -51.0711 H         1 UNK         0.0600 
    214 H214       -5.7548  -28.0132  -50.7510 H         1 UNK         0.0600 
    215 H215       -3.7256  -23.9742  -49.5607 H         1 UNK         0.3000 
    216 H216       -3.4888  -21.8160  -49.9711 H         1 UNK         0.0600 
    217 H217       -5.4471  -20.3629  -50.3733 H         1 UNK         0.0600 
    218 H218       -5.7829  -21.5274  -49.1091 H         1 UNK         0.0600 
    219 H219       -6.4529  -21.7588  -50.7195 H         1 UNK         0.0600 
    220 H220       -2.6324  -23.5925  -51.8352 H         1 UNK         0.3000 
    221 H221       -1.8225  -23.9351  -53.8627 H         1 UNK         0.0600 
    222 H222       -2.2372  -20.9357  -54.3321 H         1 UNK         0.0600 
    223 H223       -0.8095  -21.6820  -53.6218 H         1 UNK         0.0600 
    224 H224       -1.2277  -22.0000  -55.2974 H         1 UNK         0.0600 
    225 H225       -4.1217  -24.9676  -53.6449 H         1 UNK         0.3000 
    226 H226       -6.0790  -25.6447  -54.4578 H         1 UNK         0.0600 
    227 H227       -4.6430  -26.3107  -56.3955 H         1 UNK         0.0600 
    228 H228       -6.2793  -25.9317  -56.9077 H         1 UNK         0.0600 
    229 H229       -4.9859  -24.7734  -57.1879 H         1 UNK         0.0600 
    230 H230       -6.2491  -23.2664  -53.2614 H         1 UNK         0.3000 
    231 H231       -7.3930  -21.4701  -52.8156 H         1 UNK         0.0600 
    232 H232       -9.7271  -21.2845  -53.5643 H         1 UNK         0.0600 
    233 H233       -9.3523  -22.9678  -53.2411 H         1 UNK         0.0600 
    234 H234       -9.4356  -22.3839  -54.9035 H         1 UNK         0.0600 
    235 H235       -5.5813  -21.4456  -55.4617 H         1 UNK         0.3000 
    236 H236       -6.6223  -19.0140  -56.7535 H         1 UNK         0.0600 
    237 H237       -4.0557  -20.5796  -57.3092 H         1 UNK         0.0600 
    238 H238       -5.6101  -20.8972  -58.0796 H         1 UNK         0.0600 
    239 H239       -4.7968  -19.3594  -58.3308 H         1 UNK         0.0600 
    240 H240       -4.2953  -19.8452  -54.2515 H         1 UNK         0.3000 
    241 H241       -2.7381  -18.7876  -53.1290 H         1 UNK         0.0600 
    242 H242       -0.8011  -17.7716  -56.2328 H         1 UNK         0.3800 
    243 H243       -2.0750  -18.9503  -56.0591 H         1 UNK         0.3800 
    244 H244       -4.5647  -16.3817  -53.5723 H         1 UNK         0.0800 
    245 H245       -3.2300  -16.3445  -52.4623 H         1 UNK         0.0800 
    246 H246       -4.4845  -18.1565  -49.3463 H         1 UNK         0.0800 
    247 H247       -4.4267  -16.4699  -49.7754 H         1 UNK         0.0800 
@<TRIPOS>BOND
     1    1    2 1    
     2    1  127 1    
     3    1  128 1    
     4    1  129 1    
     5    2    3 2    
     6    2    4 am   BACKBONE|DICT|INTERRES
     7    4    5 1    
     8    4  130 1    
     9    5    6 1    
    10    5   65 1    
    11    5  131 1    
    12    6    7 1    
    13    6  132 1    
    14    6  133 1    
    15    7    8 1    
    16    8    9 1    
    17    8  134 1    
    18    8  135 1    
    19    9   10 ar   
    20    9   14 ar   
    21   10   11 ar   
    22   10  136 1    
    23   11   12 ar   
    24   11  126 1    
    25   12   13 ar   
    26   12  137 1    
    27   13   14 ar   
    28   13   15 1    
    29   14  138 1    
    30   15   16 1    
    31   15  139 1    
    32   15  140 1    
    33   16   17 1    
    34   17   18 1    
    35   17  141 1    
    36   17  142 1    
    37   18   19 1    
    38   18   67 1    
    39   18  143 1    
    40   19   20 am   BACKBONE|DICT|INTERRES
    41   19  144 1    
    42   20   21 2    
    43   20   22 1    
    44   22   23 1    
    45   22   24 1    
    46   22  145 1    
    47   23  146 1    
    48   23  147 1    
    49   23  148 1    
    50   24   25 am   BACKBONE|DICT|INTERRES
    51   24  149 1    
    52   25   26 2    
    53   25   27 1    
    54   27   28 1    
    55   27   29 1    
    56   27  150 1    
    57   28  151 1    
    58   28  152 1    
    59   28  153 1    
    60   29   30 am   BACKBONE|DICT|INTERRES
    61   29  154 1    
    62   30   31 2    
    63   30   32 1    
    64   32   33 1    
    65   32   34 1    
    66   32  155 1    
    67   33  156 1    
    68   33  157 1    
    69   33  158 1    
    70   34   35 am   BACKBONE|DICT|INTERRES
    71   34  159 1    
    72   35   36 2    
    73   35   37 1    
    74   37   38 1    
    75   37   39 1    
    76   37  160 1    
    77   38  161 1    
    78   38  162 1    
    79   38  163 1    
    80   39   40 am   BACKBONE|DICT|INTERRES
    81   39  164 1    
    82   40   41 2    
    83   40   42 1    
    84   42   43 1    
    85   42   44 1    
    86   42  165 1    
    87   43  166 1    
    88   43  167 1    
    89   43  168 1    
    90   44   45 am   BACKBONE|DICT|INTERRES
    91   44  169 1    
    92   45   46 2    
    93   45   47 1    
    94   47   48 1    
    95   47   49 1    
    96   47  170 1    
    97   48  171 1    
    98   48  172 1    
    99   48  173 1    
   100   49   50 am   BACKBONE|DICT|INTERRES
   101   49  174 1    
   102   50   51 2    
   103   50   52 1    
   104   52   53 1    
   105   52   54 1    
   106   52  175 1    
   107   53  176 1    
   108   53  177 1    
   109   53  178 1    
   110   54   55 am   BACKBONE|DICT|INTERRES
   111   54  179 1    
   112   55   56 2    
   113   55   57 1    
   114   57   58 1    
   115   57   59 1    
   116   57  180 1    
   117   58  181 1    
   118   58  182 1    
   119   58  183 1    
   120   59   60 am   BACKBONE|DICT|INTERRES
   121   59  184 1    
   122   60   61 2    
   123   60   62 1    
   124   62   63 1    
   125   62   64 1    
   126   62  185 1    
   127   63  186 1    
   128   63  187 1    
   129   63  188 1    
   130   64   65 am   BACKBONE|DICT|INTERRES
   131   64  189 1    
   132   65   66 2    
   133   67   68 2    
   134   67   69 am   BACKBONE|DICT|INTERRES
   135   69   70 1    
   136   69  190 1    
   137   70   71 1    
   138   70   72 1    
   139   70  191 1    
   140   71  192 1    
   141   71  193 1    
   142   71  194 1    
   143   72   73 2    
   144   72   74 am   BACKBONE|DICT|INTERRES
   145   74   75 1    
   146   74  195 1    
   147   75   76 1    
   148   75   77 1    
   149   75  196 1    
   150   76  197 1    
   151   76  198 1    
   152   76  199 1    
   153   77   78 2    
   154   77   79 am   BACKBONE|DICT|INTERRES
   155   79   80 1    
   156   79  200 1    
   157   80   81 1    
   158   80   82 1    
   159   80  201 1    
   160   81  202 1    
   161   81  203 1    
   162   81  204 1    
   163   82   83 2    
   164   82   84 am   BACKBONE|DICT|INTERRES
   165   84   85 1    
   166   84  205 1    
   167   85   86 1    
   168   85   87 1    
   169   85  206 1    
   170   86  207 1    
   171   86  208 1    
   172   86  209 1    
   173   87   88 2    
   174   87   89 am   BACKBONE|DICT|INTERRES
   175   89   90 1    
   176   89  210 1    
   177   90   91 1    
   178   90   92 1    
   179   90  211 1    
   180   91  212 1    
   181   91  213 1    
   182   91  214 1    
   183   92   93 2    
   184   92   94 am   BACKBONE|DICT|INTERRES
   185   94   95 1    
   186   94  215 1    
   187   95   96 1    
   188   95   97 1    
   189   95  216 1    
   190   96  217 1    
   191   96  218 1    
   192   96  219 1    
   193   97   98 2    
   194   97   99 am   BACKBONE|DICT|INTERRES
   195   99  100 1    
   196   99  220 1    
   197  100  101 1    
   198  100  102 1    
   199  100  221 1    
   200  101  222 1    
   201  101  223 1    
   202  101  224 1    
   203  102  103 2    
   204  102  104 am   BACKBONE|DICT|INTERRES
   205  104  105 1    
   206  104  225 1    
   207  105  106 1    
   208  105  107 1    
   209  105  226 1    
   210  106  227 1    
   211  106  228 1    
   212  106  229 1    
   213  107  108 2    
   214  107  109 am   BACKBONE|DICT|INTERRES
   215  109  110 1    
   216  109  230 1    
   217  110  111 1    
   218  110  112 1    
   219  110  231 1    
   220  111  232 1    
   221  111  233 1    
   222  111  234 1    
   223  112  113 2    
   224  112  114 am   BACKBONE|DICT|INTERRES
   225  114  115 1    
   226  114  235 1    
   227  115  116 1    
   228  115  117 1    
   229  115  236 1    
   230  116  237 1    
   231  116  238 1    
   232  116  239 1    
   233  117  118 2    
   234  117  119 am   BACKBONE|DICT|INTERRES
   235  119  120 1    
   236  119  240 1    
   237  120  121 1    
   238  120  124 1    
   239  120  241 1    
   240  121  122 am   BACKBONE|DICT|INTERRES
   241  121  123 2    
   242  122  242 1    
   243  122  243 1    
   244  124  125 1    
   245  124  244 1    
   246  124  245 1    
   247  125  126 1    
   248  126  246 1    
   249  126  247 1    
@<TRIPOS>SUBSTRUCTURE
     1 UNK         1 GROUP             0       ****    0 ROOT    
