@<TRIPOS>MOLECULE
3R540
247   249    1
SMALL
USER_CHARGES


@<TRIPOS>ATOM
      1 CA          2.0435  -12.6609  -45.1668 C.3       0 UNK        -0.1800 
      2 C           0.6656  -13.1429  -45.5908 C.2       0 UNK         0.5000 
      3 O          -0.2882  -12.3651  -45.5653 O.2       0 UNK        -0.5000 
      4 N           0.5518  -14.4257  -45.9616 N.am      1 UNK        -0.5000 
      5 CA         -0.6863  -15.1069  -46.3543 C.3       1 UNK         0.1400 
      6 C6         -1.2442  -14.5642  -47.6983 C.3       23 UNK        -0.0398 
      7 S7         -2.4124  -15.7122  -48.5025 S.3       23 UNK        -0.2404 
      8 C8         -1.9064  -15.5589  -50.2528 C.3       23 UNK        -0.0205 
      9 C9         -0.8164  -16.5269  -50.7205 C.ar      23 UNK        -0.0193 
     10 C10        -0.7313  -16.8150  -52.0866 C.ar      23 UNK        -0.1150 
     11 C11         0.2367  -17.6949  -52.5780 C.ar      23 UNK        -0.0193 
     12 C12         1.1416  -18.2833  -51.6928 C.ar      23 UNK        -0.1150 
     13 C13         1.0589  -18.0284  -50.3236 C.ar      23 UNK        -0.0193 
     14 C14         0.0919  -17.1377  -49.8444 C.ar      23 UNK        -0.1150 
     15 C15         1.9837  -18.7586  -49.3589 C.3       23 UNK        -0.0205 
     16 S16         1.5751  -20.5339  -49.2238 S.3       23 UNK        -0.2404 
     17 C17        -0.2270  -20.4649  -48.9493 C.3       23 UNK        -0.0398 
     18 CA         -0.7832  -21.6256  -48.0972 C.3       11 UNK         0.1400 
     19 N          -0.1648  -21.6937  -46.7695 N.am      11 UNK        -0.5000 
     20 C          -0.3244  -22.7096  -45.9075 C.2       10 UNK         0.5000 
     21 O          -1.0000  -23.7081  -46.1511 O.2       10 UNK        -0.5000 
     22 CA          0.3243  -22.5613  -44.5166 C.3       10 UNK         0.1400 
     23 CB          1.7678  -23.0834  -44.5395 C.3       10 UNK        -0.1800 
     24 N           0.3183  -21.1841  -44.0223 N.am      10 UNK        -0.5000 
     25 C          -0.7791  -20.4285  -43.8601 C.2       9 UNK         0.5000 
     26 O          -1.9223  -20.8558  -44.0164 O.2       9 UNK        -0.5000 
     27 CA         -0.5767  -18.9363  -43.5312 C.3       9 UNK         0.1400 
     28 CB         -0.8889  -18.6659  -42.0519 C.3       9 UNK        -0.1800 
     29 N           0.7655  -18.4399  -43.8513 N.am      9 UNK        -0.5000 
     30 C           1.3095  -18.4107  -45.0774 C.2       8 UNK         0.5000 
     31 O           0.6853  -18.7013  -46.0978 O.2       8 UNK        -0.5000 
     32 CA          2.8106  -18.0672  -45.1781 C.3       8 UNK         0.1400 
     33 CB          3.0372  -16.7204  -45.8803 C.3       8 UNK        -0.1800 
     34 N           3.4921  -18.0512  -43.8800 N.am      8 UNK        -0.5000 
     35 C           3.7973  -19.1374  -43.1575 C.2       7 UNK         0.5000 
     36 O           3.5241  -20.2814  -43.5253 O.2       7 UNK        -0.5000 
     37 CA          4.4560  -18.9039  -41.7785 C.3       7 UNK         0.1400 
     38 CB          5.2622  -20.1266  -41.2933 C.3       7 UNK        -0.1800 
     39 N           5.2656  -17.6815  -41.6854 N.am      7 UNK        -0.5000 
     40 C           6.3623  -17.3668  -42.3897 C.2       6 UNK         0.5000 
     41 O           6.8253  -18.0763  -43.2845 O.2       6 UNK        -0.5000 
     42 CA          7.0513  -16.0305  -42.0248 C.3       6 UNK         0.1400 
     43 CB          8.2215  -15.6896  -42.9656 C.3       6 UNK        -0.1800 
     44 N           6.1180  -14.9020  -42.0182 N.am      6 UNK        -0.5000 
     45 C           5.2664  -14.5876  -41.0335 C.2       5 UNK         0.5000 
     46 O           5.1866  -15.2249  -39.9813 O.2       5 UNK        -0.5000 
     47 CA          4.3011  -13.4031  -41.2735 C.3       5 UNK         0.1400 
     48 CB          4.5832  -12.6151  -42.5714 C.3       5 UNK        -0.1800 
     49 N           2.8971  -13.8291  -41.2376 N.am      5 UNK        -0.5000 
     50 C           2.3457  -14.8408  -41.9207 C.2       4 UNK         0.5000 
     51 O           2.9535  -15.5235  -42.7434 O.2       4 UNK        -0.5000 
     52 CA          0.8708  -15.1645  -41.6407 C.3       4 UNK         0.1400 
     53 CB          0.6516  -15.6544  -40.1966 C.3       4 UNK        -0.1800 
     54 N          -0.0581  -14.0946  -42.0071 N.am      4 UNK        -0.5000 
     55 C          -0.2101  -12.8790  -41.4609 C.2       3 UNK         0.5000 
     56 O           0.4601  -12.4694  -40.5116 O.2       3 UNK        -0.5000 
     57 CA         -1.2849  -11.9559  -42.0761 C.3       3 UNK         0.1400 
     58 CB         -0.6494  -10.6670  -42.6229 C.3       3 UNK        -0.1800 
     59 N          -2.0514  -12.6038  -43.1464 N.am      3 UNK        -0.5000 
     60 C          -3.1296  -13.3785  -42.9490 C.2       2 UNK         0.5000 
     61 O          -3.6383  -13.5629  -41.8430 O.2       2 UNK        -0.5000 
     62 CA         -3.7301  -14.0939  -44.1798 C.3       2 UNK         0.1400 
     63 CB         -4.9226  -13.3008  -44.7349 C.3       2 UNK        -0.1800 
     64 N          -2.7708  -14.3273  -45.2627 N.am      2 UNK        -0.5000 
     65 C          -1.6756  -15.0933  -45.1663 C.2       1 UNK         0.5000 
     66 O          -1.3844  -15.7213  -44.1483 O.2       1 UNK        -0.5000 
     67 C          -2.3172  -21.4926  -48.0119 C.2       11 UNK         0.5000 
     68 O          -3.0232  -22.0459  -48.8559 O.2       11 UNK        -0.5000 
     69 N          -2.8030  -20.7570  -47.0029 N.am      12 UNK        -0.5000 
     70 CA         -4.2256  -20.5747  -46.7265 C.3       12 UNK         0.1400 
     71 CB         -4.4306  -19.3091  -45.8795 C.3       12 UNK        -0.1800 
     72 C          -4.8257  -21.8147  -46.0447 C.2       12 UNK         0.5000 
     73 O          -5.9206  -22.2343  -46.4164 O.2       12 UNK        -0.5000 
     74 N          -4.0806  -22.4084  -45.1008 N.am      13 UNK        -0.5000 
     75 CA         -4.4452  -23.6361  -44.3887 C.3       13 UNK         0.1400 
     76 CB         -3.4300  -23.8959  -43.2662 C.3       13 UNK        -0.1800 
     77 C          -4.5556  -24.8609  -45.3169 C.2       13 UNK         0.5000 
     78 O          -5.4795  -25.6601  -45.1625 O.2       13 UNK        -0.5000 
     79 N          -3.6380  -24.9634  -46.2886 N.am      14 UNK        -0.5000 
     80 CA         -3.6500  -25.9766  -47.3472 C.3       14 UNK         0.1400 
     81 CB         -2.2439  -26.0612  -47.9630 C.3       14 UNK        -0.1800 
     82 C          -4.6916  -25.6985  -48.4511 C.2       14 UNK         0.5000 
     83 O          -4.9253  -26.5726  -49.2859 O.2       14 UNK        -0.5000 
     84 N          -5.2616  -24.4834  -48.4602 N.am      15 UNK        -0.5000 
     85 CA         -6.1911  -23.9211  -49.4472 C.3       15 UNK         0.1400 
     86 CB         -7.4985  -24.7351  -49.5210 C.3       15 UNK        -0.1800 
     87 C          -5.5636  -23.6886  -50.8374 C.2       15 UNK         0.5000 
     88 O          -6.2889  -23.4030  -51.7903 O.2       15 UNK        -0.5000 
     89 N          -4.2287  -23.7538  -50.9307 N.am      16 UNK        -0.5000 
     90 CA         -3.4549  -23.4942  -52.1430 C.3       16 UNK         0.1400 
     91 CB         -1.9916  -23.8995  -51.9138 C.3       16 UNK        -0.1800 
     92 C          -3.5473  -22.0263  -52.5864 C.2       16 UNK         0.5000 
     93 O          -3.6123  -21.7626  -53.7866 O.2       16 UNK        -0.5000 
     94 N          -3.5950  -21.1097  -51.6095 N.am      17 UNK        -0.5000 
     95 CA         -3.8182  -19.6796  -51.8236 C.3       17 UNK         0.1400 
     96 CB         -3.5621  -18.9226  -50.5123 C.3       17 UNK        -0.1800 
     97 C          -5.2332  -19.3730  -52.3476 C.2       17 UNK         0.5000 
     98 O          -5.3921  -18.4922  -53.1922 O.2       17 UNK        -0.5000 
     99 N          -6.2306  -20.1127  -51.8425 N.am      18 UNK        -0.5000 
    100 CA        -7.6379  -19.9804  -52.2207 C.3       18 UNK         0.1400 
    101 CB        -8.5186  -20.6477  -51.1524 C.3       18 UNK        -0.1800 
    102 C         -7.9207  -20.5685  -53.6137 C.2       18 UNK         0.5000 
    103 O         -8.6362  -19.9514  -54.4033 O.2       18 UNK        -0.5000 
    104 N         -7.3360  -21.7404  -53.8952 N.am      19 UNK        -0.5000 
    105 CA        -7.4383  -22.4391  -55.1774 C.3       19 UNK         0.1400 
    106 CB        -7.0153  -23.9025  -54.9697 C.3       19 UNK        -0.1800 
    107 C         -6.5915  -21.8017  -56.2966 C.2       19 UNK         0.5000 
    108 O         -6.8219  -22.1073  -57.4670 O.2       19 UNK        -0.5000 
    109 N         -5.6088  -20.9706  -55.9157 N.am      20 UNK        -0.5000 
    110 CA        -4.5451  -20.3997  -56.7519 C.3       20 UNK         0.1400 
    111 CB        -5.1165  -19.4650  -57.8377 C.3       20 UNK        -0.1800 
    112 C         -3.5942  -21.4806  -57.3140 C.2       20 UNK         0.5000 
    113 O         -2.9964  -21.3000  -58.3760 O.2       20 UNK        -0.5000 
    114 N         -3.4585  -22.5832  -56.5662 N.am      21 UNK        -0.5000 
    115 CA        -2.5594  -23.7039  -56.8405 C.3       21 UNK         0.1400 
    116 CB        -3.1471  -24.9682  -56.1940 C.3       21 UNK        -0.1800 
    117 C         -1.1310  -23.4422  -56.3235 C.2       21 UNK         0.5000 
    118 O         -0.2182  -24.2006  -56.6512 O.2       21 UNK        -0.5000 
    119 N         -0.9669  -22.3804  -55.5251 N.am      22 UNK        -0.5000 
    120 CA         0.2982  -21.8980  -54.9558 C.3       22 UNK         0.1400 
    121 C          1.3626  -21.3961  -55.9797 C.2       22 UNK         0.5000 
    122 N          1.0198  -21.1595  -57.2405 N.am      22 UNK        -0.7600 
    123 O          2.5241  -21.2249  -55.6204 O.2       22 UNK        -0.5000 
    124 C124        0.0277  -20.8432  -53.8539 C.3       23 UNK        -0.0398 
    125 S125       -0.8755  -19.3715  -54.4663 S.3       23 UNK        -0.2404 
    126 C126        0.2828  -18.0275  -54.0607 C.3       23 UNK        -0.0205 
    127 H127        2.8072  -13.4226  -45.3225 H         1 UNK         0.0600 
    128 H128        2.0313  -12.3991  -44.1093 H         1 UNK         0.0600 
    129 H129        2.3248  -11.7752  -45.7362 H         1 UNK         0.0600 
    130 H130        1.3721  -15.0123  -45.9332 H         1 UNK         0.3000 
    131 H131       -0.4116  -16.1518  -46.5047 H         1 UNK         0.0600 
    132 H132       -1.7086  -13.5833  -47.5900 H         1 UNK         0.0800 
    133 H133       -0.4077  -14.4077  -48.3809 H         1 UNK         0.0800 
    134 H134       -1.5848  -14.5366  -50.4557 H         1 UNK         0.0800 
    135 H135       -2.7996  -15.7128  -50.8596 H         1 UNK         0.0800 
    136 H136       -1.4326  -16.3628  -52.7741 H         1 UNK         0.1150 
    137 H137        1.8924  -18.9682  -52.0592 H         1 UNK         0.1150 
    138 H138        0.0401  -16.9475  -48.7833 H         1 UNK         0.1150 
    139 H139        1.9345  -18.3096  -48.3687 H         1 UNK         0.0800 
    140 H140        3.0168  -18.6531  -49.6925 H         1 UNK         0.0800 
    141 H141       -0.6972  -20.4560  -49.9345 H         1 UNK         0.0800 
    142 H142       -0.4760  -19.5133  -48.4766 H         1 UNK         0.0800 
    143 H143       -0.5665  -22.5629  -48.6143 H         1 UNK         0.0600 
    144 H144        0.3820  -20.8879  -46.4918 H         1 UNK         0.3000 
    145 H145       -0.2481  -23.1682  -43.8135 H         1 UNK         0.0600 
    146 H146        1.8044  -24.1184  -44.8820 H         1 UNK         0.0600 
    147 H147        2.2140  -23.0538  -43.5451 H         1 UNK         0.0600 
    148 H148        2.3984  -22.4928  -45.2056 H         1 UNK         0.0600 
    149 H149        1.2242  -20.7617  -43.8670 H         1 UNK         0.3000 
    150 H150       -1.2946  -18.3835  -44.1397 H         1 UNK         0.0600 
    151 H151       -0.1196  -19.0706  -41.3934 H         1 UNK         0.0600 
    152 H152       -1.8396  -19.1159  -41.7621 H         1 UNK         0.0600 
    153 H153       -0.9782  -17.5981  -41.8595 H         1 UNK         0.0600 
    154 H154        1.3534  -18.1853  -43.0731 H         1 UNK         0.3000 
    155 H155        3.2668  -18.8446  -45.7946 H         1 UNK         0.0600 
    156 H156        4.0943  -16.5714  -46.1009 H         1 UNK         0.0600 
    157 H157        2.7122  -15.8889  -45.2599 H         1 UNK         0.0600 
    158 H158        2.4985  -16.6632  -46.8261 H         1 UNK         0.0600 
    159 H159        3.6606  -17.1331  -43.4762 H         1 UNK         0.3000 
    160 H160        3.6296  -18.7637  -41.0805 H         1 UNK         0.0600 
    161 H161        6.0758  -20.3714  -41.9767 H         1 UNK         0.0600 
    162 H162        4.6272  -21.0096  -41.2124 H         1 UNK         0.0600 
    163 H163        5.6932  -19.9493  -40.3079 H         1 UNK         0.0600 
    164 H164        4.9685  -17.0065  -40.9886 H         1 UNK         0.3000 
    165 H165        7.4624  -16.1510  -41.0204 H         1 UNK         0.0600 
    166 H166        8.9750  -16.4783  -42.9572 H         1 UNK         0.0600 
    167 H167        7.8863  -15.5644  -43.9959 H         1 UNK         0.0600 
    168 H168        8.7176  -14.7682  -42.6598 H         1 UNK         0.0600 
    169 H169        6.0738  -14.3609  -42.8693 H         1 UNK         0.3000 
    170 H170        4.4410  -12.7208  -40.4339 H         1 UNK         0.0600 
    171 H171        3.9166  -11.7569  -42.6552 H         1 UNK         0.0600 
    172 H172        4.4470  -13.2285  -43.4623 H         1 UNK         0.0600 
    173 H173        5.6021  -12.2260  -42.5841 H         1 UNK         0.0600 
    174 H174        2.2854  -13.3091  -40.6164 H         1 UNK         0.3000 
    175 H175        0.6185  -15.9924  -42.3022 H         1 UNK         0.0600 
    176 H176        1.2807  -16.5190  -39.9813 H         1 UNK         0.0600 
    177 H177        0.8899  -14.8883  -39.4587 H         1 UNK         0.0600 
    178 H178       -0.3831  -15.9579  -40.0377 H         1 UNK         0.0600 
    179 H179       -0.6677  -14.3347  -42.7808 H         1 UNK         0.3000 
    180 H180       -1.9651  -11.6733  -41.2701 H         1 UNK         0.0600 
    181 H181        0.0993  -10.8748  -43.3867 H         1 UNK         0.0600 
    182 H182       -0.1550  -10.1078  -41.8276 H         1 UNK         0.0600 
    183 H183       -1.4017  -10.0102  -43.0600 H         1 UNK         0.0600 
    184 H184       -1.6766  -12.5078  -44.0855 H         1 UNK         0.3000 
    185 H185       -4.0936  -15.0675  -43.8443 H         1 UNK         0.0600 
    186 H186       -5.6748  -13.1340  -43.9627 H         1 UNK         0.0600 
    187 H187       -4.6154  -12.3240  -45.1106 H         1 UNK         0.0600 
    188 H188       -5.4090  -13.8375  -45.5497 H         1 UNK         0.0600 
    189 H189       -2.9344  -13.8205  -46.1200 H         1 UNK         0.3000 
    190 H190       -2.1585  -20.3738  -46.3263 H         1 UNK         0.3000 
    191 H191       -4.7512  -20.4314  -47.6726 H         1 UNK         0.0600 
    192 H192       -4.0335  -18.4286  -46.3857 H         1 UNK         0.0600 
    193 H193       -5.4915  -19.1301  -45.7007 H         1 UNK         0.0600 
    194 H194       -3.9440  -19.3836  -44.9071 H         1 UNK         0.0600 
    195 H195       -3.2136  -21.9593  -44.8166 H         1 UNK         0.3000 
    196 H196       -5.4239  -23.4749  -43.9321 H         1 UNK         0.0600 
    197 H197       -3.7176  -24.7656  -42.6742 H         1 UNK         0.0600 
    198 H198       -3.3643  -23.0456  -42.5869 H         1 UNK         0.0600 
    199 H199       -2.4333  -24.0856  -43.6637 H         1 UNK         0.0600 
    200 H200       -2.8595  -24.3102  -46.3001 H         1 UNK         0.3000 
    201 H201       -3.8898  -26.9450  -46.9036 H         1 UNK         0.0600 
    202 H202       -2.1961  -26.8319  -48.7333 H         1 UNK         0.0600 
    203 H203       -1.4979  -26.3115  -47.2086 H         1 UNK         0.0600 
    204 H204       -1.9499  -25.1170  -48.4239 H         1 UNK         0.0600 
    205 H205       -5.0105  -23.8504  -47.7121 H         1 UNK         0.3000 
    206 H206       -6.4489  -22.9290  -49.0748 H         1 UNK         0.0600 
    207 H207       -7.9284  -24.8799  -48.5298 H         1 UNK         0.0600 
    208 H208       -8.2461  -24.2197  -50.1251 H         1 UNK         0.0600 
    209 H209       -7.3427  -25.7170  -49.9680 H         1 UNK         0.0600 
    210 H210       -3.7053  -23.8944  -50.0781 H         1 UNK         0.3000 
    211 H211       -3.8663  -24.1128  -52.9422 H         1 UNK         0.0600 
    212 H212       -1.9134  -24.9508  -51.6363 H         1 UNK         0.0600 
    213 H213       -1.4016  -23.7592  -52.8204 H         1 UNK         0.0600 
    214 H214       -1.5277  -23.3087  -51.1227 H         1 UNK         0.0600 
    215 H215       -3.5140  -21.4283  -50.6486 H         1 UNK         0.3000 
    216 H216       -3.1042  -19.3248  -52.5681 H         1 UNK         0.0600 
    217 H217       -4.1756  -19.3052  -49.6971 H         1 UNK         0.0600 
    218 H218       -3.7945  -17.8636  -50.6224 H         1 UNK         0.0600 
    219 H219       -2.5182  -18.9916  -50.2114 H         1 UNK         0.0600 
    220 H220       -6.0035  -20.8396  -51.1819 H         1 UNK         0.3000 
    221 H221       -7.8887  -18.9177  -52.2485 H         1 UNK         0.0600 
    222 H222       -8.3181  -21.7160  -51.0683 H         1 UNK         0.0600 
    223 H223       -8.3586  -20.1984  -50.1722 H         1 UNK         0.0600 
    224 H224       -9.5761  -20.5322  -51.3935 H         1 UNK         0.0600 
    225 H225       -6.8201  -22.2201  -53.1614 H         1 UNK         0.3000 
    226 H226       -8.4811  -22.4243  -55.5008 H         1 UNK         0.0600 
    227 H227       -7.6419  -24.3918  -54.2237 H         1 UNK         0.0600 
    228 H228       -7.1048  -24.4737  -55.8946 H         1 UNK         0.0600 
    229 H229       -5.9795  -23.9772  -54.6359 H         1 UNK         0.0600 
    230 H230       -5.4948  -20.8207  -54.9220 H         1 UNK         0.3000 
    231 H231       -3.9380  -19.7888  -56.0819 H         1 UNK         0.0600 
    232 H232       -5.6634  -20.0151  -58.6037 H         1 UNK         0.0600 
    233 H233       -4.3175  -18.9180  -58.3394 H         1 UNK         0.0600 
    234 H234       -5.7923  -18.7269  -57.4057 H         1 UNK         0.0600 
    235 H235       -3.9209  -22.5865  -55.6647 H         1 UNK         0.3000 
    236 H236       -2.5007  -23.8621  -57.9192 H         1 UNK         0.0600 
    237 H237       -3.1987  -24.8788  -55.1090 H         1 UNK         0.0600 
    238 H238       -4.1533  -25.1688  -56.5628 H         1 UNK         0.0600 
    239 H239       -2.5373  -25.8433  -56.4221 H         1 UNK         0.0600 
    240 H240       -1.7825  -21.8273  -55.2986 H         1 UNK         0.3000 
    241 H241        0.7567  -22.7590  -54.4661 H         1 UNK         0.0600 
    242 H242        0.0680  -21.2878  -57.5452 H         1 UNK         0.3800 
    243 H243        1.7175  -20.8394  -57.8934 H         1 UNK         0.3800 
    244 H244       -0.5655  -21.2872  -53.0540 H         1 UNK         0.0800 
    245 H245        0.9662  -20.5496  -53.3855 H         1 UNK         0.0800 
    246 H246        1.2936  -18.3001  -54.3684 H         1 UNK         0.0800 
    247 H247        0.0151  -17.1444  -54.6426 H         1 UNK         0.0800 
@<TRIPOS>BOND
     1    1    2 1    
     2    1  127 1    
     3    1  128 1    
     4    1  129 1    
     5    2    3 2    
     6    2    4 am   BACKBONE|DICT|INTERRES
     7    4    5 1    
     8    4  130 1    
     9    5    6 1    
    10    5   65 1    
    11    5  131 1    
    12    6    7 1    
    13    6  132 1    
    14    6  133 1    
    15    7    8 1    
    16    8    9 1    
    17    8  134 1    
    18    8  135 1    
    19    9   10 ar   
    20    9   14 ar   
    21   10   11 ar   
    22   10  136 1    
    23   11   12 ar   
    24   11  126 1    
    25   12   13 ar   
    26   12  137 1    
    27   13   14 ar   
    28   13   15 1    
    29   14  138 1    
    30   15   16 1    
    31   15  139 1    
    32   15  140 1    
    33   16   17 1    
    34   17   18 1    
    35   17  141 1    
    36   17  142 1    
    37   18   19 1    
    38   18   67 1    
    39   18  143 1    
    40   19   20 am   BACKBONE|DICT|INTERRES
    41   19  144 1    
    42   20   21 2    
    43   20   22 1    
    44   22   23 1    
    45   22   24 1    
    46   22  145 1    
    47   23  146 1    
    48   23  147 1    
    49   23  148 1    
    50   24   25 am   BACKBONE|DICT|INTERRES
    51   24  149 1    
    52   25   26 2    
    53   25   27 1    
    54   27   28 1    
    55   27   29 1    
    56   27  150 1    
    57   28  151 1    
    58   28  152 1    
    59   28  153 1    
    60   29   30 am   BACKBONE|DICT|INTERRES
    61   29  154 1    
    62   30   31 2    
    63   30   32 1    
    64   32   33 1    
    65   32   34 1    
    66   32  155 1    
    67   33  156 1    
    68   33  157 1    
    69   33  158 1    
    70   34   35 am   BACKBONE|DICT|INTERRES
    71   34  159 1    
    72   35   36 2    
    73   35   37 1    
    74   37   38 1    
    75   37   39 1    
    76   37  160 1    
    77   38  161 1    
    78   38  162 1    
    79   38  163 1    
    80   39   40 am   BACKBONE|DICT|INTERRES
    81   39  164 1    
    82   40   41 2    
    83   40   42 1    
    84   42   43 1    
    85   42   44 1    
    86   42  165 1    
    87   43  166 1    
    88   43  167 1    
    89   43  168 1    
    90   44   45 am   BACKBONE|DICT|INTERRES
    91   44  169 1    
    92   45   46 2    
    93   45   47 1    
    94   47   48 1    
    95   47   49 1    
    96   47  170 1    
    97   48  171 1    
    98   48  172 1    
    99   48  173 1    
   100   49   50 am   BACKBONE|DICT|INTERRES
   101   49  174 1    
   102   50   51 2    
   103   50   52 1    
   104   52   53 1    
   105   52   54 1    
   106   52  175 1    
   107   53  176 1    
   108   53  177 1    
   109   53  178 1    
   110   54   55 am   BACKBONE|DICT|INTERRES
   111   54  179 1    
   112   55   56 2    
   113   55   57 1    
   114   57   58 1    
   115   57   59 1    
   116   57  180 1    
   117   58  181 1    
   118   58  182 1    
   119   58  183 1    
   120   59   60 am   BACKBONE|DICT|INTERRES
   121   59  184 1    
   122   60   61 2    
   123   60   62 1    
   124   62   63 1    
   125   62   64 1    
   126   62  185 1    
   127   63  186 1    
   128   63  187 1    
   129   63  188 1    
   130   64   65 am   BACKBONE|DICT|INTERRES
   131   64  189 1    
   132   65   66 2    
   133   67   68 2    
   134   67   69 am   BACKBONE|DICT|INTERRES
   135   69   70 1    
   136   69  190 1    
   137   70   71 1    
   138   70   72 1    
   139   70  191 1    
   140   71  192 1    
   141   71  193 1    
   142   71  194 1    
   143   72   73 2    
   144   72   74 am   BACKBONE|DICT|INTERRES
   145   74   75 1    
   146   74  195 1    
   147   75   76 1    
   148   75   77 1    
   149   75  196 1    
   150   76  197 1    
   151   76  198 1    
   152   76  199 1    
   153   77   78 2    
   154   77   79 am   BACKBONE|DICT|INTERRES
   155   79   80 1    
   156   79  200 1    
   157   80   81 1    
   158   80   82 1    
   159   80  201 1    
   160   81  202 1    
   161   81  203 1    
   162   81  204 1    
   163   82   83 2    
   164   82   84 am   BACKBONE|DICT|INTERRES
   165   84   85 1    
   166   84  205 1    
   167   85   86 1    
   168   85   87 1    
   169   85  206 1    
   170   86  207 1    
   171   86  208 1    
   172   86  209 1    
   173   87   88 2    
   174   87   89 am   BACKBONE|DICT|INTERRES
   175   89   90 1    
   176   89  210 1    
   177   90   91 1    
   178   90   92 1    
   179   90  211 1    
   180   91  212 1    
   181   91  213 1    
   182   91  214 1    
   183   92   93 2    
   184   92   94 am   BACKBONE|DICT|INTERRES
   185   94   95 1    
   186   94  215 1    
   187   95   96 1    
   188   95   97 1    
   189   95  216 1    
   190   96  217 1    
   191   96  218 1    
   192   96  219 1    
   193   97   98 2    
   194   97   99 am   BACKBONE|DICT|INTERRES
   195   99  100 1    
   196   99  220 1    
   197  100  101 1    
   198  100  102 1    
   199  100  221 1    
   200  101  222 1    
   201  101  223 1    
   202  101  224 1    
   203  102  103 2    
   204  102  104 am   BACKBONE|DICT|INTERRES
   205  104  105 1    
   206  104  225 1    
   207  105  106 1    
   208  105  107 1    
   209  105  226 1    
   210  106  227 1    
   211  106  228 1    
   212  106  229 1    
   213  107  108 2    
   214  107  109 am   BACKBONE|DICT|INTERRES
   215  109  110 1    
   216  109  230 1    
   217  110  111 1    
   218  110  112 1    
   219  110  231 1    
   220  111  232 1    
   221  111  233 1    
   222  111  234 1    
   223  112  113 2    
   224  112  114 am   BACKBONE|DICT|INTERRES
   225  114  115 1    
   226  114  235 1    
   227  115  116 1    
   228  115  117 1    
   229  115  236 1    
   230  116  237 1    
   231  116  238 1    
   232  116  239 1    
   233  117  118 2    
   234  117  119 am   BACKBONE|DICT|INTERRES
   235  119  120 1    
   236  119  240 1    
   237  120  121 1    
   238  120  124 1    
   239  120  241 1    
   240  121  122 am   BACKBONE|DICT|INTERRES
   241  121  123 2    
   242  122  242 1    
   243  122  243 1    
   244  124  125 1    
   245  124  244 1    
   246  124  245 1    
   247  125  126 1    
   248  126  246 1    
   249  126  247 1    
@<TRIPOS>SUBSTRUCTURE
     1 UNK         1 GROUP             0       ****    0 ROOT    
