@<TRIPOS>MOLECULE
3R540
247   249    1
SMALL
USER_CHARGES


@<TRIPOS>ATOM
      1 CA         -1.8785  -14.7114  -47.0906 C.3       0 UNK        -0.1800 
      2 C          -0.5538  -14.0335  -47.4018 C.2       0 UNK         0.5000 
      3 O          -0.2423  -13.0012  -46.8085 O.2       0 UNK        -0.5000 
      4 N           0.2324  -14.6171  -48.3179 N.am      1 UNK        -0.5000 
      5 CA          1.5018  -14.0851  -48.8409 C.3       1 UNK         0.1400 
      6 C6          2.0285  -14.9019  -50.0484 C.3       23 UNK        -0.0398 
      7 S7          2.2635  -16.6850  -49.7096 S.3       23 UNK        -0.2404 
      8 C8          1.2079  -17.4386  -50.9877 C.3       23 UNK        -0.0205 
      9 C9         -0.2699  -17.2235  -50.7025 C.ar      23 UNK        -0.0193 
     10 C10        -1.0197  -16.3415  -51.4850 C.ar      23 UNK        -0.1150 
     11 C11        -2.3783  -16.1424  -51.2276 C.ar      23 UNK        -0.0193 
     12 C12        -2.9843  -16.8251  -50.1696 C.ar      23 UNK        -0.1150 
     13 C13        -2.2494  -17.7246  -49.3950 C.ar      23 UNK        -0.0193 
     14 C14        -0.8936  -17.9212  -49.6658 C.ar      23 UNK        -0.1150 
     15 C15        -2.9225  -18.4914  -48.2736 C.3       23 UNK        -0.0205 
     16 S16        -3.7058  -19.9955  -48.9230 S.3       23 UNK        -0.2404 
     17 C17        -3.5969  -21.1002  -47.4805 C.3       23 UNK        -0.0398 
     18 CA         -2.4768  -22.1552  -47.6424 C.3       11 UNK         0.1400 
     19 N          -1.1487  -21.5536  -47.8235 N.am      11 UNK        -0.5000 
     20 C          -0.0078  -22.2247  -48.0357 C.2       10 UNK         0.5000 
     21 O           0.0461  -23.4486  -48.1491 O.2       10 UNK        -0.5000 
     22 CA          1.3026  -21.4159  -48.0785 C.3       10 UNK         0.1400 
     23 CB          1.6829  -21.1302  -49.5380 C.3       10 UNK        -0.1800 
     24 N           1.3195  -20.1547  -47.3234 N.am      10 UNK        -0.5000 
     25 C           0.9527  -19.9725  -46.0454 C.2       9 UNK         0.5000 
     26 O           0.3844  -20.8306  -45.3647 O.2       9 UNK        -0.5000 
     27 CA          1.2578  -18.5782  -45.4572 C.3       9 UNK         0.1400 
     28 CB          0.4227  -17.4932  -46.1535 C.3       9 UNK        -0.1800 
     29 N           1.0199  -18.5022  -44.0143 N.am      9 UNK        -0.5000 
     30 C           1.7434  -19.1440  -43.0838 C.2       8 UNK         0.5000 
     31 O           2.7500  -19.8035  -43.3505 O.2       8 UNK        -0.5000 
     32 CA          1.2994  -19.0284  -41.6094 C.3       8 UNK         0.1400 
     33 CB          2.4354  -18.4620  -40.7406 C.3       8 UNK        -0.1800 
     34 N           0.1070  -18.1986  -41.4249 N.am      8 UNK        -0.5000 
     35 C          -1.1580  -18.6323  -41.5308 C.2       7 UNK         0.5000 
     36 O          -1.4556  -19.8045  -41.7585 O.2       7 UNK        -0.5000 
     37 CA         -2.2887  -17.5912  -41.3673 C.3       7 UNK         0.1400 
     38 CB         -2.8992  -17.6811  -39.9603 C.3       7 UNK        -0.1800 
     39 N          -1.8726  -16.2077  -41.6115 N.am      7 UNK        -0.5000 
     40 C          -1.4098  -15.7370  -42.7774 C.2       6 UNK         0.5000 
     41 O          -1.3597  -16.4130  -43.8027 O.2       6 UNK        -0.5000 
     42 CA         -0.8581  -14.2958  -42.7952 C.3       6 UNK         0.1400 
     43 CB         -1.9157  -13.3256  -43.3413 C.3       6 UNK        -0.1800 
     44 N          -0.3665  -13.7909  -41.5058 N.am      6 UNK        -0.5000 
     45 C           0.5341  -14.3838  -40.7064 C.2       5 UNK         0.5000 
     46 O           1.0306  -15.4864  -40.9369 O.2       5 UNK        -0.5000 
     47 CA          0.9459  -13.5844  -39.4534 C.3       5 UNK         0.1400 
     48 CB          1.8720  -14.3735  -38.5031 C.3       5 UNK        -0.1800 
     49 N           1.5323  -12.2928  -39.8266 N.am      5 UNK        -0.5000 
     50 C           2.6327  -12.1018  -40.5682 C.2       4 UNK         0.5000 
     51 O           3.3958  -12.9988  -40.9317 O.2       4 UNK        -0.5000 
     52 CA          2.8881  -10.6633  -41.0436 C.3       4 UNK         0.1400 
     53 CB          4.3113  -10.1946  -40.7010 C.3       4 UNK        -0.1800 
     54 N           2.7019  -10.6194  -42.4894 N.am      4 UNK        -0.5000 
     55 C           1.5179  -10.6511  -43.1107 C.2       3 UNK         0.5000 
     56 O           0.4380  -10.5670  -42.5244 O.2       3 UNK        -0.5000 
     57 CA          1.5431  -10.8357  -44.6392 C.3       3 UNK         0.1400 
     58 CB          2.3506   -9.7304  -45.3485 C.3       3 UNK        -0.1800 
     59 N           1.9817  -12.1724  -45.0563 N.am      3 UNK        -0.5000 
     60 C           3.1734  -12.7669  -44.8737 C.2       2 UNK         0.5000 
     61 O           4.1338  -12.2332  -44.3172 O.2       2 UNK        -0.5000 
     62 CA          3.3356  -14.1955  -45.4364 C.3       2 UNK         0.1400 
     63 CB          3.0561  -15.2450  -44.3477 C.3       2 UNK        -0.1800 
     64 N           2.4798  -14.4566  -46.5964 N.am      2 UNK        -0.5000 
     65 C           2.6116  -13.8542  -47.7876 C.2       1 UNK         0.5000 
     66 O           3.5526  -13.1096  -48.0667 O.2       1 UNK        -0.5000 
     67 C          -2.5390  -23.1650  -46.4780 C.2       11 UNK         0.5000 
     68 O          -3.3359  -24.0991  -46.5522 O.2       11 UNK        -0.5000 
     69 N          -1.6851  -22.9952  -45.4574 N.am      12 UNK        -0.5000 
     70 CA         -1.5467  -23.9220  -44.3328 C.3       12 UNK         0.1400 
     71 CB         -0.6689  -23.2706  -43.2533 C.3       12 UNK        -0.1800 
     72 C          -0.9710  -25.2951  -44.7372 C.2       12 UNK         0.5000 
     73 O          -1.2850  -26.2925  -44.0867 O.2       12 UNK        -0.5000 
     74 N          -0.1495  -25.3244  -45.7954 N.am      13 UNK        -0.5000 
     75 CA          0.4594  -26.5351  -46.3454 C.3       13 UNK         0.1400 
     76 CB          1.9174  -26.2333  -46.7272 C.3       13 UNK        -0.1800 
     77 C          -0.3211  -27.0460  -47.5674 C.2       13 UNK         0.5000 
     78 O          -0.5377  -28.2516  -47.6928 O.2       13 UNK        -0.5000 
     79 N          -0.7287  -26.1205  -48.4459 N.am      14 UNK        -0.5000 
     80 CA         -1.4194  -26.3980  -49.7059 C.3       14 UNK         0.1400 
     81 CB         -1.2602  -25.1738  -50.6203 C.3       14 UNK        -0.1800 
     82 C          -2.9109  -26.7467  -49.5386 C.2       14 UNK         0.5000 
     83 O          -3.5139  -27.2472  -50.4878 O.2       14 UNK        -0.5000 
     84 N          -3.4803  -26.4537  -48.3593 N.am      15 UNK        -0.5000 
     85 CA         -4.8900  -26.6171  -47.9855 C.3       15 UNK         0.1400 
     86 CB         -5.2933  -28.1070  -47.9759 C.3       15 UNK        -0.1800 
     87 C          -5.8305  -25.7309  -48.8306 C.2       15 UNK         0.5000 
     88 O          -6.9184  -26.1704  -49.2065 O.2       15 UNK        -0.5000 
     89 N          -5.3762  -24.4961  -49.1044 N.am      16 UNK        -0.5000 
     90 CA         -6.0279  -23.4582  -49.9143 C.3       16 UNK         0.1400 
     91 CB         -7.2722  -22.9087  -49.1872 C.3       16 UNK        -0.1800 
     92 C          -6.3278  -23.9482  -51.3470 C.2       16 UNK         0.5000 
     93 O          -7.4896  -24.0792  -51.7363 O.2       16 UNK        -0.5000 
     94 N          -5.2519  -24.2550  -52.0842 N.am      17 UNK        -0.5000 
     95 CA         -5.2740  -24.8958  -53.4026 C.3       17 UNK         0.1400 
     96 CB         -3.8300  -25.2360  -53.8051 C.3       17 UNK        -0.1800 
     97 C          -5.9588  -24.0943  -54.5283 C.2       17 UNK         0.5000 
     98 O          -6.3689  -24.7018  -55.5183 O.2       17 UNK        -0.5000 
     99 N          -6.0460  -22.7649  -54.3740 N.am      18 UNK        -0.5000 
    100 CA        -6.5103  -21.7896  -55.3680 C.3       18 UNK         0.1400 
    101 CB        -7.9950  -22.0037  -55.7304 C.3       18 UNK        -0.1800 
    102 C         -5.5697  -21.7423  -56.5888 C.2       18 UNK         0.5000 
    103 O         -6.0185  -21.7805  -57.7363 O.2       18 UNK        -0.5000 
    104 N         -4.2682  -21.6772  -56.2942 N.am      19 UNK        -0.5000 
    105 CA        -3.1694  -21.6191  -57.2495 C.3       19 UNK         0.1400 
    106 CB        -2.5593  -23.0280  -57.4011 C.3       19 UNK        -0.1800 
    107 C         -2.1906  -20.5431  -56.7521 C.2       19 UNK         0.5000 
    108 O         -2.6000  -19.3902  -56.6044 O.2       19 UNK        -0.5000 
    109 N         -0.9361  -20.9232  -56.4660 N.am      20 UNK        -0.5000 
    110 CA         0.0605  -20.0653  -55.8136 C.3       20 UNK         0.1400 
    111 CB         1.4327  -20.7548  -55.8536 C.3       20 UNK        -0.1800 
    112 C         -0.3331  -19.7169  -54.3641 C.2       20 UNK         0.5000 
    113 O         -0.0868  -18.5985  -53.9155 O.2       20 UNK        -0.5000 
    114 N         -0.9772  -20.6767  -53.6887 N.am      21 UNK        -0.5000 
    115 CA        -1.7262  -20.4802  -52.4558 C.3       21 UNK         0.1400 
    116 CB        -1.6088  -21.7554  -51.6070 C.3       21 UNK        -0.1800 
    117 C         -3.1840  -20.2172  -52.8587 C.2       21 UNK         0.5000 
    118 O         -3.7906  -21.0879  -53.4887 O.2       21 UNK        -0.5000 
    119 N         -3.7046  -19.0266  -52.5432 N.am      22 UNK        -0.5000 
    120 CA        -5.0292  -18.5611  -52.9946 C.3       22 UNK         0.1400 
    121 C         -6.2448  -19.2958  -52.3586 C.2       22 UNK         0.5000 
    122 N         -6.0914  -19.9986  -51.2447 N.am      22 UNK        -0.7600 
    123 O         -7.3489  -19.2253  -52.8896 O.2       22 UNK        -0.5000 
    124 C124       -5.2124  -17.0272  -52.8501 C.3       23 UNK        -0.0398 
    125 S125       -3.8554  -16.0387  -53.5711 S.3       23 UNK        -0.2404 
    126 C126       -3.1869  -15.1958  -52.0999 C.3       23 UNK        -0.0205 
    127 H127       -2.1880  -15.3701  -47.8987 H         1 UNK         0.0600 
    128 H128       -2.6608  -13.9659  -46.9486 H         1 UNK         0.0600 
    129 H129       -1.7970  -15.3009  -46.1790 H         1 UNK         0.0600 
    130 H130       -0.0801  -15.4711  -48.7591 H         1 UNK         0.3000 
    131 H131        1.2659  -13.0886  -49.2203 H         1 UNK         0.0600 
    132 H132        2.9752  -14.4947  -50.4080 H         1 UNK         0.0800 
    133 H133        1.3383  -14.7800  -50.8831 H         1 UNK         0.0800 
    134 H134        1.4775  -17.0373  -51.9661 H         1 UNK         0.0800 
    135 H135        1.4146  -18.5068  -51.0402 H         1 UNK         0.0800 
    136 H136       -0.5491  -15.8175  -52.3051 H         1 UNK         0.1150 
    137 H137       -4.0315  -16.6711  -49.9524 H         1 UNK         0.1150 
    138 H138       -0.3216  -18.6191  -49.0737 H         1 UNK         0.1150 
    139 H139       -2.1890  -18.7443  -47.5087 H         1 UNK         0.0800 
    140 H140       -3.6750  -17.8709  -47.7847 H         1 UNK         0.0800 
    141 H141       -3.4572  -20.5160  -46.5691 H         1 UNK         0.0800 
    142 H142       -4.5681  -21.5883  -47.3777 H         1 UNK         0.0800 
    143 H143       -2.6852  -22.7246  -48.5495 H         1 UNK         0.0600 
    144 H144       -1.0947  -20.5534  -47.7196 H         1 UNK         0.3000 
    145 H145        2.0777  -22.0498  -47.6439 H         1 UNK         0.0600 
    146 H146        2.6358  -20.6054  -49.6090 H         1 UNK         0.0600 
    147 H147        1.7818  -22.0575  -50.1042 H         1 UNK         0.0600 
    148 H148        0.9246  -20.5261  -50.0353 H         1 UNK         0.0600 
    149 H149        1.7719  -19.3840  -47.7935 H         1 UNK         0.3000 
    150 H150        2.3143  -18.3672  -45.6338 H         1 UNK         0.0600 
    151 H151        0.6678  -17.4179  -47.2117 H         1 UNK         0.0600 
    152 H152        0.6047  -16.5146  -45.7123 H         1 UNK         0.0600 
    153 H153       -0.6450  -17.6963  -46.0720 H         1 UNK         0.0600 
    154 H154        0.1960  -17.9923  -43.7219 H         1 UNK         0.3000 
    155 H155        1.0847  -20.0400  -41.2590 H         1 UNK         0.0600 
    156 H156        2.1228  -18.3491  -39.7023 H         1 UNK         0.0600 
    157 H157        2.7682  -17.4873  -41.0990 H         1 UNK         0.0600 
    158 H158        3.3016  -19.1245  -40.7480 H         1 UNK         0.0600 
    159 H159        0.2817  -17.2126  -41.2456 H         1 UNK         0.3000 
    160 H160       -3.0644  -17.8385  -42.0949 H         1 UNK         0.0600 
    161 H161       -2.1722  -17.4206  -39.1900 H         1 UNK         0.0600 
    162 H162       -3.2518  -18.6919  -39.7505 H         1 UNK         0.0600 
    163 H163       -3.7543  -17.0129  -39.8568 H         1 UNK         0.0600 
    164 H164       -1.8704  -15.5888  -40.8147 H         1 UNK         0.3000 
    165 H165       -0.0136  -14.2872  -43.4850 H         1 UNK         0.0600 
    166 H166       -2.7638  -13.2318  -42.6621 H         1 UNK         0.0600 
    167 H167       -1.4968  -12.3315  -43.4974 H         1 UNK         0.0600 
    168 H168       -2.3016  -13.6641  -44.3032 H         1 UNK         0.0600 
    169 H169       -0.6927  -12.8704  -41.2473 H         1 UNK         0.3000 
    170 H170        0.0279  -13.3658  -38.9060 H         1 UNK         0.0600 
    171 H171        1.3812  -15.2821  -38.1521 H         1 UNK         0.0600 
    172 H172        2.8002  -14.6761  -38.9883 H         1 UNK         0.0600 
    173 H173        2.1302  -13.7829  -37.6243 H         1 UNK         0.0600 
    174 H174        0.9677  -11.4838  -39.6064 H         1 UNK         0.3000 
    175 H175        2.1785   -9.9838  -40.5667 H         1 UNK         0.0600 
    176 H176        4.4752   -9.1667  -41.0251 H         1 UNK         0.0600 
    177 H177        4.4834  -10.2289  -39.6246 H         1 UNK         0.0600 
    178 H178        5.0691  -10.8193  -41.1760 H         1 UNK         0.0600 
    179 H179        3.5145  -10.8494  -43.0528 H         1 UNK         0.3000 
    180 H180        0.5101  -10.7472  -44.9798 H         1 UNK         0.0600 
    181 H181        2.2674   -9.8217  -46.4316 H         1 UNK         0.0600 
    182 H182        1.9778   -8.7423  -45.0763 H         1 UNK         0.0600 
    183 H183        3.4101   -9.7602  -45.0939 H         1 UNK         0.0600 
    184 H184        1.2758  -12.6882  -45.5735 H         1 UNK         0.3000 
    185 H185        4.3754  -14.3050  -45.7518 H         1 UNK         0.0600 
    186 H186        3.6635  -15.0599  -43.4604 H         1 UNK         0.0600 
    187 H187        2.0138  -15.2395  -44.0316 H         1 UNK         0.0600 
    188 H188        3.2944  -16.2491  -44.6976 H         1 UNK         0.0600 
    189 H189        1.6778  -15.0503  -46.4543 H         1 UNK         0.3000 
    190 H190       -1.0430  -22.2068  -45.4726 H         1 UNK         0.3000 
    191 H191       -2.5394  -24.0910  -43.9105 H         1 UNK         0.0600 
    192 H192       -0.5783  -23.9162  -42.3789 H         1 UNK         0.0600 
    193 H193       -1.0945  -22.3250  -42.9170 H         1 UNK         0.0600 
    194 H194        0.3383  -23.0701  -43.6211 H         1 UNK         0.0600 
    195 H195        0.0196  -24.4649  -46.3030 H         1 UNK         0.3000 
    196 H196        0.4676  -27.3292  -45.5957 H         1 UNK         0.0600 
    197 H197        2.4038  -27.1178  -47.1405 H         1 UNK         0.0600 
    198 H198        2.4944  -25.9223  -45.8562 H         1 UNK         0.0600 
    199 H199        1.9863  -25.4409  -47.4736 H         1 UNK         0.0600 
    200 H200       -0.4690  -25.1487  -48.2875 H         1 UNK         0.3000 
    201 H201       -0.9338  -27.2499  -50.1863 H         1 UNK         0.0600 
    202 H202       -0.2099  -24.9162  -50.7589 H         1 UNK         0.0600 
    203 H203       -1.7655  -24.3012  -50.2073 H         1 UNK         0.0600 
    204 H204       -1.6780  -25.3622  -51.6086 H         1 UNK         0.0600 
    205 H205       -2.9052  -26.0023  -47.6595 H         1 UNK         0.3000 
    206 H206       -4.9766  -26.2539  -46.9605 H         1 UNK         0.0600 
    207 H207       -4.6060  -28.6968  -47.3693 H         1 UNK         0.0600 
    208 H208       -6.2907  -28.2378  -47.5548 H         1 UNK         0.0600 
    209 H209       -5.3055  -28.5328  -48.9794 H         1 UNK         0.0600 
    210 H210       -4.4772  -24.2564  -48.7131 H         1 UNK         0.3000 
    211 H211       -5.3147  -22.6377  -50.0071 H         1 UNK         0.0600 
    212 H212       -8.0278  -23.6794  -49.0325 H         1 UNK         0.0600 
    213 H213       -7.7398  -22.1081  -49.7605 H         1 UNK         0.0600 
    214 H214       -7.0082  -22.4992  -48.2122 H         1 UNK         0.0600 
    215 H215       -4.3394  -24.1267  -51.6753 H         1 UNK         0.3000 
    216 H216       -5.8263  -25.8321  -53.2995 H         1 UNK         0.0600 
    217 H217       -3.1985  -24.3469  -53.8287 H         1 UNK         0.0600 
    218 H218       -3.7929  -25.6900  -54.7965 H         1 UNK         0.0600 
    219 H219       -3.3893  -25.9512  -53.1113 H         1 UNK         0.0600 
    220 H220       -5.6076  -22.3638  -53.5544 H         1 UNK         0.3000 
    221 H221       -6.4325  -20.8114  -54.8959 H         1 UNK         0.0600 
    222 H222       -8.1558  -22.9325  -56.2777 H         1 UNK         0.0600 
    223 H223       -8.6168  -22.0280  -54.8354 H         1 UNK         0.0600 
    224 H224       -8.3607  -21.1902  -56.3577 H         1 UNK         0.0600 
    225 H225       -4.0110  -21.5764  -55.3147 H         1 UNK         0.3000 
    226 H226       -3.5312  -21.2874  -58.2248 H         1 UNK         0.0600 
    227 H227       -3.3031  -23.7310  -57.7771 H         1 UNK         0.0600 
    228 H228       -1.7327  -23.0293  -58.1126 H         1 UNK         0.0600 
    229 H229       -2.1935  -23.4199  -56.4511 H         1 UNK         0.0600 
    230 H230       -0.6686  -21.8818  -56.6364 H         1 UNK         0.3000 
    231 H231        0.1284  -19.1312  -56.3753 H         1 UNK         0.0600 
    232 H232        2.1963  -20.1285  -55.3904 H         1 UNK         0.0600 
    233 H233        1.7485  -20.9456  -56.8793 H         1 UNK         0.0600 
    234 H234        1.4224  -21.7070  -55.3217 H         1 UNK         0.0600 
    235 H235       -1.1561  -21.5454  -54.1692 H         1 UNK         0.3000 
    236 H236       -1.3310  -19.6352  -51.8909 H         1 UNK         0.0600 
    237 H237       -2.1436  -21.6498  -50.6660 H         1 UNK         0.0600 
    238 H238       -2.0202  -22.6243  -52.1218 H         1 UNK         0.0600 
    239 H239       -0.5693  -21.9764  -51.3672 H         1 UNK         0.0600 
    240 H240       -3.1429  -18.3503  -52.0441 H         1 UNK         0.3000 
    241 H241       -5.0792  -18.7813  -54.0630 H         1 UNK         0.0600 
    242 H242       -5.2051  -20.0112  -50.7617 H         1 UNK         0.3800 
    243 H243       -6.9005  -20.4336  -50.8353 H         1 UNK         0.3800 
    244 H244       -6.1308  -16.7175  -53.3521 H         1 UNK         0.0800 
    245 H245       -5.3514  -16.7563  -51.8038 H         1 UNK         0.0800 
    246 H246       -3.9983  -14.7429  -51.5280 H         1 UNK         0.0800 
    247 H247       -2.5530  -14.3705  -52.4276 H         1 UNK         0.0800 
@<TRIPOS>BOND
     1    1    2 1    
     2    1  127 1    
     3    1  128 1    
     4    1  129 1    
     5    2    3 2    
     6    2    4 am   BACKBONE|DICT|INTERRES
     7    4    5 1    
     8    4  130 1    
     9    5    6 1    
    10    5   65 1    
    11    5  131 1    
    12    6    7 1    
    13    6  132 1    
    14    6  133 1    
    15    7    8 1    
    16    8    9 1    
    17    8  134 1    
    18    8  135 1    
    19    9   10 ar   
    20    9   14 ar   
    21   10   11 ar   
    22   10  136 1    
    23   11   12 ar   
    24   11  126 1    
    25   12   13 ar   
    26   12  137 1    
    27   13   14 ar   
    28   13   15 1    
    29   14  138 1    
    30   15   16 1    
    31   15  139 1    
    32   15  140 1    
    33   16   17 1    
    34   17   18 1    
    35   17  141 1    
    36   17  142 1    
    37   18   19 1    
    38   18   67 1    
    39   18  143 1    
    40   19   20 am   BACKBONE|DICT|INTERRES
    41   19  144 1    
    42   20   21 2    
    43   20   22 1    
    44   22   23 1    
    45   22   24 1    
    46   22  145 1    
    47   23  146 1    
    48   23  147 1    
    49   23  148 1    
    50   24   25 am   BACKBONE|DICT|INTERRES
    51   24  149 1    
    52   25   26 2    
    53   25   27 1    
    54   27   28 1    
    55   27   29 1    
    56   27  150 1    
    57   28  151 1    
    58   28  152 1    
    59   28  153 1    
    60   29   30 am   BACKBONE|DICT|INTERRES
    61   29  154 1    
    62   30   31 2    
    63   30   32 1    
    64   32   33 1    
    65   32   34 1    
    66   32  155 1    
    67   33  156 1    
    68   33  157 1    
    69   33  158 1    
    70   34   35 am   BACKBONE|DICT|INTERRES
    71   34  159 1    
    72   35   36 2    
    73   35   37 1    
    74   37   38 1    
    75   37   39 1    
    76   37  160 1    
    77   38  161 1    
    78   38  162 1    
    79   38  163 1    
    80   39   40 am   BACKBONE|DICT|INTERRES
    81   39  164 1    
    82   40   41 2    
    83   40   42 1    
    84   42   43 1    
    85   42   44 1    
    86   42  165 1    
    87   43  166 1    
    88   43  167 1    
    89   43  168 1    
    90   44   45 am   BACKBONE|DICT|INTERRES
    91   44  169 1    
    92   45   46 2    
    93   45   47 1    
    94   47   48 1    
    95   47   49 1    
    96   47  170 1    
    97   48  171 1    
    98   48  172 1    
    99   48  173 1    
   100   49   50 am   BACKBONE|DICT|INTERRES
   101   49  174 1    
   102   50   51 2    
   103   50   52 1    
   104   52   53 1    
   105   52   54 1    
   106   52  175 1    
   107   53  176 1    
   108   53  177 1    
   109   53  178 1    
   110   54   55 am   BACKBONE|DICT|INTERRES
   111   54  179 1    
   112   55   56 2    
   113   55   57 1    
   114   57   58 1    
   115   57   59 1    
   116   57  180 1    
   117   58  181 1    
   118   58  182 1    
   119   58  183 1    
   120   59   60 am   BACKBONE|DICT|INTERRES
   121   59  184 1    
   122   60   61 2    
   123   60   62 1    
   124   62   63 1    
   125   62   64 1    
   126   62  185 1    
   127   63  186 1    
   128   63  187 1    
   129   63  188 1    
   130   64   65 am   BACKBONE|DICT|INTERRES
   131   64  189 1    
   132   65   66 2    
   133   67   68 2    
   134   67   69 am   BACKBONE|DICT|INTERRES
   135   69   70 1    
   136   69  190 1    
   137   70   71 1    
   138   70   72 1    
   139   70  191 1    
   140   71  192 1    
   141   71  193 1    
   142   71  194 1    
   143   72   73 2    
   144   72   74 am   BACKBONE|DICT|INTERRES
   145   74   75 1    
   146   74  195 1    
   147   75   76 1    
   148   75   77 1    
   149   75  196 1    
   150   76  197 1    
   151   76  198 1    
   152   76  199 1    
   153   77   78 2    
   154   77   79 am   BACKBONE|DICT|INTERRES
   155   79   80 1    
   156   79  200 1    
   157   80   81 1    
   158   80   82 1    
   159   80  201 1    
   160   81  202 1    
   161   81  203 1    
   162   81  204 1    
   163   82   83 2    
   164   82   84 am   BACKBONE|DICT|INTERRES
   165   84   85 1    
   166   84  205 1    
   167   85   86 1    
   168   85   87 1    
   169   85  206 1    
   170   86  207 1    
   171   86  208 1    
   172   86  209 1    
   173   87   88 2    
   174   87   89 am   BACKBONE|DICT|INTERRES
   175   89   90 1    
   176   89  210 1    
   177   90   91 1    
   178   90   92 1    
   179   90  211 1    
   180   91  212 1    
   181   91  213 1    
   182   91  214 1    
   183   92   93 2    
   184   92   94 am   BACKBONE|DICT|INTERRES
   185   94   95 1    
   186   94  215 1    
   187   95   96 1    
   188   95   97 1    
   189   95  216 1    
   190   96  217 1    
   191   96  218 1    
   192   96  219 1    
   193   97   98 2    
   194   97   99 am   BACKBONE|DICT|INTERRES
   195   99  100 1    
   196   99  220 1    
   197  100  101 1    
   198  100  102 1    
   199  100  221 1    
   200  101  222 1    
   201  101  223 1    
   202  101  224 1    
   203  102  103 2    
   204  102  104 am   BACKBONE|DICT|INTERRES
   205  104  105 1    
   206  104  225 1    
   207  105  106 1    
   208  105  107 1    
   209  105  226 1    
   210  106  227 1    
   211  106  228 1    
   212  106  229 1    
   213  107  108 2    
   214  107  109 am   BACKBONE|DICT|INTERRES
   215  109  110 1    
   216  109  230 1    
   217  110  111 1    
   218  110  112 1    
   219  110  231 1    
   220  111  232 1    
   221  111  233 1    
   222  111  234 1    
   223  112  113 2    
   224  112  114 am   BACKBONE|DICT|INTERRES
   225  114  115 1    
   226  114  235 1    
   227  115  116 1    
   228  115  117 1    
   229  115  236 1    
   230  116  237 1    
   231  116  238 1    
   232  116  239 1    
   233  117  118 2    
   234  117  119 am   BACKBONE|DICT|INTERRES
   235  119  120 1    
   236  119  240 1    
   237  120  121 1    
   238  120  124 1    
   239  120  241 1    
   240  121  122 am   BACKBONE|DICT|INTERRES
   241  121  123 2    
   242  122  242 1    
   243  122  243 1    
   244  124  125 1    
   245  124  244 1    
   246  124  245 1    
   247  125  126 1    
   248  126  246 1    
   249  126  247 1    
@<TRIPOS>SUBSTRUCTURE
     1 UNK         1 GROUP             0       ****    0 ROOT    
