@<TRIPOS>MOLECULE
3R540
247   249    1
SMALL
USER_CHARGES


@<TRIPOS>ATOM
      1 CA         -2.9174  -13.4750  -43.7990 C.3       0 UNK        -0.1800 
      2 C          -2.5937  -13.7713  -45.2564 C.2       0 UNK         0.5000 
      3 O          -3.5090  -13.9279  -46.0648 O.2       0 UNK        -0.5000 
      4 N          -1.3006  -13.8467  -45.5870 N.am      1 UNK        -0.5000 
      5 CA         -0.7861  -14.0689  -46.9449 C.3       1 UNK         0.1400 
      6 C6          0.2667  -15.2053  -47.0187 C.3       23 UNK        -0.0398 
      7 S7         -0.2896  -16.7693  -46.2578 S.3       23 UNK        -0.2404 
      8 C8         -1.2747  -17.4996  -47.6027 C.3       23 UNK        -0.0205 
      9 C9         -0.4298  -17.9712  -48.7791 C.ar      23 UNK        -0.0193 
     10 C10        -0.7428  -17.5502  -50.0728 C.ar      23 UNK        -0.1150 
     11 C11         0.0046  -17.9941  -51.1664 C.ar      23 UNK        -0.0193 
     12 C12         1.0801  -18.8630  -50.9610 C.ar      23 UNK        -0.1150 
     13 C13         1.4138  -19.2839  -49.6697 C.ar      23 UNK        -0.0193 
     14 C14         0.6498  -18.8385  -48.5872 C.ar      23 UNK        -0.1150 
     15 C15         2.6249  -20.1816  -49.4433 C.3       23 UNK        -0.0205 
     16 S16         2.2389  -21.7041  -48.5194 S.3       23 UNK        -0.2404 
     17 C17         1.1739  -22.6001  -49.7050 C.3       23 UNK        -0.0398 
     18 CA          0.0436  -23.4241  -49.0403 C.3       11 UNK         0.1400 
     19 N           0.5564  -24.3908  -48.0652 N.am      11 UNK        -0.5000 
     20 C          -0.1655  -25.3629  -47.4903 C.2       10 UNK         0.5000 
     21 O          -1.3350  -25.6099  -47.7815 O.2       10 UNK        -0.5000 
     22 CA          0.5133  -26.1726  -46.3672 C.3       10 UNK         0.1400 
     23 CB          1.1085  -27.4704  -46.9316 C.3       10 UNK        -0.1800 
     24 N           1.5522  -25.4457  -45.6266 N.am      10 UNK        -0.5000 
     25 C           1.3805  -24.2821  -44.9837 C.2       9 UNK         0.5000 
     26 O           0.3113  -23.6663  -44.9757 O.2       9 UNK        -0.5000 
     27 CA          2.6162  -23.7016  -44.2716 C.3       9 UNK         0.1400 
     28 CB          3.7698  -23.4542  -45.2591 C.3       9 UNK        -0.1800 
     29 N           2.2932  -22.4301  -43.6315 N.am      9 UNK        -0.5000 
     30 C           1.8255  -22.2704  -42.3884 C.2       8 UNK         0.5000 
     31 O           1.6587  -23.2043  -41.6020 O.2       8 UNK        -0.5000 
     32 CA          1.4656  -20.8286  -41.9544 C.3       8 UNK         0.1400 
     33 CB          1.9193  -20.5232  -40.5121 C.3       8 UNK        -0.1800 
     34 N           1.9208  -19.7752  -42.8768 N.am      8 UNK        -0.5000 
     35 C           3.1842  -19.4515  -43.2001 C.2       7 UNK         0.5000 
     36 O           4.1834  -20.0046  -42.7413 O.2       7 UNK        -0.5000 
     37 CA          3.3508  -18.3329  -44.2440 C.3       7 UNK         0.1400 
     38 CB          3.2719  -18.9214  -45.6621 C.3       7 UNK        -0.1800 
     39 N           2.3458  -17.2768  -44.1048 N.am      7 UNK        -0.5000 
     40 C           2.3360  -16.3748  -43.1155 C.2       6 UNK         0.5000 
     41 O           3.1741  -16.3292  -42.2111 O.2       6 UNK        -0.5000 
     42 CA          1.1904  -15.3569  -43.1399 C.3       6 UNK         0.1400 
     43 CB         -0.0572  -15.9087  -42.4311 C.3       6 UNK        -0.1800 
     44 N           1.6265  -14.1270  -42.4888 N.am      6 UNK        -0.5000 
     45 C           1.3140  -12.8940  -42.8944 C.2       5 UNK         0.5000 
     46 O           0.5867  -12.6576  -43.8627 O.2       5 UNK        -0.5000 
     47 CA          1.9545  -11.7351  -42.1157 C.3       5 UNK         0.1400 
     48 CB          3.2705  -11.3002  -42.7771 C.3       5 UNK        -0.1800 
     49 N           1.0473  -10.5908  -42.0556 N.am      5 UNK        -0.5000 
     50 C           0.0952  -10.4386  -41.1247 C.2       4 UNK         0.5000 
     51 O          -0.0861  -11.2355  -40.2026 O.2       4 UNK        -0.5000 
     52 CA         -0.7967   -9.1840  -41.2111 C.3       4 UNK         0.1400 
     53 CB         -0.2856   -8.0966  -40.2530 C.3       4 UNK        -0.1800 
     54 N          -0.8850   -8.6211  -42.5580 N.am      4 UNK        -0.5000 
     55 C          -1.5994   -9.1522  -43.5574 C.2       3 UNK         0.5000 
     56 O          -2.2875  -10.1665  -43.4405 O.2       3 UNK        -0.5000 
     57 CA         -1.5378   -8.4454  -44.9265 C.3       3 UNK         0.1400 
     58 CB         -0.9846   -7.0022  -44.8772 C.3       3 UNK        -0.1800 
     59 N          -0.8027   -9.2570  -45.8991 N.am      3 UNK        -0.5000 
     60 C           0.4762   -9.6499  -45.8185 C.2       2 UNK         0.5000 
     61 O           1.2423   -9.3348  -44.9051 O.2       2 UNK        -0.5000 
     62 CA          0.9326  -10.6160  -46.9188 C.3       2 UNK         0.1400 
     63 CB          2.4624  -10.7588  -47.0141 C.3       2 UNK        -0.1800 
     64 N           0.3416  -11.9121  -46.6187 N.am      2 UNK        -0.5000 
     65 C          -0.1885  -12.7634  -47.5053 C.2       1 UNK         0.5000 
     66 O          -0.2247  -12.5509  -48.7178 O.2       1 UNK        -0.5000 
     67 C          -1.0657  -22.5211  -48.4524 C.2       11 UNK         0.5000 
     68 O          -2.0506  -22.2449  -49.1375 O.2       11 UNK        -0.5000 
     69 N          -0.8983  -22.1118  -47.1879 N.am      12 UNK        -0.5000 
     70 CA         -1.8479  -21.2882  -46.4470 C.3       12 UNK         0.1400 
     71 CB         -1.0894  -20.4791  -45.3795 C.3       12 UNK        -0.1800 
     72 C          -2.9360  -22.1428  -45.7829 C.2       12 UNK         0.5000 
     73 O          -4.1021  -21.7514  -45.7925 O.2       12 UNK        -0.5000 
     74 N          -2.5234  -23.2737  -45.1969 N.am      13 UNK        -0.5000 
     75 CA         -3.3708  -24.1903  -44.4437 C.3       13 UNK         0.1400 
     76 CB         -2.4947  -24.9722  -43.4458 C.3       13 UNK        -0.1800 
     77 C          -4.1900  -25.1001  -45.3775 C.2       13 UNK         0.5000 
     78 O          -5.3088  -24.7427  -45.7452 O.2       13 UNK        -0.5000 
     79 N          -3.6308  -26.2672  -45.7246 N.am      14 UNK        -0.5000 
     80 CA         -4.2842  -27.3463  -46.4702 C.3       14 UNK         0.1400 
     81 CB         -3.3155  -28.5343  -46.5788 C.3       14 UNK        -0.1800 
     82 C          -4.7983  -26.9414  -47.8638 C.2       14 UNK         0.5000 
     83 O          -5.8984  -27.3432  -48.2447 O.2       14 UNK        -0.5000 
     84 N          -4.0026  -26.1477  -48.5902 N.am      15 UNK        -0.5000 
     85 CA         -4.3323  -25.6484  -49.9257 C.3       15 UNK         0.1400 
     86 CB         -3.0279  -25.4095  -50.6934 C.3       15 UNK        -0.1800 
     87 C          -5.1915  -24.3684  -49.9036 C.2       15 UNK         0.5000 
     88 O          -5.6476  -23.9372  -50.9660 O.2       15 UNK        -0.5000 
     89 N          -5.3835  -23.7786  -48.7127 N.am      16 UNK        -0.5000 
     90 CA         -6.2506  -22.6357  -48.3988 C.3       16 UNK         0.1400 
     91 CB         -7.7279  -23.0595  -48.5354 C.3       16 UNK        -0.1800 
     92 C          -5.9447  -21.3434  -49.1898 C.2       16 UNK         0.5000 
     93 O          -6.8375  -20.5090  -49.3478 O.2       16 UNK        -0.5000 
     94 N          -4.7122  -21.2133  -49.7078 N.am      17 UNK        -0.5000 
     95 CA         -4.2517  -20.1900  -50.6561 C.3       17 UNK         0.1400 
     96 CB         -4.1965  -18.8035  -49.9837 C.3       17 UNK        -0.1800 
     97 C          -5.0404  -20.1832  -51.9889 C.2       17 UNK         0.5000 
     98 O          -5.0784  -19.1604  -52.6742 O.2       17 UNK        -0.5000 
     99 N          -5.6584  -21.3217  -52.3331 N.am      18 UNK        -0.5000 
    100 CA        -6.4815  -21.5113  -53.5240 C.3       18 UNK         0.1400 
    101 CB        -7.8994  -21.9321  -53.1013 C.3       18 UNK        -0.1800 
    102 C         -5.8270  -22.5616  -54.4273 C.2       18 UNK         0.5000 
    103 O         -5.4341  -22.2441  -55.5508 O.2       18 UNK        -0.5000 
    104 N         -5.6460  -23.7798  -53.8954 N.am      19 UNK        -0.5000 
    105 CA        -4.9788  -24.8940  -54.5792 C.3       19 UNK         0.1400 
    106 CB        -5.3291  -26.2089  -53.8666 C.3       19 UNK        -0.1800 
    107 C         -3.4518  -24.7037  -54.6993 C.2       19 UNK         0.5000 
    108 O         -2.8030  -25.4276  -55.4542 O.2       19 UNK        -0.5000 
    109 N         -2.9159  -23.7062  -53.9815 N.am      20 UNK        -0.5000 
    110 CA        -1.5412  -23.2176  -54.0751 C.3       20 UNK         0.1400 
    111 CB        -1.2581  -22.3382  -52.8463 C.3       20 UNK        -0.1800 
    112 C         -1.2537  -22.4458  -55.3830 C.2       20 UNK         0.5000 
    113 O         -0.0853  -22.1876  -55.6731 O.2       20 UNK        -0.5000 
    114 N         -2.3087  -22.1039  -56.1439 N.am      21 UNK        -0.5000 
    115 CA        -2.2904  -21.4068  -57.4343 C.3       21 UNK         0.1400 
    116 CB        -1.5915  -22.2588  -58.5150 C.3       21 UNK        -0.1800 
    117 C         -1.7273  -19.9764  -57.3203 C.2       21 UNK         0.5000 
    118 O         -0.8677  -19.5738  -58.1066 O.2       21 UNK        -0.5000 
    119 N         -2.2306  -19.2388  -56.3236 N.am      22 UNK        -0.5000 
    120 CA        -1.8403  -17.8546  -56.0080 C.3       22 UNK         0.1400 
    121 C         -2.2877  -16.7868  -57.0513 C.2       22 UNK         0.5000 
    122 N         -3.1930  -17.0891  -57.9742 N.am      22 UNK        -0.7600 
    123 O         -1.7990  -15.6605  -57.0238 O.2       22 UNK        -0.5000 
    124 C124       -2.3092  -17.4451  -54.5896 C.3       23 UNK        -0.0398 
    125 S125       -1.6740  -18.5422  -53.2760 S.3       23 UNK        -0.2404 
    126 C126       -0.3537  -17.5175  -52.5629 C.3       23 UNK        -0.0205 
    127 H127       -3.6764  -12.6954  -43.7336 H         1 UNK         0.0600 
    128 H128       -3.3012  -14.3698  -43.3095 H         1 UNK         0.0600 
    129 H129       -2.0401  -13.1315  -43.2507 H         1 UNK         0.0600 
    130 H130       -0.6053  -13.6363  -44.8760 H         1 UNK         0.3000 
    131 H131       -1.6066  -14.3456  -47.6097 H         1 UNK         0.0600 
    132 H132        1.1889  -14.9061  -46.5180 H         1 UNK         0.0800 
    133 H133        0.5445  -15.3982  -48.0565 H         1 UNK         0.0800 
    134 H134       -2.0243  -16.7752  -47.9245 H         1 UNK         0.0800 
    135 H135       -1.8307  -18.3473  -47.2075 H         1 UNK         0.0800 
    136 H136       -1.5754  -16.8803  -50.2347 H         1 UNK         0.1150 
    137 H137        1.6632  -19.1999  -51.8066 H         1 UNK         0.1150 
    138 H138        0.9036  -19.1640  -47.5914 H         1 UNK         0.1150 
    139 H139        3.0915  -20.4540  -50.3912 H         1 UNK         0.0800 
    140 H140        3.3728  -19.6173  -48.8849 H         1 UNK         0.0800 
    141 H141        0.7504  -21.8999  -50.4269 H         1 UNK         0.0800 
    142 H142        1.8137  -23.2654  -50.2861 H         1 UNK         0.0800 
    143 H143       -0.4122  -24.0090  -49.8383 H         1 UNK         0.0600 
    144 H144        1.5084  -24.2519  -47.7604 H         1 UNK         0.3000 
    145 H145       -0.2655  -26.4432  -45.6528 H         1 UNK         0.0600 
    146 H146        1.4947  -28.1072  -46.1356 H         1 UNK         0.0600 
    147 H147        0.3530  -28.0468  -47.4678 H         1 UNK         0.0600 
    148 H148        1.9236  -27.2695  -47.6280 H         1 UNK         0.0600 
    149 H149        2.4603  -25.8861  -45.5938 H         1 UNK         0.3000 
    150 H150        2.9446  -24.4215  -43.5193 H         1 UNK         0.0600 
    151 H151        4.6362  -23.0329  -44.7485 H         1 UNK         0.0600 
    152 H152        3.4830  -22.7595  -46.0482 H         1 UNK         0.0600 
    153 H153        4.0994  -24.3780  -45.7353 H         1 UNK         0.0600 
    154 H154        2.3592  -21.6103  -44.2137 H         1 UNK         0.3000 
    155 H155        0.3757  -20.7832  -41.9689 H         1 UNK         0.0600 
    156 H156        1.6406  -19.5114  -40.2174 H         1 UNK         0.0600 
    157 H157        2.9991  -20.6208  -40.3974 H         1 UNK         0.0600 
    158 H158        1.4536  -21.2063  -39.8010 H         1 UNK         0.0600 
    159 H159        1.1837  -19.2471  -43.3206 H         1 UNK         0.3000 
    160 H160        4.3399  -17.8890  -44.1112 H         1 UNK         0.0600 
    161 H161        2.3233  -19.4299  -45.8335 H         1 UNK         0.0600 
    162 H162        4.0653  -19.6519  -45.8263 H         1 UNK         0.0600 
    163 H163        3.3810  -18.1474  -46.4221 H         1 UNK         0.0600 
    164 H164        1.6234  -17.2409  -44.8121 H         1 UNK         0.3000 
    165 H165        0.9498  -15.1499  -44.1813 H         1 UNK         0.0600 
    166 H166       -0.8705  -15.1841  -42.4422 H         1 UNK         0.0600 
    167 H167       -0.4210  -16.8111  -42.9238 H         1 UNK         0.0600 
    168 H168        0.1509  -16.1607  -41.3905 H         1 UNK         0.0600 
    169 H169        2.2886  -14.2631  -41.7354 H         1 UNK         0.3000 
    170 H170        2.1812  -12.0734  -41.1022 H         1 UNK         0.0600 
    171 H171        3.9757  -12.1305  -42.8314 H         1 UNK         0.0600 
    172 H172        3.1115  -10.9377  -43.7920 H         1 UNK         0.0600 
    173 H173        3.7503  -10.5024  -42.2101 H         1 UNK         0.0600 
    174 H174        1.0827   -9.9483  -42.8389 H         1 UNK         0.3000 
    175 H175       -1.8002   -9.4728  -40.8909 H         1 UNK         0.0600 
    176 H176        0.7132   -7.7552  -40.5280 H         1 UNK         0.0600 
    177 H177       -0.9482   -7.2309  -40.2487 H         1 UNK         0.0600 
    178 H178       -0.2345   -8.4700  -39.2293 H         1 UNK         0.0600 
    179 H179       -0.3264   -7.8015  -42.7471 H         1 UNK         0.3000 
    180 H180       -2.5667   -8.3875  -45.2846 H         1 UNK         0.0600 
    181 H181       -1.5613   -6.3855  -44.1866 H         1 UNK         0.0600 
    182 H182        0.0594   -6.9621  -44.5657 H         1 UNK         0.0600 
    183 H183       -1.0507   -6.5300  -45.8574 H         1 UNK         0.0600 
    184 H184       -1.3593   -9.6249  -46.6578 H         1 UNK         0.3000 
    185 H185        0.5601  -10.2323  -47.8710 H         1 UNK         0.0600 
    186 H186        2.7438  -11.3883  -47.8583 H         1 UNK         0.0600 
    187 H187        2.9380   -9.7879  -47.1579 H         1 UNK         0.0600 
    188 H188        2.8836  -11.2051  -46.1135 H         1 UNK         0.0600 
    189 H189        0.3195  -12.1481  -45.6287 H         1 UNK         0.3000 
    190 H190       -0.1010  -22.4553  -46.6680 H         1 UNK         0.3000 
    191 H191       -2.3335  -20.5944  -47.1357 H         1 UNK         0.0600 
    192 H192       -1.7620  -19.7962  -44.8590 H         1 UNK         0.0600 
    193 H193       -0.2974  -19.8785  -45.8215 H         1 UNK         0.0600 
    194 H194       -0.6321  -21.1241  -44.6286 H         1 UNK         0.0600 
    195 H195       -1.5293  -23.4867  -45.2148 H         1 UNK         0.3000 
    196 H196       -4.0853  -23.6060  -43.8598 H         1 UNK         0.0600 
    197 H197       -3.0846  -25.7050  -42.8935 H         1 UNK         0.0600 
    198 H198       -2.0494  -24.2990  -42.7128 H         1 UNK         0.0600 
    199 H199       -1.6780  -25.5013  -43.9362 H         1 UNK         0.0600 
    200 H200       -2.6960  -26.4589  -45.4002 H         1 UNK         0.3000 
    201 H201       -5.1490  -27.6661  -45.8853 H         1 UNK         0.0600 
    202 H202       -3.0278  -28.9017  -45.5936 H         1 UNK         0.0600 
    203 H203       -2.4053  -28.2629  -47.1155 H         1 UNK         0.0600 
    204 H204       -3.7755  -29.3668  -47.1130 H         1 UNK         0.0600 
    205 H205       -3.0905  -25.8893  -48.2156 H         1 UNK         0.3000 
    206 H206       -4.9009  -26.4136  -50.4572 H         1 UNK         0.0600 
    207 H207       -2.3838  -26.2888  -50.6763 H         1 UNK         0.0600 
    208 H208       -3.2226  -25.1681  -51.7351 H         1 UNK         0.0600 
    209 H209       -2.4772  -24.5767  -50.2676 H         1 UNK         0.0600 
    210 H210       -4.9684  -24.2234  -47.9037 H         1 UNK         0.3000 
    211 H211       -6.0768  -22.3990  -47.3497 H         1 UNK         0.0600 
    212 H212       -7.9970  -23.2526  -49.5746 H         1 UNK         0.0600 
    213 H213       -8.3977  -22.2845  -48.1612 H         1 UNK         0.0600 
    214 H214       -7.9317  -23.9640  -47.9619 H         1 UNK         0.0600 
    215 H215       -4.0163  -21.9172  -49.4810 H         1 UNK         0.3000 
    216 H216       -3.2284  -20.4618  -50.9176 H         1 UNK         0.0600 
    217 H217       -5.1907  -18.4289  -49.7401 H         1 UNK         0.0600 
    218 H218       -3.7239  -18.0717  -50.6393 H         1 UNK         0.0600 
    219 H219       -3.6137  -18.8381  -49.0637 H         1 UNK         0.0600 
    220 H220       -5.5848  -22.1200  -51.7095 H         1 UNK         0.3000 
    221 H221       -6.5608  -20.5855  -54.0975 H         1 UNK         0.0600 
    222 H222       -7.8950  -22.8342  -52.4883 H         1 UNK         0.0600 
    223 H223       -8.3812  -21.1441  -52.5221 H         1 UNK         0.0600 
    224 H224       -8.5266  -22.1262  -53.9723 H         1 UNK         0.0600 
    225 H225       -5.9318  -23.9458  -52.9351 H         1 UNK         0.3000 
    226 H226       -5.3710  -24.9521  -55.5968 H         1 UNK         0.0600 
    227 H227       -6.4049  -26.3850  -53.8762 H         1 UNK         0.0600 
    228 H228       -4.8575  -27.0603  -54.3589 H         1 UNK         0.0600 
    229 H229       -5.0024  -26.2079  -52.8289 H         1 UNK         0.0600 
    230 H230       -3.5383  -23.1791  -53.3882 H         1 UNK         0.3000 
    231 H231       -0.8675  -24.0765  -54.0474 H         1 UNK         0.0600 
    232 H232       -1.9319  -21.4829  -52.8039 H         1 UNK         0.0600 
    233 H233       -1.3770  -22.9014  -51.9212 H         1 UNK         0.0600 
    234 H234       -0.2385  -21.9510  -52.8633 H         1 UNK         0.0600 
    235 H235       -3.2317  -22.3472  -55.8058 H         1 UNK         0.3000 
    236 H236       -3.3340  -21.2984  -57.7335 H         1 UNK         0.0600 
    237 H237       -2.0306  -23.2547  -58.5756 H         1 UNK         0.0600 
    238 H238       -1.6933  -21.7991  -59.4987 H         1 UNK         0.0600 
    239 H239       -0.5253  -22.3739  -58.3185 H         1 UNK         0.0600 
    240 H240       -2.9160  -19.6544  -55.7103 H         1 UNK         0.3000 
    241 H241       -0.7489  -17.8262  -56.0091 H         1 UNK         0.0600 
    242 H242       -3.6038  -18.0079  -58.0101 H         1 UNK         0.3800 
    243 H243       -3.4700  -16.3898  -58.6455 H         1 UNK         0.3800 
    244 H244       -3.3993  -17.4627  -54.5362 H         1 UNK         0.0800 
    245 H245       -2.0194  -16.4164  -54.3698 H         1 UNK         0.0800 
    246 H246       -0.6716  -16.4752  -52.5110 H         1 UNK         0.0800 
    247 H247        0.5192  -17.5437  -53.2168 H         1 UNK         0.0800 
@<TRIPOS>BOND
     1    1    2 1    
     2    1  127 1    
     3    1  128 1    
     4    1  129 1    
     5    2    3 2    
     6    2    4 am   BACKBONE|DICT|INTERRES
     7    4    5 1    
     8    4  130 1    
     9    5    6 1    
    10    5   65 1    
    11    5  131 1    
    12    6    7 1    
    13    6  132 1    
    14    6  133 1    
    15    7    8 1    
    16    8    9 1    
    17    8  134 1    
    18    8  135 1    
    19    9   10 ar   
    20    9   14 ar   
    21   10   11 ar   
    22   10  136 1    
    23   11   12 ar   
    24   11  126 1    
    25   12   13 ar   
    26   12  137 1    
    27   13   14 ar   
    28   13   15 1    
    29   14  138 1    
    30   15   16 1    
    31   15  139 1    
    32   15  140 1    
    33   16   17 1    
    34   17   18 1    
    35   17  141 1    
    36   17  142 1    
    37   18   19 1    
    38   18   67 1    
    39   18  143 1    
    40   19   20 am   BACKBONE|DICT|INTERRES
    41   19  144 1    
    42   20   21 2    
    43   20   22 1    
    44   22   23 1    
    45   22   24 1    
    46   22  145 1    
    47   23  146 1    
    48   23  147 1    
    49   23  148 1    
    50   24   25 am   BACKBONE|DICT|INTERRES
    51   24  149 1    
    52   25   26 2    
    53   25   27 1    
    54   27   28 1    
    55   27   29 1    
    56   27  150 1    
    57   28  151 1    
    58   28  152 1    
    59   28  153 1    
    60   29   30 am   BACKBONE|DICT|INTERRES
    61   29  154 1    
    62   30   31 2    
    63   30   32 1    
    64   32   33 1    
    65   32   34 1    
    66   32  155 1    
    67   33  156 1    
    68   33  157 1    
    69   33  158 1    
    70   34   35 am   BACKBONE|DICT|INTERRES
    71   34  159 1    
    72   35   36 2    
    73   35   37 1    
    74   37   38 1    
    75   37   39 1    
    76   37  160 1    
    77   38  161 1    
    78   38  162 1    
    79   38  163 1    
    80   39   40 am   BACKBONE|DICT|INTERRES
    81   39  164 1    
    82   40   41 2    
    83   40   42 1    
    84   42   43 1    
    85   42   44 1    
    86   42  165 1    
    87   43  166 1    
    88   43  167 1    
    89   43  168 1    
    90   44   45 am   BACKBONE|DICT|INTERRES
    91   44  169 1    
    92   45   46 2    
    93   45   47 1    
    94   47   48 1    
    95   47   49 1    
    96   47  170 1    
    97   48  171 1    
    98   48  172 1    
    99   48  173 1    
   100   49   50 am   BACKBONE|DICT|INTERRES
   101   49  174 1    
   102   50   51 2    
   103   50   52 1    
   104   52   53 1    
   105   52   54 1    
   106   52  175 1    
   107   53  176 1    
   108   53  177 1    
   109   53  178 1    
   110   54   55 am   BACKBONE|DICT|INTERRES
   111   54  179 1    
   112   55   56 2    
   113   55   57 1    
   114   57   58 1    
   115   57   59 1    
   116   57  180 1    
   117   58  181 1    
   118   58  182 1    
   119   58  183 1    
   120   59   60 am   BACKBONE|DICT|INTERRES
   121   59  184 1    
   122   60   61 2    
   123   60   62 1    
   124   62   63 1    
   125   62   64 1    
   126   62  185 1    
   127   63  186 1    
   128   63  187 1    
   129   63  188 1    
   130   64   65 am   BACKBONE|DICT|INTERRES
   131   64  189 1    
   132   65   66 2    
   133   67   68 2    
   134   67   69 am   BACKBONE|DICT|INTERRES
   135   69   70 1    
   136   69  190 1    
   137   70   71 1    
   138   70   72 1    
   139   70  191 1    
   140   71  192 1    
   141   71  193 1    
   142   71  194 1    
   143   72   73 2    
   144   72   74 am   BACKBONE|DICT|INTERRES
   145   74   75 1    
   146   74  195 1    
   147   75   76 1    
   148   75   77 1    
   149   75  196 1    
   150   76  197 1    
   151   76  198 1    
   152   76  199 1    
   153   77   78 2    
   154   77   79 am   BACKBONE|DICT|INTERRES
   155   79   80 1    
   156   79  200 1    
   157   80   81 1    
   158   80   82 1    
   159   80  201 1    
   160   81  202 1    
   161   81  203 1    
   162   81  204 1    
   163   82   83 2    
   164   82   84 am   BACKBONE|DICT|INTERRES
   165   84   85 1    
   166   84  205 1    
   167   85   86 1    
   168   85   87 1    
   169   85  206 1    
   170   86  207 1    
   171   86  208 1    
   172   86  209 1    
   173   87   88 2    
   174   87   89 am   BACKBONE|DICT|INTERRES
   175   89   90 1    
   176   89  210 1    
   177   90   91 1    
   178   90   92 1    
   179   90  211 1    
   180   91  212 1    
   181   91  213 1    
   182   91  214 1    
   183   92   93 2    
   184   92   94 am   BACKBONE|DICT|INTERRES
   185   94   95 1    
   186   94  215 1    
   187   95   96 1    
   188   95   97 1    
   189   95  216 1    
   190   96  217 1    
   191   96  218 1    
   192   96  219 1    
   193   97   98 2    
   194   97   99 am   BACKBONE|DICT|INTERRES
   195   99  100 1    
   196   99  220 1    
   197  100  101 1    
   198  100  102 1    
   199  100  221 1    
   200  101  222 1    
   201  101  223 1    
   202  101  224 1    
   203  102  103 2    
   204  102  104 am   BACKBONE|DICT|INTERRES
   205  104  105 1    
   206  104  225 1    
   207  105  106 1    
   208  105  107 1    
   209  105  226 1    
   210  106  227 1    
   211  106  228 1    
   212  106  229 1    
   213  107  108 2    
   214  107  109 am   BACKBONE|DICT|INTERRES
   215  109  110 1    
   216  109  230 1    
   217  110  111 1    
   218  110  112 1    
   219  110  231 1    
   220  111  232 1    
   221  111  233 1    
   222  111  234 1    
   223  112  113 2    
   224  112  114 am   BACKBONE|DICT|INTERRES
   225  114  115 1    
   226  114  235 1    
   227  115  116 1    
   228  115  117 1    
   229  115  236 1    
   230  116  237 1    
   231  116  238 1    
   232  116  239 1    
   233  117  118 2    
   234  117  119 am   BACKBONE|DICT|INTERRES
   235  119  120 1    
   236  119  240 1    
   237  120  121 1    
   238  120  124 1    
   239  120  241 1    
   240  121  122 am   BACKBONE|DICT|INTERRES
   241  121  123 2    
   242  122  242 1    
   243  122  243 1    
   244  124  125 1    
   245  124  244 1    
   246  124  245 1    
   247  125  126 1    
   248  126  246 1    
   249  126  247 1    
@<TRIPOS>SUBSTRUCTURE
     1 UNK         1 GROUP             0       ****    0 ROOT    
