@<TRIPOS>MOLECULE
3R540
247   249    1
SMALL
USER_CHARGES


@<TRIPOS>ATOM
      1 CA         -0.6613  -10.8948  -45.5816 C.3       0 UNK        -0.1800 
      2 C          -1.0286  -12.3666  -45.7050 C.2       0 UNK         0.5000 
      3 O          -2.0540  -12.7923  -45.1724 O.2       0 UNK        -0.5000 
      4 N          -0.1876  -13.1414  -46.4022 N.am      1 UNK        -0.5000 
      5 CA         -0.3005  -14.5869  -46.6162 C.3       1 UNK         0.1400 
      6 C6         -1.4475  -14.9596  -47.5969 C.3       23 UNK        -0.0398 
      7 S7         -1.2045  -16.6078  -48.3421 S.3       23 UNK        -0.2404 
      8 C8         -0.1451  -16.1568  -49.7558 C.3       23 UNK        -0.0205 
      9 C9          0.5041  -17.3593  -50.4278 C.ar      23 UNK        -0.0193 
     10 C10         0.4102  -17.5254  -51.8128 C.ar      23 UNK        -0.1150 
     11 C11         1.0600  -18.5879  -52.4482 C.ar      23 UNK        -0.0193 
     12 C12         1.8105  -19.4877  -51.6869 C.ar      23 UNK        -0.1150 
     13 C13         1.8820  -19.3563  -50.2981 C.ar      23 UNK        -0.0193 
     14 C14         1.2392  -18.2820  -49.6770 C.ar      23 UNK        -0.1150 
     15 C15         2.6208  -20.3957  -49.4639 C.3       23 UNK        -0.0205 
     16 S16         1.8896  -22.0581  -49.6281 S.3       23 UNK        -0.2404 
     17 C17         0.1325  -21.7128  -49.2792 C.3       23 UNK        -0.0398 
     18 CA         -0.5124  -22.7405  -48.3294 C.3       11 UNK         0.1400 
     19 N           0.1413  -22.7794  -47.0184 N.am      11 UNK        -0.5000 
     20 C          -0.0027  -23.7795  -46.1387 C.2       10 UNK         0.5000 
     21 O          -0.7098  -24.7668  -46.3388 O.2       10 UNK        -0.5000 
     22 CA          0.7152  -23.6174  -44.7851 C.3       10 UNK         0.1400 
     23 CB          2.1843  -24.0504  -44.8978 C.3       10 UNK        -0.1800 
     24 N           0.6508  -22.2512  -44.2585 N.am      10 UNK        -0.5000 
     25 C          -0.4841  -21.5881  -43.9974 C.2       9 UNK         0.5000 
     26 O          -1.6022  -22.0764  -44.1530 O.2       9 UNK        -0.5000 
     27 CA         -0.3768  -20.1329  -43.5112 C.3       9 UNK         0.1400 
     28 CB         -0.7062  -20.0411  -42.0138 C.3       9 UNK        -0.1800 
     29 N           0.9151  -19.4875  -43.7528 N.am      9 UNK        -0.5000 
     30 C           1.4366  -19.1860  -44.9504 C.2       8 UNK         0.5000 
     31 O           0.9320  -19.5400  -46.0179 O.2       8 UNK        -0.5000 
     32 CA          2.7265  -18.3381  -44.9337 C.3       8 UNK         0.1400 
     33 CB          2.9903  -17.6352  -46.2766 C.3       8 UNK        -0.1800 
     34 N           2.6679  -17.3139  -43.8905 N.am      8 UNK        -0.5000 
     35 C           3.1789  -17.4049  -42.6580 C.2       7 UNK         0.5000 
     36 O           3.7358  -18.4182  -42.2329 O.2       7 UNK        -0.5000 
     37 CA          3.0103  -16.1650  -41.7506 C.3       7 UNK         0.1400 
     38 CB          3.9656  -16.1704  -40.5397 C.3       7 UNK        -0.1800 
     39 N           3.1027  -14.8889  -42.4696 N.am      7 UNK        -0.5000 
     40 C           4.1365  -14.4290  -43.1921 C.2       6 UNK         0.5000 
     41 O           5.1878  -15.0480  -43.3608 O.2       6 UNK        -0.5000 
     42 CA          3.9893  -13.0294  -43.8129 C.3       6 UNK         0.1400 
     43 CB          3.2126  -13.0875  -45.1358 C.3       6 UNK        -0.1800 
     44 N           3.3182  -12.1037  -42.8994 N.am      6 UNK        -0.5000 
     45 C           3.8036  -10.9136  -42.5190 C.2       5 UNK         0.5000 
     46 O           4.8569  -10.4356  -42.9429 O.2       5 UNK        -0.5000 
     47 CA          2.9830  -10.1118  -41.4854 C.3       5 UNK         0.1400 
     48 CB          2.1004   -9.0730  -42.1948 C.3       5 UNK        -0.1800 
     49 N           2.1337  -10.9470  -40.6352 N.am      5 UNK        -0.5000 
     50 C           2.5732  -11.8629  -39.7616 C.2       4 UNK         0.5000 
     51 O           3.7620  -12.0216  -39.4829 O.2       4 UNK        -0.5000 
     52 CA          1.5170  -12.7772  -39.1049 C.3       4 UNK         0.1400 
     53 CB          1.3123  -12.3854  -37.6332 C.3       4 UNK        -0.1800 
     54 N           0.2045  -12.8230  -39.7652 N.am      4 UNK        -0.5000 
     55 C          -0.0368  -13.1813  -41.0333 C.2       3 UNK         0.5000 
     56 O           0.8461  -13.3788  -41.8723 O.2       3 UNK        -0.5000 
     57 CA         -1.5173  -13.2971  -41.4371 C.3       3 UNK         0.1400 
     58 CB         -2.0505  -11.9383  -41.9130 C.3       3 UNK        -0.1800 
     59 N          -1.7070  -14.2932  -42.4923 N.am      3 UNK        -0.5000 
     60 C          -1.5307  -15.6120  -42.3186 C.2       2 UNK         0.5000 
     61 O          -1.2778  -16.1260  -41.2281 O.2       2 UNK        -0.5000 
     62 CA         -1.6548  -16.5232  -43.5546 C.3       2 UNK         0.1400 
     63 CB         -3.0113  -17.2426  -43.5635 C.3       2 UNK        -0.1800 
     64 N          -1.4772  -15.8287  -44.8283 N.am      2 UNK        -0.5000 
     65 C          -0.3093  -15.3449  -45.2697 C.2       1 UNK         0.5000 
     66 O           0.7453  -15.4555  -44.6454 O.2       1 UNK        -0.5000 
     67 C          -2.0227  -22.4574  -48.2158 C.2       11 UNK         0.5000 
     68 O          -2.7816  -22.8979  -49.0790 O.2       11 UNK        -0.5000 
     69 N          -2.4373  -21.7280  -47.1711 N.am      12 UNK        -0.5000 
     70 CA         -3.8415  -21.4529  -46.8714 C.3       12 UNK         0.1400 
     71 CB         -3.9483  -20.2235  -45.9584 C.3       12 UNK        -0.1800 
     72 C          -4.5280  -22.6797  -46.2490 C.2       12 UNK         0.5000 
     73 O          -5.6502  -23.0025  -46.6350 O.2       12 UNK        -0.5000 
     74 N          -3.8208  -23.3766  -45.3478 N.am      13 UNK        -0.5000 
     75 CA         -4.2439  -24.6366  -44.7319 C.3       13 UNK         0.1400 
     76 CB         -3.2515  -25.0186  -43.6234 C.3       13 UNK        -0.1800 
     77 C          -4.3886  -25.7795  -45.7550 C.2       13 UNK         0.5000 
     78 O          -5.3342  -26.5628  -45.6643 O.2       13 UNK        -0.5000 
     79 N          -3.4766  -25.8233  -46.7364 N.am      14 UNK        -0.5000 
     80 CA         -3.5248  -26.7287  -47.8876 C.3       14 UNK         0.1400 
     81 CB         -2.1303  -26.7752  -48.5327 C.3       14 UNK        -0.1800 
     82 C          -4.5809  -26.3319  -48.9419 C.2       14 UNK         0.5000 
     83 O          -4.8476  -27.1224  -49.8469 O.2       14 UNK        -0.5000 
     84 N          -5.1274  -25.1111  -48.8300 N.am      15 UNK        -0.5000 
     85 CA         -6.0748  -24.4442  -49.7320 C.3       15 UNK         0.1400 
     86 CB         -7.3931  -25.2342  -49.8523 C.3       15 UNK        -0.1800 
     87 C          -5.4864  -24.0756  -51.1097 C.2       15 UNK         0.5000 
     88 O          -6.2275  -23.6234  -51.9822 O.2       15 UNK        -0.5000 
     89 N          -4.1654  -24.2145  -51.2768 N.am      16 UNK        -0.5000 
     90 CA         -3.4283  -23.8691  -52.4891 C.3       16 UNK         0.1400 
     91 CB         -1.9978  -24.4190  -52.3921 C.3       16 UNK        -0.1800 
     92 C          -3.4145  -22.3549  -52.7463 C.2       16 UNK         0.5000 
     93 O          -3.5705  -21.9384  -53.8935 O.2       16 UNK        -0.5000 
     94 N          -3.2704  -21.5613  -51.6753 N.am      17 UNK        -0.5000 
     95 CA         -3.3447  -20.0991  -51.7317 C.3       17 UNK         0.1400 
     96 CB         -2.7453  -19.4926  -50.4542 C.3       17 UNK        -0.1800 
     97 C          -4.7803  -19.5905  -51.9553 C.2       17 UNK         0.5000 
     98 O          -4.9633  -18.5604  -52.6032 O.2       17 UNK        -0.5000 
     99 N          -5.7705  -20.3294  -51.4346 N.am      18 UNK        -0.5000 
    100 CA        -7.1954  -20.0313  -51.5855 C.3       18 UNK         0.1400 
    101 CB        -8.0002  -20.8303  -50.5480 C.3       18 UNK        -0.1800 
    102 C         -7.6956  -20.3152  -53.0132 C.2       18 UNK         0.5000 
    103 O         -8.4214  -19.4978  -53.5798 O.2       18 UNK        -0.5000 
    104 N         -7.2756  -21.4563  -53.5760 N.am      19 UNK        -0.5000 
    105 CA        -7.5848  -21.8757  -54.9441 C.3       19 UNK         0.1400 
    106 CB        -7.3486  -23.3908  -55.0547 C.3       19 UNK        -0.1800 
    107 C         -6.7583  -21.1369  -56.0153 C.2       19 UNK         0.5000 
    108 O         -7.1225  -21.1887  -57.1905 O.2       19 UNK        -0.5000 
    109 N         -5.6488  -20.5062  -55.5990 N.am      20 UNK        -0.5000 
    110 CA        -4.5927  -19.9129  -56.4299 C.3       20 UNK         0.1400 
    111 CB        -5.1244  -18.7266  -57.2601 C.3       20 UNK        -0.1800 
    112 C         -3.8517  -20.9716  -57.2778 C.2       20 UNK         0.5000 
    113 O         -3.3788  -20.6796  -58.3773 O.2       20 UNK        -0.5000 
    114 N         -3.7570  -22.1887  -56.7288 N.am      21 UNK        -0.5000 
    115 CA        -3.0592  -23.3414  -57.2958 C.3       21 UNK         0.1400 
    116 CB        -3.7774  -24.6173  -56.8279 C.3       21 UNK        -0.1800 
    117 C         -1.5724  -23.3763  -56.8909 C.2       21 UNK         0.5000 
    118 O         -0.8179  -24.1877  -57.4279 O.2       21 UNK        -0.5000 
    119 N         -1.1808  -22.5063  -55.9512 N.am      22 UNK        -0.5000 
    120 CA         0.1842  -22.3374  -55.4330 C.3       22 UNK         0.1400 
    121 C          1.2467  -21.8262  -56.4543 C.2       22 UNK         0.5000 
    122 N          0.8652  -21.3196  -57.6206 N.am      22 UNK        -0.7600 
    123 O          2.4418  -21.8983  -56.1817 O.2       22 UNK        -0.5000 
    124 C124        0.1772  -21.4807  -54.1417 C.3       23 UNK        -0.0398 
    125 S125       -0.4879  -19.7936  -54.3940 S.3       23 UNK        -0.2404 
    126 C126        0.9445  -18.7605  -53.9548 C.3       23 UNK        -0.0205 
    127 H127       -1.5521  -10.2732  -45.6721 H         1 UNK         0.0600 
    128 H128        0.0428  -10.5909  -46.3565 H         1 UNK         0.0600 
    129 H129       -0.2041  -10.7015  -44.6116 H         1 UNK         0.0600 
    130 H130        0.6425  -12.7190  -46.7928 H         1 UNK         0.3000 
    131 H131        0.6407  -14.8624  -47.0941 H         1 UNK         0.0600 
    132 H132       -2.4281  -14.9105  -47.1225 H         1 UNK         0.0800 
    133 H133       -1.4900  -14.2299  -48.4070 H         1 UNK         0.0800 
    134 H134        0.6498  -15.4897  -49.4211 H         1 UNK         0.0800 
    135 H135       -0.7434  -15.5911  -50.4718 H         1 UNK         0.0800 
    136 H136       -0.1616  -16.8222  -52.4019 H         1 UNK         0.1150 
    137 H137        2.3200  -20.3110  -52.1654 H         1 UNK         0.1150 
    138 H138        1.2960  -18.1696  -48.6039 H         1 UNK         0.1150 
    139 H139        2.6126  -20.1242  -48.4083 H         1 UNK         0.0800 
    140 H140        3.6670  -20.4295  -49.7701 H         1 UNK         0.0800 
    141 H141       -0.3837  -21.6982  -50.2412 H         1 UNK         0.0800 
    142 H142        0.0281  -20.7129  -48.8548 H         1 UNK         0.0800 
    143 H143       -0.4079  -23.7266  -48.7871 H         1 UNK         0.0600 
    144 H144        0.7182  -21.9859  -46.7734 H         1 UNK         0.3000 
    145 H145        0.2182  -24.2733  -44.0675 H         1 UNK         0.0600 
    146 H146        2.2621  -25.0721  -45.2723 H         1 UNK         0.0600 
    147 H147        2.6794  -24.0232  -43.9269 H         1 UNK         0.0600 
    148 H148        2.7435  -23.4076  -45.5789 H         1 UNK         0.0600 
    149 H149        1.5280  -21.7774  -44.1035 H         1 UNK         0.3000 
    150 H150       -1.1321  -19.5705  -44.0624 H         1 UNK         0.0600 
    151 H151        0.0240  -20.5800  -41.4088 H         1 UNK         0.0600 
    152 H152       -1.6876  -20.4680  -41.8017 H         1 UNK         0.0600 
    153 H153       -0.7257  -19.0061  -41.6722 H         1 UNK         0.0600 
    154 H154        1.4263  -19.1883  -42.9347 H         1 UNK         0.3000 
    155 H155        3.5598  -19.0161  -44.7401 H         1 UNK         0.0600 
    156 H156        3.1858  -18.3591  -47.0659 H         1 UNK         0.0600 
    157 H157        3.8638  -16.9856  -46.2160 H         1 UNK         0.0600 
    158 H158        2.1418  -17.0239  -46.5858 H         1 UNK         0.0600 
    159 H159        2.1328  -16.4794  -44.1288 H         1 UNK         0.3000 
    160 H160        1.9909  -16.2141  -41.3645 H         1 UNK         0.0600 
    161 H161        5.0107  -16.1864  -40.8503 H         1 UNK         0.0600 
    162 H162        3.7972  -17.0455  -39.9111 H         1 UNK         0.0600 
    163 H163        3.8164  -15.2897  -39.9152 H         1 UNK         0.0600 
    164 H164        2.2580  -14.3225  -42.4191 H         1 UNK         0.3000 
    165 H165        5.0004  -12.6813  -44.0337 H         1 UNK         0.0600 
    166 H166        3.6149  -13.8527  -45.8011 H         1 UNK         0.0600 
    167 H167        2.1630  -13.3153  -44.9618 H         1 UNK         0.0600 
    168 H168        3.2631  -12.1340  -45.6613 H         1 UNK         0.0600 
    169 H169        2.4492  -12.4265  -42.4861 H         1 UNK         0.3000 
    170 H170        3.6891   -9.5833  -40.8417 H         1 UNK         0.0600 
    171 H171        1.5719   -8.4465  -41.4761 H         1 UNK         0.0600 
    172 H172        1.3582   -9.5480  -42.8376 H         1 UNK         0.0600 
    173 H173        2.7012   -8.4115  -42.8205 H         1 UNK         0.0600 
    174 H174        1.1393  -10.8904  -40.7957 H         1 UNK         0.3000 
    175 H175        1.9221  -13.7905  -39.1323 H         1 UNK         0.0600 
    176 H176        2.2601  -12.3753  -37.0931 H         1 UNK         0.0600 
    177 H177        0.8714  -11.3920  -37.5406 H         1 UNK         0.0600 
    178 H178        0.6592  -13.0931  -37.1223 H         1 UNK         0.0600 
    179 H179       -0.5870  -12.6461  -39.1633 H         1 UNK         0.3000 
    180 H180       -2.0966  -13.6124  -40.5668 H         1 UNK         0.0600 
    181 H181       -1.4626  -11.5433  -42.7405 H         1 UNK         0.0600 
    182 H182       -2.0176  -11.2017  -41.1094 H         1 UNK         0.0600 
    183 H183       -3.0867  -12.0125  -42.2436 H         1 UNK         0.0600 
    184 H184       -1.8721  -13.9383  -43.4278 H         1 UNK         0.3000 
    185 H185       -0.8668  -17.2720  -43.4739 H         1 UNK         0.0600 
    186 H186       -3.1492  -17.8299  -42.6546 H         1 UNK         0.0600 
    187 H187       -3.8402  -16.5368  -43.6290 H         1 UNK         0.0600 
    188 H188       -3.0871  -17.9275  -44.4065 H         1 UNK         0.0600 
    189 H189       -2.3105  -15.6674  -45.3739 H         1 UNK         0.3000 
    190 H190       -1.7576  -21.4265  -46.4881 H         1 UNK         0.3000 
    191 H191       -4.3594  -21.2200  -47.8044 H         1 UNK         0.0600 
    192 H192       -3.4766  -19.3541  -46.4170 H         1 UNK         0.0600 
    193 H193       -4.9920  -19.9674  -45.7730 H         1 UNK         0.0600 
    194 H194       -3.4773  -20.3914  -44.9901 H         1 UNK         0.0600 
    195 H195       -2.9265  -23.0020  -45.0389 H         1 UNK         0.3000 
    196 H196       -5.2217  -24.4728  -44.2745 H         1 UNK         0.0600 
    197 H197       -3.5574  -25.9390  -43.1247 H         1 UNK         0.0600 
    198 H198       -3.1917  -24.2397  -42.8629 H         1 UNK         0.0600 
    199 H199       -2.2475  -25.1761  -44.0186 H         1 UNK         0.0600 
    200 H200       -2.6785  -25.1985  -46.6860 H         1 UNK         0.3000 
    201 H201       -3.7736  -27.7309  -47.5330 H         1 UNK         0.0600 
    202 H202       -2.1076  -27.4700  -49.3732 H         1 UNK         0.0600 
    203 H203       -1.3763  -27.1070  -47.8186 H         1 UNK         0.0600 
    204 H204       -1.8287  -25.7965  -48.9075 H         1 UNK         0.0600 
    205 H205       -4.8436  -24.5508  -48.0370 H         1 UNK         0.3000 
    206 H206       -6.3119  -23.4930  -49.2545 H         1 UNK         0.0600 
    207 H207       -7.8006  -25.4720  -48.8697 H         1 UNK         0.0600 
    208 H208       -8.1486  -24.6542  -50.3836 H         1 UNK         0.0600 
    209 H209       -7.2603  -26.1686  -50.3978 H         1 UNK         0.0600 
    210 H210       -3.6181  -24.4895  -50.4732 H         1 UNK         0.3000 
    211 H211       -3.9261  -24.3490  -53.3337 H         1 UNK         0.0600 
    212 H212       -2.0013  -25.4973  -52.2319 H         1 UNK         0.0600 
    213 H213       -1.4456  -24.2318  -53.3138 H         1 UNK         0.0600 
    214 H214       -1.4420  -23.9609  -51.5728 H         1 UNK         0.0600 
    215 H215       -3.1539  -21.9929  -50.7634 H         1 UNK         0.3000 
    216 H216       -2.7467  -19.7537  -52.5760 H         1 UNK         0.0600 
    217 H217       -3.2387  -19.8627  -49.5559 H         1 UNK         0.0600 
    218 H218       -2.8408  -18.4060  -50.4564 H         1 UNK         0.0600 
    219 H219       -1.6819  -19.7124  -50.3766 H         1 UNK         0.0600 
    220 H220       -5.5301  -21.1766  -50.9443 H         1 UNK         0.3000 
    221 H221       -7.3461  -18.9688  -51.3826 H         1 UNK         0.0600 
    222 H222       -7.9099  -21.9057  -50.7013 H         1 UNK         0.0600 
    223 H223       -7.6695  -20.6068  -49.5336 H         1 UNK         0.0600 
    224 H224       -9.0606  -20.5818  -50.6058 H         1 UNK         0.0600 
    225 H225       -6.7399  -22.1147  -53.0158 H         1 UNK         0.3000 
    226 H226       -8.6399  -21.6766  -55.1428 H         1 UNK         0.0600 
    227 H227       -7.9659  -23.9391  -54.3428 H         1 UNK         0.0600 
    228 H228       -7.5983  -23.7570  -56.0513 H         1 UNK         0.0600 
    229 H229       -6.3065  -23.6493  -54.8610 H         1 UNK         0.0600 
    230 H230       -5.4375  -20.5569  -54.6119 H         1 UNK         0.3000 
    231 H231       -3.8525  -19.5177  -55.7323 H         1 UNK         0.0600 
    232 H232       -5.8089  -19.0508  -58.0441 H         1 UNK         0.0600 
    233 H233       -4.3056  -18.1932  -57.7442 H         1 UNK         0.0600 
    234 H234       -5.6500  -18.0095  -56.6295 H         1 UNK         0.0600 
    235 H235       -4.0920  -22.2916  -55.7767 H         1 UNK         0.3000 
    236 H236       -3.1076  -23.2966  -58.3856 H         1 UNK         0.0600 
    237 H237       -3.7404  -24.7253  -55.7437 H         1 UNK         0.0600 
    238 H238       -4.8254  -24.6122  -57.1285 H         1 UNK         0.0600 
    239 H239       -3.3195  -25.5067  -57.2627 H         1 UNK         0.0600 
    240 H240       -1.8770  -21.8895  -55.5551 H         1 UNK         0.3000 
    241 H241        0.5228  -23.3351  -55.1475 H         1 UNK         0.0600 
    242 H242       -0.1125  -21.2490  -57.8527 H         1 UNK         0.3800 
    243 H243        1.5614  -20.9965  -58.2738 H         1 UNK         0.3800 
    244 H244       -0.4313  -21.9645  -53.3780 H         1 UNK         0.0800 
    245 H245        1.1812  -21.4381  -53.7219 H         1 UNK         0.0800 
    246 H246        1.8591  -19.1901  -54.3669 H         1 UNK         0.0800 
    247 H247        0.8295  -17.7847  -54.4288 H         1 UNK         0.0800 
@<TRIPOS>BOND
     1    1    2 1    
     2    1  127 1    
     3    1  128 1    
     4    1  129 1    
     5    2    3 2    
     6    2    4 am   BACKBONE|DICT|INTERRES
     7    4    5 1    
     8    4  130 1    
     9    5    6 1    
    10    5   65 1    
    11    5  131 1    
    12    6    7 1    
    13    6  132 1    
    14    6  133 1    
    15    7    8 1    
    16    8    9 1    
    17    8  134 1    
    18    8  135 1    
    19    9   10 ar   
    20    9   14 ar   
    21   10   11 ar   
    22   10  136 1    
    23   11   12 ar   
    24   11  126 1    
    25   12   13 ar   
    26   12  137 1    
    27   13   14 ar   
    28   13   15 1    
    29   14  138 1    
    30   15   16 1    
    31   15  139 1    
    32   15  140 1    
    33   16   17 1    
    34   17   18 1    
    35   17  141 1    
    36   17  142 1    
    37   18   19 1    
    38   18   67 1    
    39   18  143 1    
    40   19   20 am   BACKBONE|DICT|INTERRES
    41   19  144 1    
    42   20   21 2    
    43   20   22 1    
    44   22   23 1    
    45   22   24 1    
    46   22  145 1    
    47   23  146 1    
    48   23  147 1    
    49   23  148 1    
    50   24   25 am   BACKBONE|DICT|INTERRES
    51   24  149 1    
    52   25   26 2    
    53   25   27 1    
    54   27   28 1    
    55   27   29 1    
    56   27  150 1    
    57   28  151 1    
    58   28  152 1    
    59   28  153 1    
    60   29   30 am   BACKBONE|DICT|INTERRES
    61   29  154 1    
    62   30   31 2    
    63   30   32 1    
    64   32   33 1    
    65   32   34 1    
    66   32  155 1    
    67   33  156 1    
    68   33  157 1    
    69   33  158 1    
    70   34   35 am   BACKBONE|DICT|INTERRES
    71   34  159 1    
    72   35   36 2    
    73   35   37 1    
    74   37   38 1    
    75   37   39 1    
    76   37  160 1    
    77   38  161 1    
    78   38  162 1    
    79   38  163 1    
    80   39   40 am   BACKBONE|DICT|INTERRES
    81   39  164 1    
    82   40   41 2    
    83   40   42 1    
    84   42   43 1    
    85   42   44 1    
    86   42  165 1    
    87   43  166 1    
    88   43  167 1    
    89   43  168 1    
    90   44   45 am   BACKBONE|DICT|INTERRES
    91   44  169 1    
    92   45   46 2    
    93   45   47 1    
    94   47   48 1    
    95   47   49 1    
    96   47  170 1    
    97   48  171 1    
    98   48  172 1    
    99   48  173 1    
   100   49   50 am   BACKBONE|DICT|INTERRES
   101   49  174 1    
   102   50   51 2    
   103   50   52 1    
   104   52   53 1    
   105   52   54 1    
   106   52  175 1    
   107   53  176 1    
   108   53  177 1    
   109   53  178 1    
   110   54   55 am   BACKBONE|DICT|INTERRES
   111   54  179 1    
   112   55   56 2    
   113   55   57 1    
   114   57   58 1    
   115   57   59 1    
   116   57  180 1    
   117   58  181 1    
   118   58  182 1    
   119   58  183 1    
   120   59   60 am   BACKBONE|DICT|INTERRES
   121   59  184 1    
   122   60   61 2    
   123   60   62 1    
   124   62   63 1    
   125   62   64 1    
   126   62  185 1    
   127   63  186 1    
   128   63  187 1    
   129   63  188 1    
   130   64   65 am   BACKBONE|DICT|INTERRES
   131   64  189 1    
   132   65   66 2    
   133   67   68 2    
   134   67   69 am   BACKBONE|DICT|INTERRES
   135   69   70 1    
   136   69  190 1    
   137   70   71 1    
   138   70   72 1    
   139   70  191 1    
   140   71  192 1    
   141   71  193 1    
   142   71  194 1    
   143   72   73 2    
   144   72   74 am   BACKBONE|DICT|INTERRES
   145   74   75 1    
   146   74  195 1    
   147   75   76 1    
   148   75   77 1    
   149   75  196 1    
   150   76  197 1    
   151   76  198 1    
   152   76  199 1    
   153   77   78 2    
   154   77   79 am   BACKBONE|DICT|INTERRES
   155   79   80 1    
   156   79  200 1    
   157   80   81 1    
   158   80   82 1    
   159   80  201 1    
   160   81  202 1    
   161   81  203 1    
   162   81  204 1    
   163   82   83 2    
   164   82   84 am   BACKBONE|DICT|INTERRES
   165   84   85 1    
   166   84  205 1    
   167   85   86 1    
   168   85   87 1    
   169   85  206 1    
   170   86  207 1    
   171   86  208 1    
   172   86  209 1    
   173   87   88 2    
   174   87   89 am   BACKBONE|DICT|INTERRES
   175   89   90 1    
   176   89  210 1    
   177   90   91 1    
   178   90   92 1    
   179   90  211 1    
   180   91  212 1    
   181   91  213 1    
   182   91  214 1    
   183   92   93 2    
   184   92   94 am   BACKBONE|DICT|INTERRES
   185   94   95 1    
   186   94  215 1    
   187   95   96 1    
   188   95   97 1    
   189   95  216 1    
   190   96  217 1    
   191   96  218 1    
   192   96  219 1    
   193   97   98 2    
   194   97   99 am   BACKBONE|DICT|INTERRES
   195   99  100 1    
   196   99  220 1    
   197  100  101 1    
   198  100  102 1    
   199  100  221 1    
   200  101  222 1    
   201  101  223 1    
   202  101  224 1    
   203  102  103 2    
   204  102  104 am   BACKBONE|DICT|INTERRES
   205  104  105 1    
   206  104  225 1    
   207  105  106 1    
   208  105  107 1    
   209  105  226 1    
   210  106  227 1    
   211  106  228 1    
   212  106  229 1    
   213  107  108 2    
   214  107  109 am   BACKBONE|DICT|INTERRES
   215  109  110 1    
   216  109  230 1    
   217  110  111 1    
   218  110  112 1    
   219  110  231 1    
   220  111  232 1    
   221  111  233 1    
   222  111  234 1    
   223  112  113 2    
   224  112  114 am   BACKBONE|DICT|INTERRES
   225  114  115 1    
   226  114  235 1    
   227  115  116 1    
   228  115  117 1    
   229  115  236 1    
   230  116  237 1    
   231  116  238 1    
   232  116  239 1    
   233  117  118 2    
   234  117  119 am   BACKBONE|DICT|INTERRES
   235  119  120 1    
   236  119  240 1    
   237  120  121 1    
   238  120  124 1    
   239  120  241 1    
   240  121  122 am   BACKBONE|DICT|INTERRES
   241  121  123 2    
   242  122  242 1    
   243  122  243 1    
   244  124  125 1    
   245  124  244 1    
   246  124  245 1    
   247  125  126 1    
   248  126  246 1    
   249  126  247 1    
@<TRIPOS>SUBSTRUCTURE
     1 UNK         1 GROUP             0       ****    0 ROOT    
