@<TRIPOS>MOLECULE
3R540
247   249    1
SMALL
USER_CHARGES


@<TRIPOS>ATOM
      1 CA          1.9182  -12.3979  -47.0322 C.3       0 UNK        -0.1800 
      2 C           0.7223  -12.5985  -46.1147 C.2       0 UNK         0.5000 
      3 O           0.8832  -12.6208  -44.8947 O.2       0 UNK        -0.5000 
      4 N          -0.4787  -12.7399  -46.6904 N.am      1 UNK        -0.5000 
      5 CA         -1.7381  -12.9537  -45.9628 C.3       1 UNK         0.1400 
      6 C6         -2.8872  -13.4028  -46.8992 C.3       23 UNK        -0.0398 
      7 S7         -2.6496  -15.0995  -47.5283 S.3       23 UNK        -0.2404 
      8 C8         -1.9446  -14.7952  -49.1770 C.3       23 UNK        -0.0205 
      9 C9         -1.6378  -16.0996  -49.8972 C.ar      23 UNK        -0.0193 
     10 C10        -2.4128  -16.5090  -50.9866 C.ar      23 UNK        -0.1150 
     11 C11        -2.1083  -17.6909  -51.6683 C.ar      23 UNK        -0.0193 
     12 C12        -1.0313  -18.4726  -51.2439 C.ar      23 UNK        -0.1150 
     13 C13        -0.2585  -18.0846  -50.1458 C.ar      23 UNK        -0.0193 
     14 C14        -0.5611  -16.8904  -49.4844 C.ar      23 UNK        -0.1150 
     15 C15         0.9194  -18.9337  -49.6839 C.3       23 UNK        -0.0205 
     16 S16         0.5163  -20.7039  -49.4958 S.3       23 UNK        -0.2404 
     17 C17        -0.8868  -20.6645  -48.3300 C.3       23 UNK        -0.0398 
     18 CA         -0.9017  -21.9133  -47.4181 C.3       11 UNK         0.1400 
     19 N           0.1743  -21.9025  -46.4187 N.am      11 UNK        -0.5000 
     20 C           0.5091  -22.9552  -45.6595 C.2       10 UNK         0.5000 
     21 O          -0.0239  -24.0587  -45.7613 O.2       10 UNK        -0.5000 
     22 CA          1.5710  -22.7347  -44.5660 C.3       10 UNK         0.1400 
     23 CB          2.9918  -22.7918  -45.1464 C.3       10 UNK        -0.1800 
     24 N           1.3727  -21.4812  -43.8374 N.am      10 UNK        -0.5000 
     25 C           0.3132  -21.2240  -43.0564 C.2       9 UNK         0.5000 
     26 O          -0.5727  -22.0453  -42.8211 O.2       9 UNK        -0.5000 
     27 CA          0.1895  -19.7964  -42.4888 C.3       9 UNK         0.1400 
     28 CB          1.0395  -19.6282  -41.2212 C.3       9 UNK        -0.1800 
     29 N           0.5521  -18.7711  -43.4677 N.am      9 UNK        -0.5000 
     30 C          -0.0953  -18.5664  -44.6229 C.2       8 UNK         0.5000 
     31 O          -1.1141  -19.1698  -44.9525 O.2       8 UNK        -0.5000 
     32 CA          0.5339  -17.5701  -45.6076 C.3       8 UNK         0.1400 
     33 CB          0.1097  -16.1324  -45.2921 C.3       8 UNK        -0.1800 
     34 N           1.9926  -17.6658  -45.6445 N.am      8 UNK        -0.5000 
     35 C           2.6624  -18.7323  -46.1025 C.2       7 UNK         0.5000 
     36 O           2.1149  -19.7302  -46.5669 O.2       7 UNK        -0.5000 
     37 CA          4.1949  -18.6939  -45.9758 C.3       7 UNK         0.1400 
     38 CB          4.8091  -17.8350  -47.0914 C.3       7 UNK        -0.1800 
     39 N           4.6256  -18.1862  -44.6732 N.am      7 UNK        -0.5000 
     40 C           4.4042  -18.8106  -43.5072 C.2       6 UNK         0.5000 
     41 O           3.8798  -19.9202  -43.4164 O.2       6 UNK        -0.5000 
     42 CA          4.7840  -18.0407  -42.2267 C.3       6 UNK         0.1400 
     43 CB          6.2414  -18.3278  -41.8368 C.3       6 UNK        -0.1800 
     44 N           4.5870  -16.5913  -42.3418 N.am      6 UNK        -0.5000 
     45 C           3.4052  -16.0007  -42.5651 C.2       5 UNK         0.5000 
     46 O           2.3498  -16.6243  -42.6975 O.2       5 UNK        -0.5000 
     47 CA          3.4334  -14.4712  -42.7464 C.3       5 UNK         0.1400 
     48 CB          3.9158  -14.1190  -44.1630 C.3       5 UNK        -0.1800 
     49 N           2.1295  -13.8427  -42.5415 N.am      5 UNK        -0.5000 
     50 C           1.4546  -13.7968  -41.3847 C.2       4 UNK         0.5000 
     51 O           1.8660  -14.2799  -40.3276 O.2       4 UNK        -0.5000 
     52 CA          0.1121  -13.0360  -41.4326 C.3       4 UNK         0.1400 
     53 CB         -0.5478  -12.8548  -40.0498 C.3       4 UNK        -0.1800 
     54 N           0.2494  -11.7538  -42.1311 N.am      4 UNK        -0.5000 
     55 C           1.0280  -10.7149  -41.7901 C.2       3 UNK         0.5000 
     56 O           1.6441  -10.6315  -40.7270 O.2       3 UNK        -0.5000 
     57 CA          1.1758   -9.5857  -42.8283 C.3       3 UNK         0.1400 
     58 CB          2.5457   -9.6814  -43.5202 C.3       3 UNK        -0.1800 
     59 N           0.1347   -9.6202  -43.8562 N.am      3 UNK        -0.5000 
     60 C          -1.0718   -9.0482  -43.7452 C.2       2 UNK         0.5000 
     61 O          -1.4325   -8.3935  -42.7667 O.2       2 UNK        -0.5000 
     62 CA         -2.0411   -9.2477  -44.9274 C.3       2 UNK         0.1400 
     63 CB         -1.9120   -8.0906  -45.9297 C.3       2 UNK        -0.1800 
     64 N          -1.8246  -10.5155  -45.6297 N.am      2 UNK        -0.5000 
     65 C          -2.1496  -11.7187  -45.1348 C.2       1 UNK         0.5000 
     66 O          -2.7123  -11.8790  -44.0517 O.2       1 UNK        -0.5000 
     67 C          -2.2919  -22.1247  -46.7791 C.2       11 UNK         0.5000 
     68 O          -3.1007  -22.8705  -47.3314 O.2       11 UNK        -0.5000 
     69 N          -2.5386  -21.5153  -45.6114 N.am      12 UNK        -0.5000 
     70 CA         -3.7547  -21.7102  -44.8196 C.3       12 UNK         0.1400 
     71 CB         -3.8036  -20.6840  -43.6779 C.3       12 UNK        -0.1800 
     72 C          -3.8875  -23.1454  -44.2761 C.2       12 UNK         0.5000 
     73 O          -4.9931  -23.6862  -44.2711 O.2       12 UNK        -0.5000 
     74 N          -2.7625  -23.7457  -43.8614 N.am      13 UNK        -0.5000 
     75 CA         -2.6766  -25.1447  -43.4390 C.3       13 UNK         0.1400 
     76 CB         -1.3381  -25.3878  -42.7253 C.3       13 UNK        -0.1800 
     77 C          -2.8656  -26.1296  -44.6094 C.2       13 UNK         0.5000 
     78 O          -3.5132  -27.1618  -44.4302 O.2       13 UNK        -0.5000 
     79 N          -2.3195  -25.7868  -45.7861 N.am      14 UNK        -0.5000 
     80 CA         -2.4944  -26.5203  -47.0431 C.3       14 UNK         0.1400 
     81 CB         -1.5404  -25.9499  -48.1049 C.3       14 UNK        -0.1800 
     82 C          -3.9520  -26.4967  -47.5433 C.2       14 UNK         0.5000 
     83 O          -4.4220  -27.4977  -48.0867 O.2       14 UNK        -0.5000 
     84 N          -4.6420  -25.3690  -47.3159 N.am      15 UNK        -0.5000 
     85 CA         -6.0700  -25.1325  -47.5319 C.3       15 UNK         0.1400 
     86 CB         -6.9005  -25.9160  -46.4907 C.3       15 UNK        -0.1800 
     87 C          -6.4826  -25.4042  -48.9907 C.2       15 UNK         0.5000 
     88 O          -6.1347  -24.6166  -49.8688 O.2       15 UNK        -0.5000 
     89 N          -7.1800  -26.5217  -49.2338 N.am      16 UNK        -0.5000 
     90 CA         -7.6287  -26.9753  -50.5520 C.3       16 UNK         0.1400 
     91 CB         -8.5502  -28.1910  -50.3676 C.3       16 UNK        -0.1800 
     92 C          -6.4866  -27.3073  -51.5355 C.2       16 UNK         0.5000 
     93 O          -6.7277  -27.3284  -52.7431 O.2       16 UNK        -0.5000 
     94 N          -5.2739  -27.5593  -51.0201 N.am      17 UNK        -0.5000 
     95 CA         -4.0723  -27.7727  -51.8281 C.3       17 UNK         0.1400 
     96 CB         -3.0586  -28.6020  -51.0259 C.3       17 UNK        -0.1800 
     97 C          -3.4445  -26.4596  -52.3429 C.2       17 UNK         0.5000 
     98 O          -2.6500  -26.5135  -53.2829 O.2       17 UNK        -0.5000 
     99 N          -3.8063  -25.3108  -51.7512 N.am      18 UNK        -0.5000 
    100 CA        -3.4722  -23.9830  -52.2700 C.3       18 UNK         0.1400 
    101 CB        -3.3901  -22.9834  -51.1035 C.3       18 UNK        -0.1800 
    102 C         -4.5279  -23.5499  -53.3060 C.2       18 UNK         0.5000 
    103 O         -5.6656  -24.0259  -53.2649 O.2       18 UNK        -0.5000 
    104 N         -4.1427  -22.6546  -54.2200 N.am      19 UNK        -0.5000 
    105 CA        -4.9824  -22.1734  -55.3144 C.3       19 UNK         0.1400 
    106 CB        -4.9091  -23.1657  -56.4911 C.3       19 UNK        -0.1800 
    107 C         -4.5253  -20.7747  -55.7474 C.2       19 UNK         0.5000 
    108 O         -3.4310  -20.3428  -55.3776 O.2       19 UNK        -0.5000 
    109 N         -5.3542  -20.1169  -56.5711 N.am      20 UNK        -0.5000 
    110 CA        -5.1593  -18.7681  -57.1234 C.3       20 UNK         0.1400 
    111 CB        -6.4266  -18.3652  -57.8936 C.3       20 UNK        -0.1800 
    112 C         -3.9075  -18.5892  -58.0110 C.2       20 UNK         0.5000 
    113 O         -3.5437  -17.4541  -58.3249 O.2       20 UNK        -0.5000 
    114 N         -3.2369  -19.6986  -58.3543 N.am      21 UNK        -0.5000 
    115 CA        -1.9199  -19.7625  -58.9950 C.3       21 UNK         0.1400 
    116 CB        -1.5633  -21.2384  -59.2315 C.3       21 UNK        -0.1800 
    117 C         -0.7951  -19.0525  -58.2066 C.2       21 UNK         0.5000 
    118 O          0.2535  -18.7651  -58.7855 O.2       21 UNK        -0.5000 
    119 N         -1.0391  -18.7523  -56.9225 N.am      22 UNK        -0.5000 
    120 CA        -0.2439  -17.8343  -56.0942 C.3       22 UNK         0.1400 
    121 C         -0.1389  -16.3727  -56.6329 C.2       22 UNK         0.5000 
    122 N         -1.0436  -15.9103  -57.4903 N.am      22 UNK        -0.7600 
    123 O          0.7869  -15.6514  -56.2710 O.2       22 UNK        -0.5000 
    124 C124       -0.7229  -17.8538  -54.6192 C.3       23 UNK        -0.0398 
    125 S125       -2.4351  -17.2454  -54.3815 S.3       23 UNK        -0.2404 
    126 C126       -2.9361  -18.1230  -52.8681 C.3       23 UNK        -0.0205 
    127 H127        2.4828  -11.5179  -46.7245 H         1 UNK         0.0600 
    128 H128        2.5782  -13.2633  -46.9803 H         1 UNK         0.0600 
    129 H129        1.6140  -12.2622  -48.0701 H         1 UNK         0.0600 
    130 H130       -0.5499  -12.7087  -47.6963 H         1 UNK         0.3000 
    131 H131       -1.5663  -13.7515  -45.2379 H         1 UNK         0.0600 
    132 H132       -3.0129  -12.7065  -47.7300 H         1 UNK         0.0800 
    133 H133       -3.8379  -13.4038  -46.3625 H         1 UNK         0.0800 
    134 H134       -2.6388  -14.1884  -49.7606 H         1 UNK         0.0800 
    135 H135       -1.0253  -14.2167  -49.0846 H         1 UNK         0.0800 
    136 H136       -3.2440  -15.9017  -51.3167 H         1 UNK         0.1150 
    137 H137       -0.7929  -19.3869  -51.7687 H         1 UNK         0.1150 
    138 H138        0.0399  -16.5692  -48.6457 H         1 UNK         0.1150 
    139 H139        1.7267  -18.8350  -50.4103 H         1 UNK         0.0800 
    140 H140        1.3115  -18.5577  -48.7404 H         1 UNK         0.0800 
    141 H141       -0.8528  -19.7530  -47.7320 H         1 UNK         0.0800 
    142 H142       -1.7972  -20.6057  -48.9300 H         1 UNK         0.0800 
    143 H143       -0.7310  -22.7835  -48.0552 H         1 UNK         0.0600 
    144 H144        0.7100  -21.0434  -46.3301 H         1 UNK         0.3000 
    145 H145        1.4751  -23.5509  -43.8469 H         1 UNK         0.0600 
    146 H146        3.7418  -22.6882  -44.3621 H         1 UNK         0.0600 
    147 H147        3.1695  -23.7463  -45.6433 H         1 UNK         0.0600 
    148 H148        3.1657  -22.0056  -45.8798 H         1 UNK         0.0600 
    149 H149        2.0891  -20.7710  -43.9440 H         1 UNK         0.3000 
    150 H150       -0.8557  -19.6362  -42.2170 H         1 UNK         0.0600 
    151 H151        0.7283  -20.3328  -40.4492 H         1 UNK         0.0600 
    152 H152        0.9384  -18.6244  -40.8078 H         1 UNK         0.0600 
    153 H153        2.0966  -19.8045  -41.4167 H         1 UNK         0.0600 
    154 H154        1.3479  -18.1788  -43.2469 H         1 UNK         0.3000 
    155 H155        0.1542  -17.8174  -46.6001 H         1 UNK         0.0600 
    156 H156        0.4153  -15.4613  -46.0928 H         1 UNK         0.0600 
    157 H157        0.5376  -15.7661  -44.3597 H         1 UNK         0.0600 
    158 H158       -0.9743  -16.0626  -45.2024 H         1 UNK         0.0600 
    159 H159        2.5074  -16.9141  -45.2127 H         1 UNK         0.3000 
    160 H160        4.5659  -19.7154  -46.0846 H         1 UNK         0.0600 
    161 H161        4.4985  -16.7920  -47.0183 H         1 UNK         0.0600 
    162 H162        4.5069  -18.1996  -48.0742 H         1 UNK         0.0600 
    163 H163        5.8983  -17.8642  -47.0561 H         1 UNK         0.0600 
    164 H164        5.0720  -17.2816  -44.6575 H         1 UNK         0.3000 
    165 H165        4.1390  -18.4005  -41.4228 H         1 UNK         0.0600 
    166 H166        6.9404  -17.9627  -42.5902 H         1 UNK         0.0600 
    167 H167        6.4954  -17.8583  -40.8863 H         1 UNK         0.0600 
    168 H168        6.4109  -19.3995  -41.7235 H         1 UNK         0.0600 
    169 H169        5.4137  -16.0178  -42.2540 H         1 UNK         0.3000 
    170 H170        4.1283  -14.0487  -42.0180 H         1 UNK         0.0600 
    171 H171        4.9180  -14.5061  -44.3501 H         1 UNK         0.0600 
    172 H172        3.2544  -14.5338  -44.9245 H         1 UNK         0.0600 
    173 H173        3.9548  -13.0391  -44.3093 H         1 UNK         0.0600 
    174 H174        1.7034  -13.4171  -43.3605 H         1 UNK         0.3000 
    175 H175       -0.5605  -13.6432  -42.0404 H         1 UNK         0.0600 
    176 H176       -1.4935  -12.3192  -40.1330 H         1 UNK         0.0600 
    177 H177       -0.7612  -13.8216  -39.5926 H         1 UNK         0.0600 
    178 H178        0.0911  -12.3032  -39.3600 H         1 UNK         0.0600 
    179 H179       -0.1617  -11.7267  -43.0542 H         1 UNK         0.3000 
    180 H180        1.1285   -8.6341  -42.2946 H         1 UNK         0.0600 
    181 H181        2.6861   -8.8684  -44.2327 H         1 UNK         0.0600 
    182 H182        3.3562   -9.6186  -42.7930 H         1 UNK         0.0600 
    183 H183        2.6614  -10.6235  -44.0576 H         1 UNK         0.0600 
    184 H184        0.3402  -10.1587  -44.6848 H         1 UNK         0.3000 
    185 H185       -3.0577   -9.2414  -44.5283 H         1 UNK         0.0600 
    186 H186       -2.6387   -8.1851  -46.7369 H         1 UNK         0.0600 
    187 H187       -2.0918   -7.1310  -45.4431 H         1 UNK         0.0600 
    188 H188       -0.9172   -8.0514  -46.3752 H         1 UNK         0.0600 
    189 H189       -1.3610  -10.4685  -46.5254 H         1 UNK         0.3000 
    190 H190       -1.8605  -20.8490  -45.2492 H         1 UNK         0.3000 
    191 H191       -4.6093  -21.5253  -45.4739 H         1 UNK         0.0600 
    192 H192       -4.7215  -20.7891  -43.0984 H         1 UNK         0.0600 
    193 H193       -3.7766  -19.6645  -44.0629 H         1 UNK         0.0600 
    194 H194       -2.9666  -20.8042  -42.9907 H         1 UNK         0.0600 
    195 H195       -1.9041  -23.2053  -43.8303 H         1 UNK         0.3000 
    196 H196       -3.4778  -25.3281  -42.7200 H         1 UNK         0.0600 
    197 H197       -1.2689  -26.4153  -42.3663 H         1 UNK         0.0600 
    198 H198       -1.2282  -24.7325  -41.8610 H         1 UNK         0.0600 
    199 H199       -0.4890  -25.2136  -43.3858 H         1 UNK         0.0600 
    200 H200       -1.7218  -24.9660  -45.8195 H         1 UNK         0.3000 
    201 H201       -2.2205  -27.5615  -46.8623 H         1 UNK         0.0600 
    202 H202       -0.5079  -25.9609  -47.7555 H         1 UNK         0.0600 
    203 H203       -1.7944  -24.9241  -48.3675 H         1 UNK         0.0600 
    204 H204       -1.5738  -26.5336  -49.0231 H         1 UNK         0.0600 
    205 H205       -4.1205  -24.5674  -46.9755 H         1 UNK         0.3000 
    206 H206       -6.2367  -24.0688  -47.3562 H         1 UNK         0.0600 
    207 H207       -6.6427  -25.6036  -45.4787 H         1 UNK         0.0600 
    208 H208       -7.9681  -25.7334  -46.6195 H         1 UNK         0.0600 
    209 H209       -6.7339  -26.9920  -46.5497 H         1 UNK         0.0600 
    210 H210       -7.3848  -27.1316  -48.4557 H         1 UNK         0.3000 
    211 H211       -8.2122  -26.1676  -50.9986 H         1 UNK         0.0600 
    212 H212       -8.0249  -29.0254  -49.9011 H         1 UNK         0.0600 
    213 H213       -8.9348  -28.5402  -51.3268 H         1 UNK         0.0600 
    214 H214       -9.4108  -27.9442  -49.7454 H         1 UNK         0.0600 
    215 H215       -5.1502  -27.5398  -50.0125 H         1 UNK         0.3000 
    216 H216       -4.3441  -28.3589  -52.7086 H         1 UNK         0.0600 
    217 H217       -2.1532  -28.7845  -51.6060 H         1 UNK         0.0600 
    218 H218       -3.4728  -29.5736  -50.7565 H         1 UNK         0.0600 
    219 H219       -2.7641  -28.1014  -50.1065 H         1 UNK         0.0600 
    220 H220       -4.5405  -25.3307  -51.0525 H         1 UNK         0.3000 
    221 H221       -2.4956  -24.0157  -52.7577 H         1 UNK         0.0600 
    222 H222       -4.3562  -22.8423  -50.6191 H         1 UNK         0.0600 
    223 H223       -2.6826  -23.3174  -50.3439 H         1 UNK         0.0600 
    224 H224       -3.0550  -22.0053  -51.4507 H         1 UNK         0.0600 
    225 H225       -3.2251  -22.2291  -54.1772 H         1 UNK         0.3000 
    226 H226       -6.0159  -22.0891  -54.9714 H         1 UNK         0.0600 
    227 H227       -5.5353  -22.8444  -57.3240 H         1 UNK         0.0600 
    228 H228       -3.8896  -23.2681  -56.8654 H         1 UNK         0.0600 
    229 H229       -5.2556  -24.1561  -56.1952 H         1 UNK         0.0600 
    230 H230       -6.2179  -20.5693  -56.8347 H         1 UNK         0.3000 
    231 H231       -5.0420  -18.0859  -56.2789 H         1 UNK         0.0600 
    232 H232       -6.3424  -17.3509  -58.2864 H         1 UNK         0.0600 
    233 H233       -7.3053  -18.3878  -57.2487 H         1 UNK         0.0600 
    234 H234       -6.6108  -19.0300  -58.7384 H         1 UNK         0.0600 
    235 H235       -3.6156  -20.5783  -58.0377 H         1 UNK         0.3000 
    236 H236       -1.9994  -19.2650  -59.9634 H         1 UNK         0.0600 
    237 H237       -1.4966  -21.7898  -58.2927 H         1 UNK         0.0600 
    238 H238       -2.3078  -21.7296  -59.8584 H         1 UNK         0.0600 
    239 H239       -0.6016  -21.3332  -59.7375 H         1 UNK         0.0600 
    240 H240       -1.9132  -19.0603  -56.5146 H         1 UNK         0.3000 
    241 H241        0.7752  -18.2251  -56.1038 H         1 UNK         0.0600 
    242 H242       -0.9638  -14.9668  -57.8343 H         1 UNK         0.3800 
    243 H243       -1.8330  -16.4818  -57.7718 H         1 UNK         0.3800 
    244 H244       -0.0549  -17.2602  -53.9925 H         1 UNK         0.0800 
    245 H245       -0.6575  -18.8739  -54.2390 H         1 UNK         0.0800 
    246 H246       -3.9912  -17.9235  -52.6766 H         1 UNK         0.0800 
    247 H247       -2.8542  -19.1996  -53.0240 H         1 UNK         0.0800 
@<TRIPOS>BOND
     1    1    2 1    
     2    1  127 1    
     3    1  128 1    
     4    1  129 1    
     5    2    3 2    
     6    2    4 am   BACKBONE|DICT|INTERRES
     7    4    5 1    
     8    4  130 1    
     9    5    6 1    
    10    5   65 1    
    11    5  131 1    
    12    6    7 1    
    13    6  132 1    
    14    6  133 1    
    15    7    8 1    
    16    8    9 1    
    17    8  134 1    
    18    8  135 1    
    19    9   10 ar   
    20    9   14 ar   
    21   10   11 ar   
    22   10  136 1    
    23   11   12 ar   
    24   11  126 1    
    25   12   13 ar   
    26   12  137 1    
    27   13   14 ar   
    28   13   15 1    
    29   14  138 1    
    30   15   16 1    
    31   15  139 1    
    32   15  140 1    
    33   16   17 1    
    34   17   18 1    
    35   17  141 1    
    36   17  142 1    
    37   18   19 1    
    38   18   67 1    
    39   18  143 1    
    40   19   20 am   BACKBONE|DICT|INTERRES
    41   19  144 1    
    42   20   21 2    
    43   20   22 1    
    44   22   23 1    
    45   22   24 1    
    46   22  145 1    
    47   23  146 1    
    48   23  147 1    
    49   23  148 1    
    50   24   25 am   BACKBONE|DICT|INTERRES
    51   24  149 1    
    52   25   26 2    
    53   25   27 1    
    54   27   28 1    
    55   27   29 1    
    56   27  150 1    
    57   28  151 1    
    58   28  152 1    
    59   28  153 1    
    60   29   30 am   BACKBONE|DICT|INTERRES
    61   29  154 1    
    62   30   31 2    
    63   30   32 1    
    64   32   33 1    
    65   32   34 1    
    66   32  155 1    
    67   33  156 1    
    68   33  157 1    
    69   33  158 1    
    70   34   35 am   BACKBONE|DICT|INTERRES
    71   34  159 1    
    72   35   36 2    
    73   35   37 1    
    74   37   38 1    
    75   37   39 1    
    76   37  160 1    
    77   38  161 1    
    78   38  162 1    
    79   38  163 1    
    80   39   40 am   BACKBONE|DICT|INTERRES
    81   39  164 1    
    82   40   41 2    
    83   40   42 1    
    84   42   43 1    
    85   42   44 1    
    86   42  165 1    
    87   43  166 1    
    88   43  167 1    
    89   43  168 1    
    90   44   45 am   BACKBONE|DICT|INTERRES
    91   44  169 1    
    92   45   46 2    
    93   45   47 1    
    94   47   48 1    
    95   47   49 1    
    96   47  170 1    
    97   48  171 1    
    98   48  172 1    
    99   48  173 1    
   100   49   50 am   BACKBONE|DICT|INTERRES
   101   49  174 1    
   102   50   51 2    
   103   50   52 1    
   104   52   53 1    
   105   52   54 1    
   106   52  175 1    
   107   53  176 1    
   108   53  177 1    
   109   53  178 1    
   110   54   55 am   BACKBONE|DICT|INTERRES
   111   54  179 1    
   112   55   56 2    
   113   55   57 1    
   114   57   58 1    
   115   57   59 1    
   116   57  180 1    
   117   58  181 1    
   118   58  182 1    
   119   58  183 1    
   120   59   60 am   BACKBONE|DICT|INTERRES
   121   59  184 1    
   122   60   61 2    
   123   60   62 1    
   124   62   63 1    
   125   62   64 1    
   126   62  185 1    
   127   63  186 1    
   128   63  187 1    
   129   63  188 1    
   130   64   65 am   BACKBONE|DICT|INTERRES
   131   64  189 1    
   132   65   66 2    
   133   67   68 2    
   134   67   69 am   BACKBONE|DICT|INTERRES
   135   69   70 1    
   136   69  190 1    
   137   70   71 1    
   138   70   72 1    
   139   70  191 1    
   140   71  192 1    
   141   71  193 1    
   142   71  194 1    
   143   72   73 2    
   144   72   74 am   BACKBONE|DICT|INTERRES
   145   74   75 1    
   146   74  195 1    
   147   75   76 1    
   148   75   77 1    
   149   75  196 1    
   150   76  197 1    
   151   76  198 1    
   152   76  199 1    
   153   77   78 2    
   154   77   79 am   BACKBONE|DICT|INTERRES
   155   79   80 1    
   156   79  200 1    
   157   80   81 1    
   158   80   82 1    
   159   80  201 1    
   160   81  202 1    
   161   81  203 1    
   162   81  204 1    
   163   82   83 2    
   164   82   84 am   BACKBONE|DICT|INTERRES
   165   84   85 1    
   166   84  205 1    
   167   85   86 1    
   168   85   87 1    
   169   85  206 1    
   170   86  207 1    
   171   86  208 1    
   172   86  209 1    
   173   87   88 2    
   174   87   89 am   BACKBONE|DICT|INTERRES
   175   89   90 1    
   176   89  210 1    
   177   90   91 1    
   178   90   92 1    
   179   90  211 1    
   180   91  212 1    
   181   91  213 1    
   182   91  214 1    
   183   92   93 2    
   184   92   94 am   BACKBONE|DICT|INTERRES
   185   94   95 1    
   186   94  215 1    
   187   95   96 1    
   188   95   97 1    
   189   95  216 1    
   190   96  217 1    
   191   96  218 1    
   192   96  219 1    
   193   97   98 2    
   194   97   99 am   BACKBONE|DICT|INTERRES
   195   99  100 1    
   196   99  220 1    
   197  100  101 1    
   198  100  102 1    
   199  100  221 1    
   200  101  222 1    
   201  101  223 1    
   202  101  224 1    
   203  102  103 2    
   204  102  104 am   BACKBONE|DICT|INTERRES
   205  104  105 1    
   206  104  225 1    
   207  105  106 1    
   208  105  107 1    
   209  105  226 1    
   210  106  227 1    
   211  106  228 1    
   212  106  229 1    
   213  107  108 2    
   214  107  109 am   BACKBONE|DICT|INTERRES
   215  109  110 1    
   216  109  230 1    
   217  110  111 1    
   218  110  112 1    
   219  110  231 1    
   220  111  232 1    
   221  111  233 1    
   222  111  234 1    
   223  112  113 2    
   224  112  114 am   BACKBONE|DICT|INTERRES
   225  114  115 1    
   226  114  235 1    
   227  115  116 1    
   228  115  117 1    
   229  115  236 1    
   230  116  237 1    
   231  116  238 1    
   232  116  239 1    
   233  117  118 2    
   234  117  119 am   BACKBONE|DICT|INTERRES
   235  119  120 1    
   236  119  240 1    
   237  120  121 1    
   238  120  124 1    
   239  120  241 1    
   240  121  122 am   BACKBONE|DICT|INTERRES
   241  121  123 2    
   242  122  242 1    
   243  122  243 1    
   244  124  125 1    
   245  124  244 1    
   246  124  245 1    
   247  125  126 1    
   248  126  246 1    
   249  126  247 1    
@<TRIPOS>SUBSTRUCTURE
     1 UNK         1 GROUP             0       ****    0 ROOT    
