@<TRIPOS>MOLECULE
3R540
247   249    1
SMALL
USER_CHARGES


@<TRIPOS>ATOM
      1 CA          3.0553  -12.4453  -45.3006 C.3       0 UNK        -0.1800 
      2 C           2.1178  -13.1147  -46.2937 C.2       0 UNK         0.5000 
      3 O           0.9023  -13.0960  -46.0957 O.2       0 UNK        -0.5000 
      4 N           2.6704  -13.6883  -47.3719 N.am      1 UNK        -0.5000 
      5 CA          1.9300  -14.4243  -48.4070 C.3       1 UNK         0.1400 
      6 C6          2.8558  -15.1641  -49.3992 C.3       23 UNK        -0.0398 
      7 S7          3.9120  -16.4083  -48.5850 S.3       23 UNK        -0.2404 
      8 C8          4.4618  -17.3924  -50.0169 C.3       23 UNK        -0.0205 
      9 C9          3.5768  -18.6084  -50.2567 C.ar      23 UNK        -0.0193 
     10 C10         2.4027  -18.5000  -51.0093 C.ar      23 UNK        -0.1150 
     11 C11         1.5950  -19.6190  -51.2379 C.ar      23 UNK        -0.0193 
     12 C12         1.9867  -20.8589  -50.7236 C.ar      23 UNK        -0.1150 
     13 C13         3.1702  -20.9891  -49.9899 C.ar      23 UNK        -0.0193 
     14 C14         3.9562  -19.8572  -49.7543 C.ar      23 UNK        -0.1150 
     15 C15         3.6204  -22.3649  -49.5141 C.3       23 UNK        -0.0205 
     16 S16         3.9077  -22.4506  -47.7154 S.3       23 UNK        -0.2404 
     17 C17         3.7403  -24.2553  -47.4471 C.3       23 UNK        -0.0398 
     18 CA          2.4336  -24.6850  -46.7301 C.3       11 UNK         0.1400 
     19 N           2.3746  -24.1979  -45.3493 N.am      11 UNK        -0.5000 
     20 C           1.4461  -24.5432  -44.4453 C.2       10 UNK         0.5000 
     21 O           0.5045  -25.2960  -44.6922 O.2       10 UNK        -0.5000 
     22 CA          1.5812  -23.9512  -43.0289 C.3       10 UNK         0.1400 
     23 CB          2.1590  -24.9990  -42.0658 C.3       10 UNK        -0.1800 
     24 N           2.4102  -22.7442  -42.9750 N.am      10 UNK        -0.5000 
     25 C           2.0396  -21.5570  -43.4691 C.2       9 UNK         0.5000 
     26 O           0.9616  -21.3658  -44.0331 O.2       9 UNK        -0.5000 
     27 CA          3.0714  -20.4269  -43.3535 C.3       9 UNK         0.1400 
     28 CB          3.9725  -20.3835  -44.5992 C.3       9 UNK        -0.1800 
     29 N           2.4017  -19.1409  -43.1965 N.am      9 UNK        -0.5000 
     30 C           2.8924  -18.1037  -42.5069 C.2       8 UNK         0.5000 
     31 O           3.9692  -18.1310  -41.9085 O.2       8 UNK        -0.5000 
     32 CA          2.0499  -16.8144  -42.4687 C.3       8 UNK         0.1400 
     33 CB          2.3245  -15.9507  -43.7097 C.3       8 UNK        -0.1800 
     34 N           0.6125  -17.0580  -42.3588 N.am      8 UNK        -0.5000 
     35 C          -0.0019  -17.5790  -41.2868 C.2       7 UNK         0.5000 
     36 O           0.5829  -17.9180  -40.2574 O.2       7 UNK        -0.5000 
     37 CA         -1.5277  -17.7525  -41.3826 C.3       7 UNK         0.1400 
     38 CB         -2.2510  -16.4433  -41.0288 C.3       7 UNK        -0.1800 
     39 N          -1.9158  -18.1791  -42.7257 N.am      7 UNK        -0.5000 
     40 C          -1.9801  -19.4601  -43.1151 C.2       6 UNK         0.5000 
     41 O          -1.8712  -20.4119  -42.3416 O.2       6 UNK        -0.5000 
     42 CA         -2.2008  -19.7336  -44.6166 C.3       6 UNK         0.1400 
     43 CB         -3.6581  -20.1307  -44.8984 C.3       6 UNK        -0.1800 
     44 N          -1.8388  -18.6075  -45.4820 N.am      6 UNK        -0.5000 
     45 C          -0.5834  -18.1957  -45.7067 C.2       5 UNK         0.5000 
     46 O           0.4086  -18.7033  -45.1936 O.2       5 UNK        -0.5000 
     47 CA         -0.4014  -16.9794  -46.6264 C.3       5 UNK         0.1400 
     48 CB         -0.3706  -17.4285  -48.0914 C.3       5 UNK        -0.1800 
     49 N          -1.4069  -15.9269  -46.4536 N.am      5 UNK        -0.5000 
     50 C          -1.6794  -15.3223  -45.2901 C.2       4 UNK         0.5000 
     51 O          -1.1507  -15.6339  -44.2212 O.2       4 UNK        -0.5000 
     52 CA         -2.6876  -14.1698  -45.3412 C.3       4 UNK         0.1400 
     53 CB         -3.3301  -13.9052  -43.9620 C.3       4 UNK        -0.1800 
     54 N          -1.9945  -12.9806  -45.8272 N.am      4 UNK        -0.5000 
     55 C          -2.5917  -11.8507  -46.2251 C.2       3 UNK         0.5000 
     56 O          -3.8127  -11.7104  -46.3048 O.2       3 UNK        -0.5000 
     57 CA         -1.6726  -10.6784  -46.5970 C.3       3 UNK         0.1400 
     58 CB         -0.9154  -10.1544  -45.3647 C.3       3 UNK        -0.1800 
     59 N          -0.7137  -11.0682  -47.6272 N.am      3 UNK        -0.5000 
     60 C          -0.8759  -10.8475  -48.9394 C.2       2 UNK         0.5000 
     61 O          -1.8715  -10.3062  -49.4217 O.2       2 UNK        -0.5000 
     62 CA          0.2707  -11.2720  -49.8796 C.3       2 UNK         0.1400 
     63 CB          1.0908  -10.0458  -50.3104 C.3       2 UNK        -0.1800 
     64 N           1.1753  -12.2505  -49.2765 N.am      2 UNK        -0.5000 
     65 C           0.9091  -13.5582  -49.1721 C.2       1 UNK         0.5000 
     66 O          -0.1018  -14.0871  -49.6344 O.2       1 UNK        -0.5000 
     67 C           1.1688  -24.3288  -47.5410 C.2       11 UNK         0.5000 
     68 O           0.6211  -25.1910  -48.2263 O.2       11 UNK        -0.5000 
     69 N           0.7064  -23.0776  -47.4117 N.am      12 UNK        -0.5000 
     70 CA         -0.4857  -22.5645  -48.0816 C.3       12 UNK         0.1400 
     71 CB         -0.5039  -21.0359  -47.9854 C.3       12 UNK        -0.1800 
     72 C          -1.7762  -23.1580  -47.4990 C.2       12 UNK         0.5000 
     73 O          -2.7163  -23.4066  -48.2512 O.2       12 UNK        -0.5000 
     74 N          -1.7866  -23.4117  -46.1828 N.am      13 UNK        -0.5000 
     75 CA         -2.8841  -24.0817  -45.4872 C.3       13 UNK         0.1400 
     76 CB         -2.6858  -23.9640  -43.9680 C.3       13 UNK        -0.1800 
     77 C          -3.0187  -25.5527  -45.9224 C.2       13 UNK         0.5000 
     78 O          -4.1287  -26.0007  -46.2091 O.2       13 UNK        -0.5000 
     79 N          -1.8816  -26.2579  -46.0134 N.am      14 UNK        -0.5000 
     80 CA         -1.7854  -27.6392  -46.4892 C.3       14 UNK         0.1400 
     81 CB         -0.3675  -28.1691  -46.2266 C.3       14 UNK        -0.1800 
     82 C          -2.1579  -27.7914  -47.9764 C.2       14 UNK         0.5000 
     83 O          -2.8282  -28.7587  -48.3386 O.2       14 UNK        -0.5000 
     84 N          -1.7411  -26.8235  -48.8045 N.am      15 UNK        -0.5000 
     85 CA         -2.0570  -26.7496  -50.2334 C.3       15 UNK         0.1400 
     86 CB         -1.0837  -25.7680  -50.9063 C.3       15 UNK        -0.1800 
     87 C          -3.5121  -26.3335  -50.5312 C.2       15 UNK         0.5000 
     88 O          -3.9517  -26.4868  -51.6714 O.2       15 UNK        -0.5000 
     89 N          -4.2151  -25.7960  -49.5223 N.am      16 UNK        -0.5000 
     90 CA         -5.5451  -25.1809  -49.5914 C.3       16 UNK         0.1400 
     91 CB         -6.6258  -26.2207  -49.9546 C.3       16 UNK        -0.1800 
     92 C          -5.5604  -23.9311  -50.4989 C.2       16 UNK         0.5000 
     93 O          -6.5020  -23.7234  -51.2672 O.2       16 UNK        -0.5000 
     94 N          -4.4961  -23.1286  -50.3870 N.am      17 UNK        -0.5000 
     95 CA         -4.3129  -21.8424  -51.0483 C.3       17 UNK         0.1400 
     96 CB         -2.8375  -21.7233  -51.4782 C.3       17 UNK        -0.1800 
     97 C          -4.7753  -20.7039  -50.1136 C.2       17 UNK         0.5000 
     98 O          -5.6634  -20.9149  -49.2839 O.2       17 UNK        -0.5000 
     99 N          -4.1889  -19.5108  -50.2838 N.am      18 UNK        -0.5000 
    100 CA        -4.5516  -18.2431  -49.6412 C.3       18 UNK         0.1400 
    101 CB        -4.3662  -18.3137  -48.1106 C.3       18 UNK        -0.1800 
    102 C         -5.9563  -17.7696  -50.0734 C.2       18 UNK         0.5000 
    103 O         -6.7282  -17.2738  -49.2499 O.2       18 UNK        -0.5000 
    104 N         -6.2661  -17.9618  -51.3615 N.am      19 UNK        -0.5000 
    105 CA        -7.5593  -17.6851  -51.9768 C.3       19 UNK         0.1400 
    106 CB        -8.6090  -18.7262  -51.5289 C.3       19 UNK        -0.1800 
    107 C         -7.3822  -17.6288  -53.5009 C.2       19 UNK         0.5000 
    108 O         -7.1768  -16.5451  -54.0477 O.2       19 UNK        -0.5000 
    109 N         -7.4550  -18.7949  -54.1614 N.am      20 UNK        -0.5000 
    110 CA        -7.2883  -18.9507  -55.6125 C.3       20 UNK         0.1400 
    111 CB        -7.7210  -20.3676  -56.0194 C.3       20 UNK        -0.1800 
    112 C         -5.8493  -18.6663  -56.0857 C.2       20 UNK         0.5000 
    113 O         -5.6523  -18.1670  -57.1942 O.2       20 UNK        -0.5000 
    114 N         -4.8836  -18.9612  -55.2126 N.am      21 UNK        -0.5000 
    115 CA        -3.4969  -18.5256  -55.2772 C.3       21 UNK         0.1400 
    116 CB        -2.5947  -19.7340  -55.5731 C.3       21 UNK        -0.1800 
    117 C         -3.1672  -17.9247  -53.9052 C.2       21 UNK         0.5000 
    118 O         -3.7272  -18.3915  -52.9073 O.2       21 UNK        -0.5000 
    119 N         -2.2720  -16.9273  -53.8945 N.am      22 UNK        -0.5000 
    120 CA        -1.7968  -16.1462  -52.7335 C.3       22 UNK         0.1400 
    121 C         -2.9051  -15.5243  -51.8218 C.2       22 UNK         0.5000 
    122 N         -2.5661  -14.9576  -50.6713 N.am      22 UNK        -0.7600 
    123 O         -4.0814  -15.4793  -52.1715 O.2       22 UNK        -0.5000 
    124 C124       -0.6123  -16.8270  -51.9812 C.3       23 UNK        -0.0398 
    125 S125       -0.9490  -18.4782  -51.2706 S.3       23 UNK        -0.2404 
    126 C126        0.3222  -19.5093  -52.0709 C.3       23 UNK        -0.0205 
    127 H127        2.8378  -11.3789  -45.2424 H         1 UNK         0.0600 
    128 H128        4.1008  -12.5667  -45.5845 H         1 UNK         0.0600 
    129 H129        2.9198  -12.8754  -44.3085 H         1 UNK         0.0600 
    130 H130        3.6752  -13.6814  -47.4773 H         1 UNK         0.3000 
    131 H131        1.3476  -15.1764  -47.8839 H         1 UNK         0.0600 
    132 H132        2.2584  -15.6709  -50.1575 H         1 UNK         0.0800 
    133 H133        3.4949  -14.4573  -49.9314 H         1 UNK         0.0800 
    134 H134        4.4977  -16.7698  -50.9122 H         1 UNK         0.0800 
    135 H135        5.4888  -17.7143  -49.8381 H         1 UNK         0.0800 
    136 H136        2.1185  -17.5450  -51.4225 H         1 UNK         0.1150 
    137 H137        1.3765  -21.7309  -50.9125 H         1 UNK         0.1150 
    138 H138        4.8732  -19.9539  -49.1900 H         1 UNK         0.1150 
    139 H139        2.8760  -23.1116  -49.7944 H         1 UNK         0.0800 
    140 H140        4.5395  -22.6382  -50.0340 H         1 UNK         0.0800 
    141 H141        4.5986  -24.5829  -46.8591 H         1 UNK         0.0800 
    142 H142        3.8334  -24.7814  -48.3986 H         1 UNK         0.0800 
    143 H143        2.4549  -25.7751  -46.6640 H         1 UNK         0.0600 
    144 H144        3.1043  -23.5609  -45.0677 H         1 UNK         0.3000 
    145 H145        0.5764  -23.6924  -42.6877 H         1 UNK         0.0600 
    146 H146        2.1885  -24.6217  -41.0435 H         1 UNK         0.0600 
    147 H147        1.5476  -25.9026  -42.0590 H         1 UNK         0.0600 
    148 H148        3.1717  -25.2902  -42.3473 H         1 UNK         0.0600 
    149 H149        3.3135  -22.8371  -42.5328 H         1 UNK         0.3000 
    150 H150        3.6877  -20.6249  -42.4739 H         1 UNK         0.0600 
    151 H151        4.4868  -21.3335  -44.7479 H         1 UNK         0.0600 
    152 H152        4.7372  -19.6121  -44.5083 H         1 UNK         0.0600 
    153 H153        3.3948  -20.1754  -45.5013 H         1 UNK         0.0600 
    154 H154        1.5220  -19.0488  -43.7032 H         1 UNK         0.3000 
    155 H155        2.3543  -16.2442  -41.5886 H         1 UNK         0.0600 
    156 H156        2.1057  -16.4904  -44.6306 H         1 UNK         0.0600 
    157 H157        3.3718  -15.6492  -43.7507 H         1 UNK         0.0600 
    158 H158        1.7217  -15.0424  -43.7022 H         1 UNK         0.0600 
    159 H159        0.0434  -16.7506  -43.1406 H         1 UNK         0.3000 
    160 H160       -1.8296  -18.5068  -40.6528 H         1 UNK         0.0600 
    161 H161       -1.9610  -15.6254  -41.6883 H         1 UNK         0.0600 
    162 H162       -2.0186  -16.1363  -40.0084 H         1 UNK         0.0600 
    163 H163       -3.3328  -16.5599  -41.0952 H         1 UNK         0.0600 
    164 H164       -1.9769  -17.4517  -43.4264 H         1 UNK         0.3000 
    165 H165       -1.5666  -20.5833  -44.8758 H         1 UNK         0.0600 
    166 H166       -3.7805  -20.4694  -45.9276 H         1 UNK         0.0600 
    167 H167       -3.9752  -20.9499  -44.2521 H         1 UNK         0.0600 
    168 H168       -4.3424  -19.2981  -44.7315 H         1 UNK         0.0600 
    169 H169       -2.5964  -18.1098  -45.9237 H         1 UNK         0.3000 
    170 H170        0.5649  -16.5426  -46.3761 H         1 UNK         0.0600 
    171 H171        0.4639  -18.1070  -48.2747 H         1 UNK         0.0600 
    172 H172       -1.2851  -17.9503  -48.3698 H         1 UNK         0.0600 
    173 H173       -0.2557  -16.5886  -48.7723 H         1 UNK         0.0600 
    174 H174       -1.8608  -15.5953  -47.2922 H         1 UNK         0.3000 
    175 H175       -3.4750  -14.4409  -46.0475 H         1 UNK         0.0600 
    176 H176       -2.5966  -13.5439  -43.2401 H         1 UNK         0.0600 
    177 H177       -4.1275  -13.1652  -44.0250 H         1 UNK         0.0600 
    178 H178       -3.7713  -14.8160  -43.5552 H         1 UNK         0.0600 
    179 H179       -0.9771  -13.0334  -45.8262 H         1 UNK         0.3000 
    180 H180       -2.3022   -9.8638  -46.9618 H         1 UNK         0.0600 
    181 H181       -0.2445  -10.9040  -44.9443 H         1 UNK         0.0600 
    182 H182       -1.6104   -9.8590  -44.5777 H         1 UNK         0.0600 
    183 H183       -0.3183   -9.2778  -45.6160 H         1 UNK         0.0600 
    184 H184        0.0939  -11.5911  -47.3126 H         1 UNK         0.3000 
    185 H185       -0.1807  -11.7099  -50.7727 H         1 UNK         0.0600 
    186 H186        0.4572   -9.3023  -50.7961 H         1 UNK         0.0600 
    187 H187        1.5700   -9.5621  -49.4583 H         1 UNK         0.0600 
    188 H188        1.8688  -10.3217  -51.0223 H         1 UNK         0.0600 
    189 H189        2.0283  -11.8954  -48.8692 H         1 UNK         0.3000 
    190 H190        1.2146  -22.4329  -46.8225 H         1 UNK         0.3000 
    191 H191       -0.4351  -22.8391  -49.1370 H         1 UNK         0.0600 
    192 H192        0.3542  -20.5951  -48.4905 H         1 UNK         0.0600 
    193 H193       -1.4027  -20.6158  -48.4390 H         1 UNK         0.0600 
    194 H194       -0.4726  -20.7162  -46.9468 H         1 UNK         0.0600 
    195 H195       -0.9568  -23.2096  -45.6443 H         1 UNK         0.3000 
    196 H196       -3.8114  -23.5666  -45.7479 H         1 UNK         0.0600 
    197 H197       -3.5373  -24.3858  -43.4330 H         1 UNK         0.0600 
    198 H198       -2.5907  -22.9232  -43.6591 H         1 UNK         0.0600 
    199 H199       -1.7950  -24.4929  -43.6300 H         1 UNK         0.0600 
    200 H200       -1.0131  -25.8239  -45.7111 H         1 UNK         0.3000 
    201 H201       -2.4866  -28.2419  -45.9083 H         1 UNK         0.0600 
    202 H202       -0.1260  -28.1371  -45.1640 H         1 UNK         0.0600 
    203 H203        0.3852  -27.5849  -46.7569 H         1 UNK         0.0600 
    204 H204       -0.2703  -29.2055  -46.5521 H         1 UNK         0.0600 
    205 H205       -1.1223  -26.1042  -48.4424 H         1 UNK         0.3000 
    206 H206       -1.9027  -27.7377  -50.6718 H         1 UNK         0.0600 
    207 H207       -0.0486  -26.0803  -50.7681 H         1 UNK         0.0600 
    208 H208       -1.2630  -25.7097  -51.9806 H         1 UNK         0.0600 
    209 H209       -1.1888  -24.7608  -50.5018 H         1 UNK         0.0600 
    210 H210       -3.7448  -25.7010  -48.6320 H         1 UNK         0.3000 
    211 H211       -5.7617  -24.8236  -48.5835 H         1 UNK         0.0600 
    212 H212       -6.5199  -26.5795  -50.9786 H         1 UNK         0.0600 
    213 H213       -7.6241  -25.7917  -49.8622 H         1 UNK         0.0600 
    214 H214       -6.5808  -27.0833  -49.2897 H         1 UNK         0.0600 
    215 H215       -3.8151  -23.3437  -49.6603 H         1 UNK         0.3000 
    216 H216       -4.9314  -21.7983  -51.9467 H         1 UNK         0.0600 
    217 H217       -2.1735  -21.6091  -50.6211 H         1 UNK         0.0600 
    218 H218       -2.6851  -20.8684  -52.1369 H         1 UNK         0.0600 
    219 H219       -2.5162  -22.6068  -52.0304 H         1 UNK         0.0600 
    220 H220       -3.5172  -19.4112  -51.0375 H         1 UNK         0.3000 
    221 H221       -3.8434  -17.5071  -50.0178 H         1 UNK         0.0600 
    222 H222       -5.1465  -18.9064  -47.6326 H         1 UNK         0.0600 
    223 H223       -3.4078  -18.7616  -47.8545 H         1 UNK         0.0600 
    224 H224       -4.3972  -17.3169  -47.6699 H         1 UNK         0.0600 
    225 H225       -5.5218  -18.2629  -51.9839 H         1 UNK         0.3000 
    226 H226       -7.8950  -16.6964  -51.6569 H         1 UNK         0.0600 
    227 H227       -8.8497  -18.6107  -50.4721 H         1 UNK         0.0600 
    228 H228       -9.5415  -18.6084  -52.0826 H         1 UNK         0.0600 
    229 H229       -8.2599  -19.7492  -51.6734 H         1 UNK         0.0600 
    230 H230       -7.6454  -19.6360  -53.6366 H         1 UNK         0.3000 
    231 H231       -7.9474  -18.2353  -56.1089 H         1 UNK         0.0600 
    232 H232       -7.1096  -21.1306  -55.5359 H         1 UNK         0.0600 
    233 H233       -7.6301  -20.5086  -57.0972 H         1 UNK         0.0600 
    234 H234       -8.7623  -20.5534  -55.7554 H         1 UNK         0.0600 
    235 H235       -5.1550  -19.3124  -54.3050 H         1 UNK         0.3000 
    236 H236       -3.3643  -17.7633  -56.0479 H         1 UNK         0.0600 
    237 H237       -2.8471  -20.1869  -56.5319 H         1 UNK         0.0600 
    238 H238       -1.5463  -19.4369  -55.6172 H         1 UNK         0.0600 
    239 H239       -2.6863  -20.5031  -54.8048 H         1 UNK         0.0600 
    240 H240       -1.8979  -16.6262  -54.7823 H         1 UNK         0.3000 
    241 H241       -1.3673  -15.2585  -53.1992 H         1 UNK         0.0600 
    242 H242       -3.2957  -14.5255  -50.1299 H         1 UNK         0.3800 
    243 H243       -1.6002  -14.8328  -50.3768 H         1 UNK         0.3800 
    244 H244        0.2207  -16.9092  -52.6787 H         1 UNK         0.0800 
    245 H245       -0.2352  -16.1888  -51.1843 H         1 UNK         0.0800 
    246 H246        0.5596  -19.1286  -53.0647 H         1 UNK         0.0800 
    247 H247       -0.1066  -20.4993  -52.2307 H         1 UNK         0.0800 
@<TRIPOS>BOND
     1    1    2 1    
     2    1  127 1    
     3    1  128 1    
     4    1  129 1    
     5    2    3 2    
     6    2    4 am   BACKBONE|DICT|INTERRES
     7    4    5 1    
     8    4  130 1    
     9    5    6 1    
    10    5   65 1    
    11    5  131 1    
    12    6    7 1    
    13    6  132 1    
    14    6  133 1    
    15    7    8 1    
    16    8    9 1    
    17    8  134 1    
    18    8  135 1    
    19    9   10 ar   
    20    9   14 ar   
    21   10   11 ar   
    22   10  136 1    
    23   11   12 ar   
    24   11  126 1    
    25   12   13 ar   
    26   12  137 1    
    27   13   14 ar   
    28   13   15 1    
    29   14  138 1    
    30   15   16 1    
    31   15  139 1    
    32   15  140 1    
    33   16   17 1    
    34   17   18 1    
    35   17  141 1    
    36   17  142 1    
    37   18   19 1    
    38   18   67 1    
    39   18  143 1    
    40   19   20 am   BACKBONE|DICT|INTERRES
    41   19  144 1    
    42   20   21 2    
    43   20   22 1    
    44   22   23 1    
    45   22   24 1    
    46   22  145 1    
    47   23  146 1    
    48   23  147 1    
    49   23  148 1    
    50   24   25 am   BACKBONE|DICT|INTERRES
    51   24  149 1    
    52   25   26 2    
    53   25   27 1    
    54   27   28 1    
    55   27   29 1    
    56   27  150 1    
    57   28  151 1    
    58   28  152 1    
    59   28  153 1    
    60   29   30 am   BACKBONE|DICT|INTERRES
    61   29  154 1    
    62   30   31 2    
    63   30   32 1    
    64   32   33 1    
    65   32   34 1    
    66   32  155 1    
    67   33  156 1    
    68   33  157 1    
    69   33  158 1    
    70   34   35 am   BACKBONE|DICT|INTERRES
    71   34  159 1    
    72   35   36 2    
    73   35   37 1    
    74   37   38 1    
    75   37   39 1    
    76   37  160 1    
    77   38  161 1    
    78   38  162 1    
    79   38  163 1    
    80   39   40 am   BACKBONE|DICT|INTERRES
    81   39  164 1    
    82   40   41 2    
    83   40   42 1    
    84   42   43 1    
    85   42   44 1    
    86   42  165 1    
    87   43  166 1    
    88   43  167 1    
    89   43  168 1    
    90   44   45 am   BACKBONE|DICT|INTERRES
    91   44  169 1    
    92   45   46 2    
    93   45   47 1    
    94   47   48 1    
    95   47   49 1    
    96   47  170 1    
    97   48  171 1    
    98   48  172 1    
    99   48  173 1    
   100   49   50 am   BACKBONE|DICT|INTERRES
   101   49  174 1    
   102   50   51 2    
   103   50   52 1    
   104   52   53 1    
   105   52   54 1    
   106   52  175 1    
   107   53  176 1    
   108   53  177 1    
   109   53  178 1    
   110   54   55 am   BACKBONE|DICT|INTERRES
   111   54  179 1    
   112   55   56 2    
   113   55   57 1    
   114   57   58 1    
   115   57   59 1    
   116   57  180 1    
   117   58  181 1    
   118   58  182 1    
   119   58  183 1    
   120   59   60 am   BACKBONE|DICT|INTERRES
   121   59  184 1    
   122   60   61 2    
   123   60   62 1    
   124   62   63 1    
   125   62   64 1    
   126   62  185 1    
   127   63  186 1    
   128   63  187 1    
   129   63  188 1    
   130   64   65 am   BACKBONE|DICT|INTERRES
   131   64  189 1    
   132   65   66 2    
   133   67   68 2    
   134   67   69 am   BACKBONE|DICT|INTERRES
   135   69   70 1    
   136   69  190 1    
   137   70   71 1    
   138   70   72 1    
   139   70  191 1    
   140   71  192 1    
   141   71  193 1    
   142   71  194 1    
   143   72   73 2    
   144   72   74 am   BACKBONE|DICT|INTERRES
   145   74   75 1    
   146   74  195 1    
   147   75   76 1    
   148   75   77 1    
   149   75  196 1    
   150   76  197 1    
   151   76  198 1    
   152   76  199 1    
   153   77   78 2    
   154   77   79 am   BACKBONE|DICT|INTERRES
   155   79   80 1    
   156   79  200 1    
   157   80   81 1    
   158   80   82 1    
   159   80  201 1    
   160   81  202 1    
   161   81  203 1    
   162   81  204 1    
   163   82   83 2    
   164   82   84 am   BACKBONE|DICT|INTERRES
   165   84   85 1    
   166   84  205 1    
   167   85   86 1    
   168   85   87 1    
   169   85  206 1    
   170   86  207 1    
   171   86  208 1    
   172   86  209 1    
   173   87   88 2    
   174   87   89 am   BACKBONE|DICT|INTERRES
   175   89   90 1    
   176   89  210 1    
   177   90   91 1    
   178   90   92 1    
   179   90  211 1    
   180   91  212 1    
   181   91  213 1    
   182   91  214 1    
   183   92   93 2    
   184   92   94 am   BACKBONE|DICT|INTERRES
   185   94   95 1    
   186   94  215 1    
   187   95   96 1    
   188   95   97 1    
   189   95  216 1    
   190   96  217 1    
   191   96  218 1    
   192   96  219 1    
   193   97   98 2    
   194   97   99 am   BACKBONE|DICT|INTERRES
   195   99  100 1    
   196   99  220 1    
   197  100  101 1    
   198  100  102 1    
   199  100  221 1    
   200  101  222 1    
   201  101  223 1    
   202  101  224 1    
   203  102  103 2    
   204  102  104 am   BACKBONE|DICT|INTERRES
   205  104  105 1    
   206  104  225 1    
   207  105  106 1    
   208  105  107 1    
   209  105  226 1    
   210  106  227 1    
   211  106  228 1    
   212  106  229 1    
   213  107  108 2    
   214  107  109 am   BACKBONE|DICT|INTERRES
   215  109  110 1    
   216  109  230 1    
   217  110  111 1    
   218  110  112 1    
   219  110  231 1    
   220  111  232 1    
   221  111  233 1    
   222  111  234 1    
   223  112  113 2    
   224  112  114 am   BACKBONE|DICT|INTERRES
   225  114  115 1    
   226  114  235 1    
   227  115  116 1    
   228  115  117 1    
   229  115  236 1    
   230  116  237 1    
   231  116  238 1    
   232  116  239 1    
   233  117  118 2    
   234  117  119 am   BACKBONE|DICT|INTERRES
   235  119  120 1    
   236  119  240 1    
   237  120  121 1    
   238  120  124 1    
   239  120  241 1    
   240  121  122 am   BACKBONE|DICT|INTERRES
   241  121  123 2    
   242  122  242 1    
   243  122  243 1    
   244  124  125 1    
   245  124  244 1    
   246  124  245 1    
   247  125  126 1    
   248  126  246 1    
   249  126  247 1    
@<TRIPOS>SUBSTRUCTURE
     1 UNK         1 GROUP             0       ****    0 ROOT    
