@<TRIPOS>MOLECULE
3R540
247   249    1
SMALL
USER_CHARGES


@<TRIPOS>ATOM
      1 CA          0.1789  -11.1774  -50.0766 C.3       0 UNK        -0.1800 
      2 C           1.5348  -11.8345  -49.8581 C.2       0 UNK         0.5000 
      3 O           2.2112  -12.1760  -50.8285 O.2       0 UNK        -0.5000 
      4 N           1.9276  -12.0060  -48.5921 N.am      1 UNK        -0.5000 
      5 CA          3.1934  -12.6026  -48.1615 C.3       1 UNK         0.1400 
      6 C6          2.9941  -14.0132  -47.5538 C.3       23 UNK        -0.0398 
      7 S7          2.3819  -15.2273  -48.7667 S.3       23 UNK        -0.2404 
      8 C8          0.7495  -15.6341  -48.0709 C.3       23 UNK        -0.0205 
      9 C9         -0.0413  -16.5276  -49.0134 C.ar      23 UNK        -0.0193 
     10 C10        -1.1946  -16.0446  -49.6364 C.ar      23 UNK        -0.1150 
     11 C11        -1.8929  -16.8369  -50.5520 C.ar      23 UNK        -0.0193 
     12 C12        -1.4344  -18.1269  -50.8376 C.ar      23 UNK        -0.1150 
     13 C13        -0.2870  -18.6260  -50.2127 C.ar      23 UNK        -0.0193 
     14 C14         0.3960  -17.8267  -49.2903 C.ar      23 UNK        -0.1150 
     15 C15         0.2445  -20.0073  -50.5728 C.3       23 UNK        -0.0205 
     16 S16        -0.7408  -21.3471  -49.8361 S.3       23 UNK        -0.2404 
     17 C17        -0.4828  -21.0536  -48.0562 C.3       23 UNK        -0.0398 
     18 CA         -0.3166  -22.3531  -47.2336 C.3       11 UNK         0.1400 
     19 N           0.2470  -22.0660  -45.9107 N.am      11 UNK        -0.5000 
     20 C           0.6138  -22.9801  -45.0022 C.2       10 UNK         0.5000 
     21 O           0.5672  -24.1927  -45.1958 O.2       10 UNK        -0.5000 
     22 CA          1.0480  -22.4538  -43.6220 C.3       10 UNK         0.1400 
     23 CB          2.4992  -21.9526  -43.6508 C.3       10 UNK        -0.1800 
     24 N           0.1618  -21.3994  -43.1260 N.am      10 UNK        -0.5000 
     25 C          -1.1357  -21.5844  -42.8403 C.2       9 UNK         0.5000 
     26 O          -1.6991  -22.6765  -42.9054 O.2       9 UNK        -0.5000 
     27 CA         -1.9557  -20.3384  -42.4648 C.3       9 UNK         0.1400 
     28 CB         -1.7617  -19.9893  -40.9820 C.3       9 UNK        -0.1800 
     29 N          -1.6322  -19.1793  -43.2974 N.am      9 UNK        -0.5000 
     30 C          -1.8395  -19.1088  -44.6206 C.2       8 UNK         0.5000 
     31 O          -2.3798  -20.0003  -45.2737 O.2       8 UNK        -0.5000 
     32 CA         -1.2953  -17.8651  -45.3484 C.3       8 UNK         0.1400 
     33 CB         -2.2470  -16.6712  -45.1985 C.3       8 UNK        -0.1800 
     34 N           0.0426  -17.4961  -44.8848 N.am      8 UNK        -0.5000 
     35 C           1.1266  -18.2681  -45.0467 C.2       7 UNK         0.5000 
     36 O           1.1139  -19.3441  -45.6424 O.2       7 UNK        -0.5000 
     37 CA          2.4342  -17.7804  -44.4047 C.3       7 UNK         0.1400 
     38 CB          3.1790  -16.8161  -45.3356 C.3       7 UNK        -0.1800 
     39 N           2.2049  -17.1458  -43.1076 N.am      7 UNK        -0.5000 
     40 C           1.8612  -17.8174  -42.0003 C.2       6 UNK         0.5000 
     41 O           1.7500  -19.0428  -41.9502 O.2       6 UNK        -0.5000 
     42 CA          1.5383  -16.9697  -40.7575 C.3       6 UNK         0.1400 
     43 CB          2.8234  -16.5451  -40.0328 C.3       6 UNK        -0.1800 
     44 N           0.7410  -15.7859  -41.0856 N.am      6 UNK        -0.5000 
     45 C          -0.5316  -15.8430  -41.5047 C.2       5 UNK         0.5000 
     46 O          -1.1514  -16.8947  -41.6491 O.2       5 UNK        -0.5000 
     47 CA         -1.2328  -14.5184  -41.8512 C.3       5 UNK         0.1400 
     48 CB         -1.9612  -13.9618  -40.6191 C.3       5 UNK        -0.1800 
     49 N          -0.3466  -13.4883  -42.3880 N.am      5 UNK        -0.5000 
     50 C           0.4126  -13.5906  -43.4869 C.2       4 UNK         0.5000 
     51 O           0.5029  -14.6138  -44.1702 O.2       4 UNK        -0.5000 
     52 CA          1.2214  -12.3393  -43.8857 C.3       4 UNK         0.1400 
     53 CB          0.8619  -11.0679  -43.0849 C.3       4 UNK        -0.1800 
     54 N           2.6675  -12.5570  -43.8327 N.am      4 UNK        -0.5000 
     55 C           3.3965  -13.0397  -42.8136 C.2       3 UNK         0.5000 
     56 O           2.9108  -13.4480  -41.7572 O.2       3 UNK        -0.5000 
     57 CA          4.9290  -13.0805  -43.0022 C.3       3 UNK         0.1400 
     58 CB          5.4667  -14.5112  -42.8472 C.3       3 UNK        -0.1800 
     59 N           5.3561  -12.5539  -44.3029 N.am      3 UNK        -0.5000 
     60 C           5.6268  -11.2657  -44.5566 C.2       2 UNK         0.5000 
     61 O           5.6161  -10.3809  -43.7006 O.2       2 UNK        -0.5000 
     62 CA          5.9210  -10.9007  -46.0261 C.3       2 UNK         0.1400 
     63 CB          7.4207  -11.0442  -46.3272 C.3       2 UNK        -0.1800 
     64 N           5.1546  -11.6961  -46.9942 N.am      2 UNK        -0.5000 
     65 C           3.8196  -11.6710  -47.1114 C.2       1 UNK         0.5000 
     66 O           3.0861  -10.9897  -46.3908 O.2       1 UNK        -0.5000 
     67 C          -1.6418  -23.1408  -47.1358 C.2       11 UNK         0.5000 
     68 O          -1.8199  -24.1367  -47.8430 O.2       11 UNK        -0.5000 
     69 N          -2.5271  -22.7031  -46.2285 N.am      12 UNK        -0.5000 
     70 CA         -3.7995  -23.3522  -45.9269 C.3       12 UNK         0.1400 
     71 CB         -4.6284  -22.4753  -44.9778 C.3       12 UNK        -0.1800 
     72 C          -3.6219  -24.7723  -45.3611 C.2       12 UNK         0.5000 
     73 O          -4.2997  -25.6933  -45.8160 O.2       12 UNK        -0.5000 
     74 N          -2.6880  -24.9352  -44.4155 N.am      13 UNK        -0.5000 
     75 CA         -2.3256  -26.2262  -43.8309 C.3       13 UNK         0.1400 
     76 CB         -1.3944  -25.9995  -42.6301 C.3       13 UNK        -0.1800 
     77 C          -1.6796  -27.1874  -44.8469 C.2       13 UNK         0.5000 
     78 O          -1.9662  -28.3849  -44.8128 O.2       13 UNK        -0.5000 
     79 N          -0.8226  -26.6496  -45.7248 N.am      14 UNK        -0.5000 
     80 CA         -0.0946  -27.4038  -46.7406 C.3       14 UNK         0.1400 
     81 CB          1.0604  -26.5530  -47.2927 C.3       14 UNK        -0.1800 
     82 C          -0.9879  -27.9049  -47.8866 C.2       14 UNK         0.5000 
     83 O          -0.9124  -29.0870  -48.2266 O.2       14 UNK        -0.5000 
     84 N          -1.7816  -27.0067  -48.4879 N.am      15 UNK        -0.5000 
     85 CA         -2.4790  -27.2840  -49.7474 C.3       15 UNK         0.1400 
     86 CB         -1.5028  -27.0758  -50.9248 C.3       15 UNK        -0.1800 
     87 C          -3.7741  -26.4742  -49.9289 C.2       15 UNK         0.5000 
     88 O          -4.2174  -26.3098  -51.0662 O.2       15 UNK        -0.5000 
     89 N          -4.3585  -25.9534  -48.8377 N.am      16 UNK        -0.5000 
     90 CA         -5.6122  -25.1768  -48.8002 C.3       16 UNK         0.1400 
     91 CB         -6.8034  -26.0673  -49.2133 C.3       16 UNK        -0.1800 
     92 C          -5.5826  -23.8545  -49.6047 C.2       16 UNK         0.5000 
     93 O          -6.6395  -23.2626  -49.8276 O.2       16 UNK        -0.5000 
     94 N          -4.3876  -23.4373  -50.0550 N.am      17 UNK        -0.5000 
     95 CA         -4.1261  -22.4021  -51.0641 C.3       17 UNK         0.1400 
     96 CB         -4.4259  -20.9979  -50.4987 C.3       17 UNK        -0.1800 
     97 C          -4.8335  -22.6733  -52.4147 C.2       17 UNK         0.5000 
     98 O          -5.1756  -21.7272  -53.1262 O.2       17 UNK        -0.5000 
     99 N          -5.0616  -23.9584  -52.7308 N.am      18 UNK        -0.5000 
    100 CA        -5.8574  -24.4347  -53.8624 C.3       18 UNK         0.1400 
    101 CB        -5.9511  -25.9668  -53.7951 C.3       18 UNK        -0.1800 
    102 C         -5.3266  -23.9924  -55.2378 C.2       18 UNK         0.5000 
    103 O         -4.1224  -23.7813  -55.4046 O.2       18 UNK        -0.5000 
    104 N         -6.2553  -23.8756  -56.1969 N.am      19 UNK        -0.5000 
    105 CA        -6.0979  -23.4654  -57.5990 C.3       19 UNK         0.1400 
    106 CB        -5.1424  -24.4017  -58.3638 C.3       19 UNK        -0.1800 
    107 C         -5.7070  -21.9868  -57.7884 C.2       19 UNK         0.5000 
    108 O         -6.3164  -21.3062  -58.6143 O.2       19 UNK        -0.5000 
    109 N         -4.7134  -21.5142  -57.0280 N.am      20 UNK        -0.5000 
    110 CA        -4.2399  -20.1341  -57.0321 C.3       20 UNK         0.1400 
    111 CB        -2.8329  -20.0743  -56.4135 C.3       20 UNK        -0.1800 
    112 C         -5.2145  -19.2010  -56.2957 C.2       20 UNK         0.5000 
    113 O         -5.7186  -18.2487  -56.8946 O.2       20 UNK        -0.5000 
    114 N         -5.4338  -19.4777  -54.9995 N.am      21 UNK        -0.5000 
    115 CA        -6.3013  -18.7616  -54.0509 C.3       21 UNK         0.1400 
    116 CB        -7.7793  -19.0160  -54.4092 C.3       21 UNK        -0.1800 
    117 C         -6.0023  -17.2524  -53.8818 C.2       21 UNK         0.5000 
    118 O         -6.8201  -16.5374  -53.3004 O.2       21 UNK        -0.5000 
    119 N         -4.8579  -16.7888  -54.4055 N.am      22 UNK        -0.5000 
    120 CA        -4.5121  -15.3727  -54.6195 C.3       22 UNK         0.1400 
    121 C         -5.5036  -14.6184  -55.5626 C.2       22 UNK         0.5000 
    122 N         -6.1664  -15.3027  -56.4896 N.am      22 UNK        -0.7600 
    123 O         -5.6580  -13.4025  -55.4824 O.2       22 UNK        -0.5000 
    124 C124       -4.1949  -14.6220  -53.2960 C.3       23 UNK        -0.0398 
    125 S125       -2.5972  -15.1601  -52.6019 S.3       23 UNK        -0.2404 
    126 C126       -3.1134  -16.2739  -51.2618 C.3       23 UNK        -0.0205 
    127 H127       -0.3033  -10.9183  -49.1337 H         1 UNK         0.0600 
    128 H128       -0.4809  -11.8538  -50.6204 H         1 UNK         0.0600 
    129 H129        0.2928  -10.2654  -50.6625 H         1 UNK         0.0600 
    130 H130        1.3736  -11.6227  -47.8381 H         1 UNK         0.3000 
    131 H131        3.8878  -12.6686  -49.0019 H         1 UNK         0.0600 
    132 H132        2.3097  -13.9676  -46.7045 H         1 UNK         0.0800 
    133 H133        3.9377  -14.4006  -47.1657 H         1 UNK         0.0800 
    134 H134        0.8760  -16.1359  -47.1138 H         1 UNK         0.0800 
    135 H135        0.2046  -14.7106  -47.8684 H         1 UNK         0.0800 
    136 H136       -1.5351  -15.0385  -49.4352 H         1 UNK         0.1150 
    137 H137       -1.9580  -18.7379  -51.5595 H         1 UNK         0.1150 
    138 H138        1.2916  -18.1984  -48.8121 H         1 UNK         0.1150 
    139 H139        0.2359  -20.1224  -51.6576 H         1 UNK         0.0800 
    140 H140        1.2863  -20.1140  -50.2662 H         1 UNK         0.0800 
    141 H141       -1.3024  -20.4409  -47.6786 H         1 UNK         0.0800 
    142 H142        0.4172  -20.4486  -47.9456 H         1 UNK         0.0800 
    143 H143        0.4052  -22.9914  -47.7473 H         1 UNK         0.0600 
    144 H144        0.3702  -21.0833  -45.6801 H         1 UNK         0.3000 
    145 H145        0.9955  -23.2877  -42.9189 H         1 UNK         0.0600 
    146 H146        2.8232  -21.6263  -42.6624 H         1 UNK         0.0600 
    147 H147        3.1772  -22.7446  -43.9708 H         1 UNK         0.0600 
    148 H148        2.6269  -21.1164  -44.3373 H         1 UNK         0.0600 
    149 H149        0.5672  -20.4788  -43.0023 H         1 UNK         0.3000 
    150 H150       -3.0098  -20.5758  -42.6207 H         1 UNK         0.0600 
    151 H151       -1.9933  -20.8438  -40.3449 H         1 UNK         0.0600 
    152 H152       -2.4188  -19.1732  -40.6813 H         1 UNK         0.0600 
    153 H153       -0.7354  -19.6881  -40.7696 H         1 UNK         0.0600 
    154 H154       -1.2356  -18.3767  -42.8155 H         1 UNK         0.3000 
    155 H155       -1.2227  -18.1049  -46.4117 H         1 UNK         0.0600 
    156 H156       -3.2214  -16.8963  -45.6335 H         1 UNK         0.0600 
    157 H157       -1.8582  -15.7885  -45.7069 H         1 UNK         0.0600 
    158 H158       -2.4081  -16.4155  -44.1521 H         1 UNK         0.0600 
    159 H159        0.1433  -16.5979  -44.4235 H         1 UNK         0.3000 
    160 H160        3.0690  -18.6564  -44.2562 H         1 UNK         0.0600 
    161 H161        2.7167  -15.8303  -45.3384 H         1 UNK         0.0600 
    162 H162        3.1892  -17.1842  -46.3626 H         1 UNK         0.0600 
    163 H163        4.2180  -16.7048  -45.0309 H         1 UNK         0.0600 
    164 H164        2.2056  -16.1361  -43.0815 H         1 UNK         0.3000 
    165 H165        0.9565  -17.5922  -40.0741 H         1 UNK         0.0600 
    166 H166        2.5973  -15.9992  -39.1167 H         1 UNK         0.0600 
    167 H167        3.4202  -17.4148  -39.7549 H         1 UNK         0.0600 
    168 H168        3.4461  -15.9059  -40.6578 H         1 UNK         0.0600 
    169 H169        1.2052  -14.8872  -41.0372 H         1 UNK         0.3000 
    170 H170       -1.9805  -14.7319  -42.6161 H         1 UNK         0.0600 
    171 H171       -2.6523  -14.6989  -40.2076 H         1 UNK         0.0600 
    172 H172       -1.2620  -13.6894  -39.8274 H         1 UNK         0.0600 
    173 H173       -2.5457  -13.0769  -40.8714 H         1 UNK         0.0600 
    174 H174       -0.3241  -12.6150  -41.8822 H         1 UNK         0.3000 
    175 H175        0.9755  -12.1486  -44.9311 H         1 UNK         0.0600 
    176 H176        1.1189  -11.1596  -42.0288 H         1 UNK         0.0600 
    177 H177        1.3983  -10.2032  -43.4766 H         1 UNK         0.0600 
    178 H178       -0.2022  -10.8390  -43.1569 H         1 UNK         0.0600 
    179 H179        3.1683  -12.2153  -44.6421 H         1 UNK         0.3000 
    180 H180        5.3650  -12.4741  -42.2056 H         1 UNK         0.0600 
    181 H181        5.0211  -15.1884  -43.5729 H         1 UNK         0.0600 
    182 H182        5.2528  -14.9055  -41.8537 H         1 UNK         0.0600 
    183 H183        6.5485  -14.5426  -42.9778 H         1 UNK         0.0600 
    184 H184        5.4091  -13.2148  -45.0638 H         1 UNK         0.3000 
    185 H185        5.6459   -9.8528  -46.1640 H         1 UNK         0.0600 
    186 H186        8.0166  -10.4455  -45.6369 H         1 UNK         0.0600 
    187 H187        7.7537  -12.0788  -46.2356 H         1 UNK         0.0600 
    188 H188        7.6553  -10.7032  -47.3357 H         1 UNK         0.0600 
    189 H189        5.6941  -12.2799  -47.6179 H         1 UNK         0.3000 
    190 H190       -2.3278  -21.8430  -45.7240 H         1 UNK         0.3000 
    191 H191       -4.3439  -23.4249  -46.8667 H         1 UNK         0.0600 
    192 H192       -4.8102  -21.4907  -45.4092 H         1 UNK         0.0600 
    193 H193       -5.6005  -22.9278  -44.7786 H         1 UNK         0.0600 
    194 H194       -4.1307  -22.3331  -44.0190 H         1 UNK         0.0600 
    195 H195       -2.2012  -24.1178  -44.0565 H         1 UNK         0.3000 
    196 H196       -3.2409  -26.6965  -43.4655 H         1 UNK         0.0600 
    197 H197       -1.1222  -26.9459  -42.1615 H         1 UNK         0.0600 
    198 H198       -1.8761  -25.3855  -41.8689 H         1 UNK         0.0600 
    199 H199       -0.4711  -25.5004  -42.9259 H         1 UNK         0.0600 
    200 H200       -0.5868  -25.6649  -45.6379 H         1 UNK         0.3000 
    201 H201        0.3435  -28.2798  -46.2574 H         1 UNK         0.0600 
    202 H202        1.7727  -26.3007  -46.5071 H         1 UNK         0.0600 
    203 H203        0.7019  -25.6210  -47.7311 H         1 UNK         0.0600 
    204 H204        1.6094  -27.0911  -48.0665 H         1 UNK         0.0600 
    205 H205       -1.7803  -26.0404  -48.1678 H         1 UNK         0.3000 
    206 H206       -2.8006  -28.3273  -49.7550 H         1 UNK         0.0600 
    207 H207       -0.6204  -27.7084  -50.8287 H         1 UNK         0.0600 
    208 H208       -1.9681  -27.3262  -51.8790 H         1 UNK         0.0600 
    209 H209       -1.1667  -26.0399  -50.9827 H         1 UNK         0.0600 
    210 H210       -3.9391  -26.1277  -47.9318 H         1 UNK         0.3000 
    211 H211       -5.7842  -24.8956  -47.7633 H         1 UNK         0.0600 
    212 H212       -6.7697  -26.3287  -50.2712 H         1 UNK         0.0600 
    213 H213       -7.7527  -25.5612  -49.0346 H         1 UNK         0.0600 
    214 H214       -6.8206  -26.9934  -48.6387 H         1 UNK         0.0600 
    215 H215       -3.5829  -23.9844  -49.7808 H         1 UNK         0.3000 
    216 H216       -3.0590  -22.4526  -51.2795 H         1 UNK         0.0600 
    217 H217       -4.0948  -20.2197  -51.1872 H         1 UNK         0.0600 
    218 H218       -3.9061  -20.8346  -49.5545 H         1 UNK         0.0600 
    219 H219       -5.4921  -20.8502  -50.3259 H         1 UNK         0.0600 
    220 H220       -4.7202  -24.6790  -52.1022 H         1 UNK         0.3000 
    221 H221       -6.8611  -24.0231  -53.7382 H         1 UNK         0.0600 
    222 H222       -4.9659  -26.4303  -53.8619 H         1 UNK         0.0600 
    223 H223       -6.4111  -26.2930  -52.8621 H         1 UNK         0.0600 
    224 H224       -6.5575  -26.3636  -54.6102 H         1 UNK         0.0600 
    225 H225       -7.2129  -24.0603  -55.9314 H         1 UNK         0.3000 
    226 H226       -7.0864  -23.5825  -58.0463 H         1 UNK         0.0600 
    227 H227       -5.4554  -25.4420  -58.2753 H         1 UNK         0.0600 
    228 H228       -5.1282  -24.1558  -59.4263 H         1 UNK         0.0600 
    229 H229       -4.1168  -24.3278  -58.0017 H         1 UNK         0.0600 
    230 H230       -4.2819  -22.1584  -56.3705 H         1 UNK         0.3000 
    231 H231       -4.1659  -19.7926  -58.0669 H         1 UNK         0.0600 
    232 H232       -2.8164  -20.4647  -55.3950 H         1 UNK         0.0600 
    233 H233       -2.4623  -19.0490  -56.3808 H         1 UNK         0.0600 
    234 H234       -2.1232  -20.6561  -57.0018 H         1 UNK         0.0600 
    235 H235       -4.9989  -20.3050  -54.6034 H         1 UNK         0.3000 
    236 H236       -6.1169  -19.2082  -53.0732 H         1 UNK         0.0600 
    237 H237       -7.9856  -20.0837  -54.4855 H         1 UNK         0.0600 
    238 H238       -8.4467  -18.6134  -53.6465 H         1 UNK         0.0600 
    239 H239       -8.0488  -18.5530  -55.3590 H         1 UNK         0.0600 
    240 H240       -4.2502  -17.4564  -54.8550 H         1 UNK         0.3000 
    241 H241       -3.5905  -15.3887  -55.2026 H         1 UNK         0.0600 
    242 H242       -6.7990  -14.8176  -57.1060 H         1 UNK         0.3800 
    243 H243       -6.0354  -16.3048  -56.5919 H         1 UNK         0.3800 
    244 H244       -4.1036  -13.5486  -53.4668 H         1 UNK         0.0800 
    245 H245       -4.9944  -14.7417  -52.5643 H         1 UNK         0.0800 
    246 H246       -3.7382  -15.7310  -50.5511 H         1 UNK         0.0800 
    247 H247       -3.7264  -17.0793  -51.6688 H         1 UNK         0.0800 
@<TRIPOS>BOND
     1    1    2 1    
     2    1  127 1    
     3    1  128 1    
     4    1  129 1    
     5    2    3 2    
     6    2    4 am   BACKBONE|DICT|INTERRES
     7    4    5 1    
     8    4  130 1    
     9    5    6 1    
    10    5   65 1    
    11    5  131 1    
    12    6    7 1    
    13    6  132 1    
    14    6  133 1    
    15    7    8 1    
    16    8    9 1    
    17    8  134 1    
    18    8  135 1    
    19    9   10 ar   
    20    9   14 ar   
    21   10   11 ar   
    22   10  136 1    
    23   11   12 ar   
    24   11  126 1    
    25   12   13 ar   
    26   12  137 1    
    27   13   14 ar   
    28   13   15 1    
    29   14  138 1    
    30   15   16 1    
    31   15  139 1    
    32   15  140 1    
    33   16   17 1    
    34   17   18 1    
    35   17  141 1    
    36   17  142 1    
    37   18   19 1    
    38   18   67 1    
    39   18  143 1    
    40   19   20 am   BACKBONE|DICT|INTERRES
    41   19  144 1    
    42   20   21 2    
    43   20   22 1    
    44   22   23 1    
    45   22   24 1    
    46   22  145 1    
    47   23  146 1    
    48   23  147 1    
    49   23  148 1    
    50   24   25 am   BACKBONE|DICT|INTERRES
    51   24  149 1    
    52   25   26 2    
    53   25   27 1    
    54   27   28 1    
    55   27   29 1    
    56   27  150 1    
    57   28  151 1    
    58   28  152 1    
    59   28  153 1    
    60   29   30 am   BACKBONE|DICT|INTERRES
    61   29  154 1    
    62   30   31 2    
    63   30   32 1    
    64   32   33 1    
    65   32   34 1    
    66   32  155 1    
    67   33  156 1    
    68   33  157 1    
    69   33  158 1    
    70   34   35 am   BACKBONE|DICT|INTERRES
    71   34  159 1    
    72   35   36 2    
    73   35   37 1    
    74   37   38 1    
    75   37   39 1    
    76   37  160 1    
    77   38  161 1    
    78   38  162 1    
    79   38  163 1    
    80   39   40 am   BACKBONE|DICT|INTERRES
    81   39  164 1    
    82   40   41 2    
    83   40   42 1    
    84   42   43 1    
    85   42   44 1    
    86   42  165 1    
    87   43  166 1    
    88   43  167 1    
    89   43  168 1    
    90   44   45 am   BACKBONE|DICT|INTERRES
    91   44  169 1    
    92   45   46 2    
    93   45   47 1    
    94   47   48 1    
    95   47   49 1    
    96   47  170 1    
    97   48  171 1    
    98   48  172 1    
    99   48  173 1    
   100   49   50 am   BACKBONE|DICT|INTERRES
   101   49  174 1    
   102   50   51 2    
   103   50   52 1    
   104   52   53 1    
   105   52   54 1    
   106   52  175 1    
   107   53  176 1    
   108   53  177 1    
   109   53  178 1    
   110   54   55 am   BACKBONE|DICT|INTERRES
   111   54  179 1    
   112   55   56 2    
   113   55   57 1    
   114   57   58 1    
   115   57   59 1    
   116   57  180 1    
   117   58  181 1    
   118   58  182 1    
   119   58  183 1    
   120   59   60 am   BACKBONE|DICT|INTERRES
   121   59  184 1    
   122   60   61 2    
   123   60   62 1    
   124   62   63 1    
   125   62   64 1    
   126   62  185 1    
   127   63  186 1    
   128   63  187 1    
   129   63  188 1    
   130   64   65 am   BACKBONE|DICT|INTERRES
   131   64  189 1    
   132   65   66 2    
   133   67   68 2    
   134   67   69 am   BACKBONE|DICT|INTERRES
   135   69   70 1    
   136   69  190 1    
   137   70   71 1    
   138   70   72 1    
   139   70  191 1    
   140   71  192 1    
   141   71  193 1    
   142   71  194 1    
   143   72   73 2    
   144   72   74 am   BACKBONE|DICT|INTERRES
   145   74   75 1    
   146   74  195 1    
   147   75   76 1    
   148   75   77 1    
   149   75  196 1    
   150   76  197 1    
   151   76  198 1    
   152   76  199 1    
   153   77   78 2    
   154   77   79 am   BACKBONE|DICT|INTERRES
   155   79   80 1    
   156   79  200 1    
   157   80   81 1    
   158   80   82 1    
   159   80  201 1    
   160   81  202 1    
   161   81  203 1    
   162   81  204 1    
   163   82   83 2    
   164   82   84 am   BACKBONE|DICT|INTERRES
   165   84   85 1    
   166   84  205 1    
   167   85   86 1    
   168   85   87 1    
   169   85  206 1    
   170   86  207 1    
   171   86  208 1    
   172   86  209 1    
   173   87   88 2    
   174   87   89 am   BACKBONE|DICT|INTERRES
   175   89   90 1    
   176   89  210 1    
   177   90   91 1    
   178   90   92 1    
   179   90  211 1    
   180   91  212 1    
   181   91  213 1    
   182   91  214 1    
   183   92   93 2    
   184   92   94 am   BACKBONE|DICT|INTERRES
   185   94   95 1    
   186   94  215 1    
   187   95   96 1    
   188   95   97 1    
   189   95  216 1    
   190   96  217 1    
   191   96  218 1    
   192   96  219 1    
   193   97   98 2    
   194   97   99 am   BACKBONE|DICT|INTERRES
   195   99  100 1    
   196   99  220 1    
   197  100  101 1    
   198  100  102 1    
   199  100  221 1    
   200  101  222 1    
   201  101  223 1    
   202  101  224 1    
   203  102  103 2    
   204  102  104 am   BACKBONE|DICT|INTERRES
   205  104  105 1    
   206  104  225 1    
   207  105  106 1    
   208  105  107 1    
   209  105  226 1    
   210  106  227 1    
   211  106  228 1    
   212  106  229 1    
   213  107  108 2    
   214  107  109 am   BACKBONE|DICT|INTERRES
   215  109  110 1    
   216  109  230 1    
   217  110  111 1    
   218  110  112 1    
   219  110  231 1    
   220  111  232 1    
   221  111  233 1    
   222  111  234 1    
   223  112  113 2    
   224  112  114 am   BACKBONE|DICT|INTERRES
   225  114  115 1    
   226  114  235 1    
   227  115  116 1    
   228  115  117 1    
   229  115  236 1    
   230  116  237 1    
   231  116  238 1    
   232  116  239 1    
   233  117  118 2    
   234  117  119 am   BACKBONE|DICT|INTERRES
   235  119  120 1    
   236  119  240 1    
   237  120  121 1    
   238  120  124 1    
   239  120  241 1    
   240  121  122 am   BACKBONE|DICT|INTERRES
   241  121  123 2    
   242  122  242 1    
   243  122  243 1    
   244  124  125 1    
   245  124  244 1    
   246  124  245 1    
   247  125  126 1    
   248  126  246 1    
   249  126  247 1    
@<TRIPOS>SUBSTRUCTURE
     1 UNK         1 GROUP             0       ****    0 ROOT    
