@<TRIPOS>MOLECULE
3R540
247   249    1
SMALL
USER_CHARGES


@<TRIPOS>ATOM
      1 CA          6.5254  -14.7893  -44.4943 C.3       0 UNK        -0.1800 
      2 C           5.2210  -14.5396  -45.2365 C.2       0 UNK         0.5000 
      3 O           4.2277  -14.1604  -44.6168 O.2       0 UNK        -0.5000 
      4 N           5.2215  -14.7427  -46.5608 N.am      1 UNK        -0.5000 
      5 CA          4.0822  -14.5404  -47.4624 C.3       1 UNK         0.1400 
      6 C6          4.2354  -15.3895  -48.7512 C.3       23 UNK        -0.0398 
      7 S7          2.6542  -15.6553  -49.6272 S.3       23 UNK        -0.2404 
      8 C8          2.2032  -17.3252  -49.0631 C.3       23 UNK        -0.0205 
      9 C9          0.9986  -17.8594  -49.8219 C.ar      23 UNK        -0.0193 
     10 C10         1.1773  -18.6447  -50.9660 C.ar      23 UNK        -0.1150 
     11 C11         0.0742  -19.1451  -51.6655 C.ar      23 UNK        -0.0193 
     12 C12        -1.2131  -18.8469  -51.2104 C.ar      23 UNK        -0.1150 
     13 C13        -1.4063  -18.0733  -50.0650 C.ar      23 UNK        -0.0193 
     14 C14        -0.2958  -17.5801  -49.3737 C.ar      23 UNK        -0.1150 
     15 C15        -2.8186  -17.7862  -49.5775 C.3       23 UNK        -0.0205 
     16 S16        -3.5975  -19.2650  -48.8513 S.3       23 UNK        -0.2404 
     17 C17        -2.5199  -19.5647  -47.4136 C.3       23 UNK        -0.0398 
     18 CA         -1.5411  -20.7480  -47.6269 C.3       11 UNK         0.1400 
     19 N          -0.3214  -20.6020  -46.8163 N.am      11 UNK        -0.5000 
     20 C           0.6958  -21.4747  -46.7334 C.2       10 UNK         0.5000 
     21 O           0.7181  -22.5590  -47.3128 O.2       10 UNK        -0.5000 
     22 CA          1.8635  -21.1092  -45.8014 C.3       10 UNK         0.1400 
     23 CB          2.7632  -20.0338  -46.4273 C.3       10 UNK        -0.1800 
     24 N           1.3946  -20.6722  -44.4885 N.am      10 UNK        -0.5000 
     25 C           0.7959  -21.4746  -43.5961 C.2       9 UNK         0.5000 
     26 O           0.6792  -22.6913  -43.7414 O.2       9 UNK        -0.5000 
     27 CA          0.1847  -20.8005  -42.3526 C.3       9 UNK         0.1400 
     28 CB          1.2471  -20.5928  -41.2638 C.3       9 UNK        -0.1800 
     29 N          -0.4581  -19.5225  -42.6635 N.am      9 UNK        -0.5000 
     30 C          -1.5131  -19.3820  -43.4801 C.2       8 UNK         0.5000 
     31 O          -2.0974  -20.3229  -44.0198 O.2       8 UNK        -0.5000 
     32 CA         -1.9506  -17.9401  -43.7893 C.3       8 UNK         0.1400 
     33 CB         -2.8654  -17.3919  -42.6842 C.3       8 UNK        -0.1800 
     34 N          -0.8070  -17.0455  -43.9723 N.am      8 UNK        -0.5000 
     35 C           0.0531  -17.1179  -44.9979 C.2       7 UNK         0.5000 
     36 O          -0.0352  -17.9354  -45.9096 O.2       7 UNK        -0.5000 
     37 CA          1.2405  -16.1477  -44.9770 C.3       7 UNK         0.1400 
     38 CB          0.7942  -14.7531  -45.4348 C.3       7 UNK        -0.1800 
     39 N           1.8540  -16.0709  -43.6538 N.am      7 UNK        -0.5000 
     40 C           2.5098  -17.0869  -43.0710 C.2       6 UNK         0.5000 
     41 O           2.6962  -18.1745  -43.6154 O.2       6 UNK        -0.5000 
     42 CA          2.9999  -16.8834  -41.6231 C.3       6 UNK         0.1400 
     43 CB          4.4555  -16.3953  -41.6123 C.3       6 UNK        -0.1800 
     44 N           2.1798  -15.9472  -40.8567 N.am      6 UNK        -0.5000 
     45 C           0.8654  -16.0680  -40.6215 C.2       5 UNK         0.5000 
     46 O           0.2052  -17.0603  -40.9338 O.2       5 UNK        -0.5000 
     47 CA          0.1636  -14.8476  -39.9888 C.3       5 UNK         0.1400 
     48 CB         -0.0696  -15.0814  -38.4891 C.3       5 UNK        -0.1800 
     49 N           0.8914  -13.5830  -40.1721 N.am      5 UNK        -0.5000 
     50 C           1.1594  -13.0115  -41.3554 C.2       4 UNK         0.5000 
     51 O           0.8131  -13.4917  -42.4363 O.2       4 UNK        -0.5000 
     52 CA          2.0409  -11.7493  -41.3167 C.3       4 UNK         0.1400 
     53 CB          3.5244  -12.1495  -41.2556 C.3       4 UNK        -0.1800 
     54 N           1.8463  -10.8848  -42.4800 N.am      4 UNK        -0.5000 
     55 C           0.7379  -10.1827  -42.7512 C.2       3 UNK         0.5000 
     56 O          -0.2534  -10.1663  -42.0195 O.2       3 UNK        -0.5000 
     57 CA          0.7431   -9.3239  -44.0342 C.3       3 UNK         0.1400 
     58 CB          0.8402   -7.8312  -43.6794 C.3       3 UNK        -0.1800 
     59 N           1.8350   -9.6553  -44.9558 N.am      3 UNK        -0.5000 
     60 C           1.8222  -10.6850  -45.8120 C.2       2 UNK         0.5000 
     61 O           0.8640  -11.4496  -45.9319 O.2       2 UNK        -0.5000 
     62 CA          3.0752  -10.9045  -46.6809 C.3       2 UNK         0.1400 
     63 CB          4.3173  -10.1096  -46.2258 C.3       2 UNK        -0.1800 
     64 N           3.3890  -12.3283  -46.6904 N.am      2 UNK        -0.5000 
     65 C           3.8547  -13.0321  -47.7255 C.2       1 UNK         0.5000 
     66 O           4.1343  -12.5345  -48.8179 O.2       1 UNK        -0.5000 
     67 C          -2.2722  -22.0863  -47.3999 C.2       11 UNK         0.5000 
     68 O          -2.7481  -22.6962  -48.3608 O.2       11 UNK        -0.5000 
     69 N          -2.3088  -22.5336  -46.1364 N.am      12 UNK        -0.5000 
     70 CA         -2.8784  -23.8061  -45.6909 C.3       12 UNK         0.1400 
     71 CB         -2.7439  -23.9079  -44.1650 C.3       12 UNK        -0.1800 
     72 C          -2.2728  -25.0500  -46.3725 C.2       12 UNK         0.5000 
     73 O          -2.9735  -26.0525  -46.5110 O.2       12 UNK        -0.5000 
     74 N          -1.0072  -24.9596  -46.8005 N.am      13 UNK        -0.5000 
     75 CA         -0.2999  -26.0064  -47.5335 C.3       13 UNK         0.1400 
     76 CB          1.0815  -26.2185  -46.8937 C.3       13 UNK        -0.1800 
     77 C          -0.1546  -25.6437  -49.0204 C.2       13 UNK         0.5000 
     78 O          -0.4156  -26.4868  -49.8782 O.2       13 UNK        -0.5000 
     79 N           0.2657  -24.4028  -49.3007 N.am      14 UNK        -0.5000 
     80 CA          0.6484  -23.9195  -50.6277 C.3       14 UNK         0.1400 
     81 CB          1.3974  -22.5855  -50.4780 C.3       14 UNK        -0.1800 
     82 C          -0.5264  -23.7664  -51.6073 C.2       14 UNK         0.5000 
     83 O          -0.3243  -23.9330  -52.8096 O.2       14 UNK        -0.5000 
     84 N          -1.7181  -23.4474  -51.0900 N.am      15 UNK        -0.5000 
     85 CA         -2.9404  -23.2750  -51.8756 C.3       15 UNK         0.1400 
     86 CB         -3.2426  -21.7746  -52.0208 C.3       15 UNK        -0.1800 
     87 C          -4.1231  -24.0326  -51.2567 C.2       15 UNK         0.5000 
     88 O          -5.2638  -23.7328  -51.6011 O.2       15 UNK        -0.5000 
     89 N          -3.8495  -24.9728  -50.3384 N.am      16 UNK        -0.5000 
     90 CA         -4.8264  -25.7837  -49.5997 C.3       16 UNK         0.1400 
     91 CB         -5.4612  -26.8334  -50.5351 C.3       16 UNK        -0.1800 
     92 C          -5.8765  -24.9340  -48.8459 C.2       16 UNK         0.5000 
     93 O          -7.0613  -25.2722  -48.8475 O.2       16 UNK        -0.5000 
     94 N          -5.4090  -23.8331  -48.2378 N.am      17 UNK        -0.5000 
     95 CA         -6.1846  -22.7918  -47.5569 C.3       17 UNK         0.1400 
     96 CB         -6.9882  -23.3574  -46.3656 C.3       17 UNK        -0.1800 
     97 C          -7.0348  -21.9735  -48.5485 C.2       17 UNK         0.5000 
     98 O          -8.2411  -21.8127  -48.3549 O.2       17 UNK        -0.5000 
     99 N          -6.3590  -21.4597  -49.5863 N.am      18 UNK        -0.5000 
    100 CA        -6.8737  -20.5814  -50.6411 C.3       18 UNK         0.1400 
    101 CB        -7.3048  -19.2176  -50.0599 C.3       18 UNK        -0.1800 
    102 C         -7.9685  -21.2400  -51.5046 C.2       18 UNK         0.5000 
    103 O         -9.0102  -20.6317  -51.7635 O.2       18 UNK        -0.5000 
    104 N         -7.7046  -22.4673  -51.9695 N.am      19 UNK        -0.5000 
    105 CA        -8.5348  -23.2186  -52.9107 C.3       19 UNK         0.1400 
    106 CB        -8.1869  -24.7138  -52.8043 C.3       19 UNK        -0.1800 
    107 C         -8.3730  -22.6693  -54.3441 C.2       19 UNK         0.5000 
    108 O         -7.7875  -23.3253  -55.2069 O.2       19 UNK        -0.5000 
    109 N         -8.8739  -21.4451  -54.5491 N.am      20 UNK        -0.5000 
    110 CA        -8.8947  -20.6303  -55.7687 C.3       20 UNK         0.1400 
    111 CB        -9.5880  -21.3616  -56.9346 C.3       20 UNK        -0.1800 
    112 C         -7.5282  -20.0620  -56.1992 C.2       20 UNK         0.5000 
    113 O         -7.4753  -18.8971  -56.5972 O.2       20 UNK        -0.5000 
    114 N         -6.4545  -20.8563  -56.1203 N.am      21 UNK        -0.5000 
    115 CA        -5.1077  -20.4822  -56.5490 C.3       21 UNK         0.1400 
    116 CB        -5.0205  -20.5323  -58.0888 C.3       21 UNK        -0.1800 
    117 C         -4.0555  -21.4046  -55.9149 C.2       21 UNK         0.5000 
    118 O         -4.3994  -22.4438  -55.3482 O.2       21 UNK        -0.5000 
    119 N         -2.7840  -21.0126  -56.0599 N.am      22 UNK        -0.5000 
    120 CA        -1.5941  -21.7771  -55.6420 C.3       22 UNK         0.1400 
    121 C         -1.2603  -23.0038  -56.5474 C.2       22 UNK         0.5000 
    122 N         -1.9548  -23.2316  -57.6559 N.am      22 UNK        -0.7600 
    123 O         -0.3467  -23.7652  -56.2446 O.2       22 UNK        -0.5000 
    124 C124       -0.3492  -20.8595  -55.4929 C.3       23 UNK        -0.0398 
    125 S125       -0.6068  -19.4517  -54.3567 S.3       23 UNK        -0.2404 
    126 C126        0.2726  -20.0468  -52.8776 C.3       23 UNK        -0.0205 
    127 H127        7.3595  -14.9379  -45.1804 H         1 UNK         0.0600 
    128 H128        6.4362  -15.6765  -43.8682 H         1 UNK         0.0600 
    129 H129        6.7606  -13.9398  -43.8531 H         1 UNK         0.0600 
    130 H130        6.0837  -15.0192  -47.0086 H         1 UNK         0.3000 
    131 H131        3.1961  -14.9100  -46.9464 H         1 UNK         0.0600 
    132 H132        4.9517  -14.9389  -49.4402 H         1 UNK         0.0800 
    133 H133        4.6520  -16.3666  -48.5027 H         1 UNK         0.0800 
    134 H134        1.9840  -17.2927  -47.9960 H         1 UNK         0.0800 
    135 H135        3.0494  -18.0024  -49.1887 H         1 UNK         0.0800 
    136 H136        2.1779  -18.8712  -51.3063 H         1 UNK         0.1150 
    137 H137       -2.0737  -19.2212  -51.7431 H         1 UNK         0.1150 
    138 H138       -0.4358  -16.9817  -48.4844 H         1 UNK         0.1150 
    139 H139       -2.8216  -16.9761  -48.8466 H         1 UNK         0.0800 
    140 H140       -3.4263  -17.4435  -50.4162 H         1 UNK         0.0800 
    141 H141       -3.1415  -19.7101  -46.5283 H         1 UNK         0.0800 
    142 H142       -1.9733  -18.6442  -47.2275 H         1 UNK         0.0800 
    143 H143       -1.2036  -20.7384  -48.6653 H         1 UNK         0.0600 
    144 H144       -0.2239  -19.7135  -46.3297 H         1 UNK         0.3000 
    145 H145        2.4679  -22.0082  -45.6631 H         1 UNK         0.0600 
    146 H146        3.6565  -19.8713  -45.8242 H         1 UNK         0.0600 
    147 H147        3.0907  -20.3269  -47.4256 H         1 UNK         0.0600 
    148 H148        2.2479  -19.0795  -46.5158 H         1 UNK         0.0600 
    149 H149        1.5193  -19.6909  -44.2634 H         1 UNK         0.3000 
    150 H150       -0.5837  -21.4674  -41.9560 H         1 UNK         0.0600 
    151 H151        1.6642  -21.5479  -40.9424 H         1 UNK         0.0600 
    152 H152        0.8247  -20.1077  -40.3835 H         1 UNK         0.0600 
    153 H153        2.0743  -19.9808  -41.6215 H         1 UNK         0.0600 
    154 H154       -0.0671  -18.6919  -42.2327 H         1 UNK         0.3000 
    155 H155       -2.5191  -17.9561  -44.7212 H         1 UNK         0.0600 
    156 H156       -2.3565  -17.3446  -41.7211 H         1 UNK         0.0600 
    157 H157       -3.7446  -18.0251  -42.5585 H         1 UNK         0.0600 
    158 H158       -3.2191  -16.3896  -42.9263 H         1 UNK         0.0600 
    159 H159       -0.6275  -16.3778  -43.2364 H         1 UNK         0.3000 
    160 H160        1.9963  -16.5165  -45.6724 H         1 UNK         0.0600 
    161 H161       -0.0538  -14.3847  -44.8563 H         1 UNK         0.0600 
    162 H162        0.4964  -14.7628  -46.4839 H         1 UNK         0.0600 
    163 H163        1.5974  -14.0272  -45.3269 H         1 UNK         0.0600 
    164 H164        1.7252  -15.2013  -43.1480 H         1 UNK         0.3000 
    165 H165        2.9580  -17.8495  -41.1182 H         1 UNK         0.0600 
    166 H166        4.8456  -16.3367  -40.5961 H         1 UNK         0.0600 
    167 H167        5.1000  -17.0776  -42.1681 H         1 UNK         0.0600 
    168 H168        4.5507  -15.4082  -42.0665 H         1 UNK         0.0600 
    169 H169        2.6323  -15.0969  -40.5583 H         1 UNK         0.3000 
    170 H170       -0.8084  -14.7465  -40.4760 H         1 UNK         0.0600 
    171 H171       -0.6324  -16.0006  -38.3199 H         1 UNK         0.0600 
    172 H172        0.8712  -15.1676  -37.9440 H         1 UNK         0.0600 
    173 H173       -0.6423  -14.2662  -38.0465 H         1 UNK         0.0600 
    174 H174        1.2233  -13.1361  -39.3292 H         1 UNK         0.3000 
    175 H175        1.7913  -11.1765  -40.4212 H         1 UNK         0.0600 
    176 H176        3.8219  -12.7256  -42.1334 H         1 UNK         0.0600 
    177 H177        4.1683  -11.2717  -41.1975 H         1 UNK         0.0600 
    178 H178        3.7338  -12.7601  -40.3765 H         1 UNK         0.0600 
    179 H179        2.5967  -10.8614  -43.1526 H         1 UNK         0.3000 
    180 H180       -0.2105   -9.4894  -44.5401 H         1 UNK         0.0600 
    181 H181        1.7747   -7.5990  -43.1670 H         1 UNK         0.0600 
    182 H182        0.0226   -7.5303  -43.0229 H         1 UNK         0.0600 
    183 H183        0.7823   -7.2088  -44.5725 H         1 UNK         0.0600 
    184 H184        2.6529   -9.0641  -44.9178 H         1 UNK         0.3000 
    185 H185        2.8079  -10.5842  -47.6898 H         1 UNK         0.0600 
    186 H186        4.1444   -9.0340  -46.2750 H         1 UNK         0.0600 
    187 H187        4.6071  -10.3616  -45.2047 H         1 UNK         0.0600 
    188 H188        5.1711  -10.3204  -46.8701 H         1 UNK         0.0600 
    189 H189        3.2328  -12.8214  -45.8169 H         1 UNK         0.3000 
    190 H190       -1.9245  -21.9370  -45.4113 H         1 UNK         0.3000 
    191 H191       -3.9410  -23.7896  -45.9283 H         1 UNK         0.0600 
    192 H192       -1.6990  -23.9308  -43.8552 H         1 UNK         0.0600 
    193 H193       -3.2171  -24.8165  -43.7906 H         1 UNK         0.0600 
    194 H194       -3.2224  -23.0634  -43.6683 H         1 UNK         0.0600 
    195 H195       -0.5140  -24.0820  -46.6796 H         1 UNK         0.3000 
    196 H196       -0.8427  -26.9521  -47.4741 H         1 UNK         0.0600 
    197 H197        1.6452  -26.9866  -47.4247 H         1 UNK         0.0600 
    198 H198        0.9870  -26.5425  -45.8572 H         1 UNK         0.0600 
    199 H199        1.6781  -25.3052  -46.9035 H         1 UNK         0.0600 
    200 H200        0.4471  -23.7597  -48.5307 H         1 UNK         0.3000 
    201 H201        1.3397  -24.6476  -51.0572 H         1 UNK         0.0600 
    202 H202        2.2529  -22.6847  -49.8098 H         1 UNK         0.0600 
    203 H203        0.7508  -21.8028  -50.0788 H         1 UNK         0.0600 
    204 H204        1.7785  -22.2413  -51.4398 H         1 UNK         0.0600 
    205 H205       -1.8077  -23.2991  -50.0900 H         1 UNK         0.3000 
    206 H206       -2.8182  -23.6950  -52.8759 H         1 UNK         0.0600 
    207 H207       -2.4431  -21.2741  -52.5610 H         1 UNK         0.0600 
    208 H208       -4.1582  -21.6017  -52.5874 H         1 UNK         0.0600 
    209 H209       -3.3530  -21.2928  -51.0497 H         1 UNK         0.0600 
    210 H210       -2.8785  -25.1544  -50.1295 H         1 UNK         0.3000 
    211 H211       -4.2659  -26.3237  -48.8366 H         1 UNK         0.0600 
    212 H212       -6.0705  -26.3681  -51.3100 H         1 UNK         0.0600 
    213 H213       -6.1037  -27.5170  -49.9792 H         1 UNK         0.0600 
    214 H214       -4.6973  -27.4357  -51.0267 H         1 UNK         0.0600 
    215 H215       -4.4200  -23.6248  -48.3479 H         1 UNK         0.3000 
    216 H216       -5.4537  -22.0946  -47.1442 H         1 UNK         0.0600 
    217 H217       -7.4292  -22.5496  -45.7806 H         1 UNK         0.0600 
    218 H218       -6.3530  -23.9342  -45.6940 H         1 UNK         0.0600 
    219 H219       -7.8049  -24.0025  -46.6896 H         1 UNK         0.0600 
    220 H220       -5.3788  -21.6893  -49.6611 H         1 UNK         0.3000 
    221 H221       -6.0345  -20.3939  -51.3123 H         1 UNK         0.0600 
    222 H222       -8.1770  -19.3089  -49.4121 H         1 UNK         0.0600 
    223 H223       -6.5037  -18.7621  -49.4789 H         1 UNK         0.0600 
    224 H224       -7.5621  -18.5185  -50.8563 H         1 UNK         0.0600 
    225 H225       -6.8079  -22.8973  -51.7409 H         1 UNK         0.3000 
    226 H226       -9.5825  -23.1033  -52.6255 H         1 UNK         0.0600 
    227 H227       -8.3128  -25.0760  -51.7835 H         1 UNK         0.0600 
    228 H228       -8.8351  -25.3113  -53.4461 H         1 UNK         0.0600 
    229 H229       -7.1570  -24.9115  -53.1036 H         1 UNK         0.0600 
    230 H230       -9.2472  -20.9819  -53.7256 H         1 UNK         0.3000 
    231 H231       -9.5168  -19.7692  -55.5192 H         1 UNK         0.0600 
    232 H232      -10.5800  -21.7107  -56.6482 H         1 UNK         0.0600 
    233 H233       -9.0138  -22.2225  -57.2777 H         1 UNK         0.0600 
    234 H234       -9.7120  -20.6957  -57.7894 H         1 UNK         0.0600 
    235 H235       -6.5571  -21.8038  -55.7653 H         1 UNK         0.3000 
    236 H236       -4.8992  -19.4661  -56.2070 H         1 UNK         0.0600 
    237 H237       -5.2409  -21.5310  -58.4679 H         1 UNK         0.0600 
    238 H238       -5.7228  -19.8393  -58.5521 H         1 UNK         0.0600 
    239 H239       -4.0266  -20.2570  -58.4431 H         1 UNK         0.0600 
    240 H240       -2.5932  -20.1406  -56.5314 H         1 UNK         0.3000 
    241 H241       -1.8067  -22.1977  -54.6585 H         1 UNK         0.0600 
    242 H242       -1.7245  -24.0285  -58.2287 H         1 UNK         0.3800 
    243 H243       -2.7096  -22.6227  -57.9249 H         1 UNK         0.3800 
    244 H244       -0.0647  -20.4546  -56.4654 H         1 UNK         0.0800 
    245 H245        0.5111  -21.4361  -55.1478 H         1 UNK         0.0800 
    246 H246        1.3329  -20.1462  -53.1147 H         1 UNK         0.0800 
    247 H247       -0.0853  -21.0448  -52.6294 H         1 UNK         0.0800 
@<TRIPOS>BOND
     1    1    2 1    
     2    1  127 1    
     3    1  128 1    
     4    1  129 1    
     5    2    3 2    
     6    2    4 am   BACKBONE|DICT|INTERRES
     7    4    5 1    
     8    4  130 1    
     9    5    6 1    
    10    5   65 1    
    11    5  131 1    
    12    6    7 1    
    13    6  132 1    
    14    6  133 1    
    15    7    8 1    
    16    8    9 1    
    17    8  134 1    
    18    8  135 1    
    19    9   10 ar   
    20    9   14 ar   
    21   10   11 ar   
    22   10  136 1    
    23   11   12 ar   
    24   11  126 1    
    25   12   13 ar   
    26   12  137 1    
    27   13   14 ar   
    28   13   15 1    
    29   14  138 1    
    30   15   16 1    
    31   15  139 1    
    32   15  140 1    
    33   16   17 1    
    34   17   18 1    
    35   17  141 1    
    36   17  142 1    
    37   18   19 1    
    38   18   67 1    
    39   18  143 1    
    40   19   20 am   BACKBONE|DICT|INTERRES
    41   19  144 1    
    42   20   21 2    
    43   20   22 1    
    44   22   23 1    
    45   22   24 1    
    46   22  145 1    
    47   23  146 1    
    48   23  147 1    
    49   23  148 1    
    50   24   25 am   BACKBONE|DICT|INTERRES
    51   24  149 1    
    52   25   26 2    
    53   25   27 1    
    54   27   28 1    
    55   27   29 1    
    56   27  150 1    
    57   28  151 1    
    58   28  152 1    
    59   28  153 1    
    60   29   30 am   BACKBONE|DICT|INTERRES
    61   29  154 1    
    62   30   31 2    
    63   30   32 1    
    64   32   33 1    
    65   32   34 1    
    66   32  155 1    
    67   33  156 1    
    68   33  157 1    
    69   33  158 1    
    70   34   35 am   BACKBONE|DICT|INTERRES
    71   34  159 1    
    72   35   36 2    
    73   35   37 1    
    74   37   38 1    
    75   37   39 1    
    76   37  160 1    
    77   38  161 1    
    78   38  162 1    
    79   38  163 1    
    80   39   40 am   BACKBONE|DICT|INTERRES
    81   39  164 1    
    82   40   41 2    
    83   40   42 1    
    84   42   43 1    
    85   42   44 1    
    86   42  165 1    
    87   43  166 1    
    88   43  167 1    
    89   43  168 1    
    90   44   45 am   BACKBONE|DICT|INTERRES
    91   44  169 1    
    92   45   46 2    
    93   45   47 1    
    94   47   48 1    
    95   47   49 1    
    96   47  170 1    
    97   48  171 1    
    98   48  172 1    
    99   48  173 1    
   100   49   50 am   BACKBONE|DICT|INTERRES
   101   49  174 1    
   102   50   51 2    
   103   50   52 1    
   104   52   53 1    
   105   52   54 1    
   106   52  175 1    
   107   53  176 1    
   108   53  177 1    
   109   53  178 1    
   110   54   55 am   BACKBONE|DICT|INTERRES
   111   54  179 1    
   112   55   56 2    
   113   55   57 1    
   114   57   58 1    
   115   57   59 1    
   116   57  180 1    
   117   58  181 1    
   118   58  182 1    
   119   58  183 1    
   120   59   60 am   BACKBONE|DICT|INTERRES
   121   59  184 1    
   122   60   61 2    
   123   60   62 1    
   124   62   63 1    
   125   62   64 1    
   126   62  185 1    
   127   63  186 1    
   128   63  187 1    
   129   63  188 1    
   130   64   65 am   BACKBONE|DICT|INTERRES
   131   64  189 1    
   132   65   66 2    
   133   67   68 2    
   134   67   69 am   BACKBONE|DICT|INTERRES
   135   69   70 1    
   136   69  190 1    
   137   70   71 1    
   138   70   72 1    
   139   70  191 1    
   140   71  192 1    
   141   71  193 1    
   142   71  194 1    
   143   72   73 2    
   144   72   74 am   BACKBONE|DICT|INTERRES
   145   74   75 1    
   146   74  195 1    
   147   75   76 1    
   148   75   77 1    
   149   75  196 1    
   150   76  197 1    
   151   76  198 1    
   152   76  199 1    
   153   77   78 2    
   154   77   79 am   BACKBONE|DICT|INTERRES
   155   79   80 1    
   156   79  200 1    
   157   80   81 1    
   158   80   82 1    
   159   80  201 1    
   160   81  202 1    
   161   81  203 1    
   162   81  204 1    
   163   82   83 2    
   164   82   84 am   BACKBONE|DICT|INTERRES
   165   84   85 1    
   166   84  205 1    
   167   85   86 1    
   168   85   87 1    
   169   85  206 1    
   170   86  207 1    
   171   86  208 1    
   172   86  209 1    
   173   87   88 2    
   174   87   89 am   BACKBONE|DICT|INTERRES
   175   89   90 1    
   176   89  210 1    
   177   90   91 1    
   178   90   92 1    
   179   90  211 1    
   180   91  212 1    
   181   91  213 1    
   182   91  214 1    
   183   92   93 2    
   184   92   94 am   BACKBONE|DICT|INTERRES
   185   94   95 1    
   186   94  215 1    
   187   95   96 1    
   188   95   97 1    
   189   95  216 1    
   190   96  217 1    
   191   96  218 1    
   192   96  219 1    
   193   97   98 2    
   194   97   99 am   BACKBONE|DICT|INTERRES
   195   99  100 1    
   196   99  220 1    
   197  100  101 1    
   198  100  102 1    
   199  100  221 1    
   200  101  222 1    
   201  101  223 1    
   202  101  224 1    
   203  102  103 2    
   204  102  104 am   BACKBONE|DICT|INTERRES
   205  104  105 1    
   206  104  225 1    
   207  105  106 1    
   208  105  107 1    
   209  105  226 1    
   210  106  227 1    
   211  106  228 1    
   212  106  229 1    
   213  107  108 2    
   214  107  109 am   BACKBONE|DICT|INTERRES
   215  109  110 1    
   216  109  230 1    
   217  110  111 1    
   218  110  112 1    
   219  110  231 1    
   220  111  232 1    
   221  111  233 1    
   222  111  234 1    
   223  112  113 2    
   224  112  114 am   BACKBONE|DICT|INTERRES
   225  114  115 1    
   226  114  235 1    
   227  115  116 1    
   228  115  117 1    
   229  115  236 1    
   230  116  237 1    
   231  116  238 1    
   232  116  239 1    
   233  117  118 2    
   234  117  119 am   BACKBONE|DICT|INTERRES
   235  119  120 1    
   236  119  240 1    
   237  120  121 1    
   238  120  124 1    
   239  120  241 1    
   240  121  122 am   BACKBONE|DICT|INTERRES
   241  121  123 2    
   242  122  242 1    
   243  122  243 1    
   244  124  125 1    
   245  124  244 1    
   246  124  245 1    
   247  125  126 1    
   248  126  246 1    
   249  126  247 1    
@<TRIPOS>SUBSTRUCTURE
     1 UNK         1 GROUP             0       ****    0 ROOT    
