@<TRIPOS>MOLECULE
3R540
247   249    1
SMALL
USER_CHARGES


@<TRIPOS>ATOM
      1 CA          5.3878  -15.8121  -43.4820 C.3       0 UNK        -0.1800 
      2 C           5.2932  -15.2666  -44.8998 C.2       0 UNK         0.5000 
      3 O           6.3206  -15.0249  -45.5326 O.2       0 UNK        -0.5000 
      4 N           4.0624  -15.0853  -45.3941 N.am      1 UNK        -0.5000 
      5 CA          3.7104  -14.6204  -46.7369 C.3       1 UNK         0.1400 
      6 C6          4.0317  -15.6706  -47.8355 C.3       23 UNK        -0.0398 
      7 S7          3.2152  -15.3671  -49.4433 S.3       23 UNK        -0.2404 
      8 C8          1.4578  -15.7262  -49.0964 C.3       23 UNK        -0.0205 
      9 C9          1.0443  -17.1963  -49.0301 C.ar      23 UNK        -0.0193 
     10 C10        -0.3145  -17.4738  -48.8525 C.ar      23 UNK        -0.1150 
     11 C11        -0.7862  -18.7877  -48.8098 C.ar      23 UNK        -0.0193 
     12 C12         0.1219  -19.8381  -48.9523 C.ar      23 UNK        -0.1150 
     13 C13         1.4810  -19.5850  -49.1461 C.ar      23 UNK        -0.0193 
     14 C14         1.9407  -18.2650  -49.1742 C.ar      23 UNK        -0.1150 
     15 C15         2.4283  -20.7458  -49.3978 C.3       23 UNK        -0.0205 
     16 S16         2.9262  -21.5722  -47.8542 S.3       23 UNK        -0.2404 
     17 C17         3.1116  -23.2948  -48.4377 C.3       23 UNK        -0.0398 
     18 CA          2.0737  -24.2899  -47.8626 C.3       11 UNK         0.1400 
     19 N           2.2913  -24.5603  -46.4403 N.am      11 UNK        -0.5000 
     20 C           1.7520  -25.5843  -45.7702 C.2       10 UNK         0.5000 
     21 O           0.9741  -26.3887  -46.2850 O.2       10 UNK        -0.5000 
     22 CA          2.1116  -25.7324  -44.2796 C.3       10 UNK         0.1400 
     23 CB          3.4878  -26.4026  -44.1077 C.3       10 UNK        -0.1800 
     24 N           2.0127  -24.4969  -43.4881 N.am      10 UNK        -0.5000 
     25 C           2.7433  -23.3760  -43.5703 C.2       9 UNK         0.5000 
     26 O           3.6442  -23.1901  -44.3922 O.2       9 UNK        -0.5000 
     27 CA          2.4270  -22.2958  -42.5204 C.3       9 UNK         0.1400 
     28 CB          3.2960  -22.4975  -41.2685 C.3       9 UNK        -0.1800 
     29 N           2.6409  -20.9420  -43.0297 N.am      9 UNK        -0.5000 
     30 C           1.8709  -20.3438  -43.9457 C.2       8 UNK         0.5000 
     31 O           0.8903  -20.8745  -44.4755 O.2       8 UNK        -0.5000 
     32 CA          2.2480  -18.9002  -44.3063 C.3       8 UNK         0.1400 
     33 CB          3.3189  -18.8450  -45.4071 C.3       8 UNK        -0.1800 
     34 N           1.0439  -18.1996  -44.7347 N.am      8 UNK        -0.5000 
     35 C           0.8342  -16.8832  -44.6518 C.2       7 UNK         0.5000 
     36 O           1.6999  -16.0819  -44.2894 O.2       7 UNK        -0.5000 
     37 CA         -0.5742  -16.3990  -45.0586 C.3       7 UNK         0.1400 
     38 CB         -1.6832  -17.1569  -44.2937 C.3       7 UNK        -0.1800 
     39 N          -0.7587  -14.9486  -44.9290 N.am      7 UNK        -0.5000 
     40 C          -0.7677  -14.2159  -43.8032 C.2       6 UNK         0.5000 
     41 O          -0.6177  -14.6717  -42.6682 O.2       6 UNK        -0.5000 
     42 CA         -1.0178  -12.7063  -43.9744 C.3       6 UNK         0.1400 
     43 CB          0.3109  -11.9515  -44.1455 C.3       6 UNK        -0.1800 
     44 N          -1.9011  -12.4222  -45.1089 N.am      6 UNK        -0.5000 
     45 C          -3.2362  -12.5574  -45.0734 C.2       5 UNK         0.5000 
     46 O          -3.8581  -12.8885  -44.0632 O.2       5 UNK        -0.5000 
     47 CA         -4.0200  -12.2634  -46.3694 C.3       5 UNK         0.1400 
     48 CB         -4.6038  -10.8420  -46.3291 C.3       5 UNK        -0.1800 
     49 N          -3.2140  -12.4057  -47.5820 N.am      5 UNK        -0.5000 
     50 C          -2.8245  -13.5755  -48.1091 C.2       4 UNK         0.5000 
     51 O          -3.1433  -14.6717  -47.6528 O.2       4 UNK        -0.5000 
     52 CA         -1.8625  -13.4972  -49.3127 C.3       4 UNK         0.1400 
     53 CB         -2.6395  -13.4694  -50.6363 C.3       4 UNK        -0.1800 
     54 N          -0.9542  -12.3439  -49.2509 N.am      4 UNK        -0.5000 
     55 C          -0.0541  -12.1552  -48.2780 C.2       3 UNK         0.5000 
     56 O           0.1172  -12.9546  -47.3507 O.2       3 UNK        -0.5000 
     57 CA          0.7413  -10.8410  -48.3014 C.3       3 UNK         0.1400 
     58 CB         -0.1372   -9.6595  -47.8502 C.3       3 UNK        -0.1800 
     59 N           1.8552  -11.0135  -47.3830 N.am      3 UNK        -0.5000 
     60 C           2.9802  -10.2973  -47.2927 C.2       2 UNK         0.5000 
     61 O           3.2131   -9.2893  -47.9601 O.2       2 UNK        -0.5000 
     62 CA          4.0337  -10.8260  -46.2939 C.3       2 UNK         0.1400 
     63 CB          3.8970  -10.1151  -44.9389 C.3       2 UNK        -0.1800 
     64 N           3.9137  -12.2740  -46.0884 N.am      2 UNK        -0.5000 
     65 C           4.2265  -13.1907  -47.0160 C.2       1 UNK         0.5000 
     66 O           4.8553  -12.9269  -48.0422 O.2       1 UNK        -0.5000 
     67 C           0.6092  -23.9027  -48.1673 C.2       11 UNK         0.5000 
     68 O           0.0851  -24.2937  -49.2094 O.2       11 UNK        -0.5000 
     69 N          -0.0460  -23.2011  -47.2288 N.am      12 UNK        -0.5000 
     70 CA         -1.4684  -22.8675  -47.2929 C.3       12 UNK         0.1400 
     71 CB         -1.8102  -21.8332  -46.2114 C.3       12 UNK        -0.1800 
     72 C          -2.3705  -24.1052  -47.1745 C.2       12 UNK         0.5000 
     73 O          -3.3814  -24.1768  -47.8707 O.2       12 UNK        -0.5000 
     74 N          -1.9749  -25.0747  -46.3376 N.am      13 UNK        -0.5000 
     75 CA         -2.6678  -26.3551  -46.1896 C.3       13 UNK         0.1400 
     76 CB         -2.1587  -27.0896  -44.9400 C.3       13 UNK        -0.1800 
     77 C          -2.5270  -27.2268  -47.4496 C.2       13 UNK         0.5000 
     78 O          -3.5174  -27.8035  -47.8987 O.2       13 UNK        -0.5000 
     79 N          -1.3189  -27.2547  -48.0319 N.am      14 UNK        -0.5000 
     80 CA         -1.0177  -27.9296  -49.2981 C.3       14 UNK         0.1400 
     81 CB          0.4979  -27.8960  -49.5449 C.3       14 UNK        -0.1800 
     82 C          -1.7827  -27.3318  -50.4971 C.2       14 UNK         0.5000 
     83 O          -2.2349  -28.0782  -51.3655 O.2       14 UNK        -0.5000 
     84 N          -1.9478  -26.0024  -50.4991 N.am      15 UNK        -0.5000 
     85 CA         -2.7330  -25.2439  -51.4757 C.3       15 UNK         0.1400 
     86 CB         -2.2807  -23.7748  -51.4211 C.3       15 UNK        -0.1800 
     87 C          -4.2588  -25.3337  -51.2588 C.2       15 UNK         0.5000 
     88 O          -5.0085  -24.8020  -52.0801 O.2       15 UNK        -0.5000 
     89 N          -4.6949  -25.9434  -50.1435 N.am      16 UNK        -0.5000 
     90 CA         -6.0781  -26.0087  -49.6518 C.3       16 UNK         0.1400 
     91 CB         -6.9311  -26.9248  -50.5528 C.3       16 UNK        -0.1800 
     92 C          -6.6971  -24.6060  -49.4606 C.2       16 UNK         0.5000 
     93 O          -7.8801  -24.3994  -49.7390 O.2       16 UNK        -0.5000 
     94 N          -5.8493  -23.6571  -49.0390 N.am      17 UNK        -0.5000 
     95 CA         -6.0208  -22.2082  -48.9304 C.3       17 UNK         0.1400 
     96 CB         -7.0969  -21.8456  -47.8915 C.3       17 UNK        -0.1800 
     97 C          -6.2707  -21.4915  -50.2717 C.2       17 UNK         0.5000 
     98 O          -5.5936  -20.5053  -50.5678 O.2       17 UNK        -0.5000 
     99 N          -7.2443  -21.9859  -51.0429 N.am      18 UNK        -0.5000 
    100 CA        -7.7925  -21.3800  -52.2529 C.3       18 UNK         0.1400 
    101 CB        -8.9679  -22.2338  -52.7516 C.3       18 UNK        -0.1800 
    102 C         -6.7723  -21.1575  -53.3802 C.2       18 UNK         0.5000 
    103 O         -6.7791  -20.0846  -53.9850 O.2       18 UNK        -0.5000 
    104 N         -5.9023  -22.1463  -53.6373 N.am      19 UNK        -0.5000 
    105 CA        -4.9486  -22.1097  -54.7539 C.3       19 UNK         0.1400 
    106 CB        -4.3830  -23.5159  -55.0046 C.3       19 UNK        -0.1800 
    107 C         -3.8104  -21.0858  -54.5729 C.2       19 UNK         0.5000 
    108 O         -3.1777  -20.7124  -55.5613 O.2       19 UNK        -0.5000 
    109 N         -3.5817  -20.6446  -53.3297 N.am      20 UNK        -0.5000 
    110 CA        -2.5921  -19.6310  -52.9634 C.3       20 UNK         0.1400 
    111 CB        -1.6213  -20.2476  -51.9455 C.3       20 UNK        -0.1800 
    112 C         -3.2501  -18.3335  -52.4452 C.2       20 UNK         0.5000 
    113 O         -2.5394  -17.4432  -51.9793 O.2       20 UNK        -0.5000 
    114 N         -4.5842  -18.2365  -52.5562 N.am      21 UNK        -0.5000 
    115 CA        -5.4280  -17.0854  -52.2178 C.3       21 UNK         0.1400 
    116 CB        -5.0832  -15.8699  -53.1056 C.3       21 UNK        -0.1800 
    117 C         -5.4851  -16.7364  -50.7129 C.2       21 UNK         0.5000 
    118 O         -5.7166  -15.5759  -50.3694 O.2       21 UNK        -0.5000 
    119 N         -5.3395  -17.7432  -49.8405 N.am      22 UNK        -0.5000 
    120 CA        -5.6095  -17.6223  -48.3937 C.3       22 UNK         0.1400 
    121 C         -7.1271  -17.6927  -48.0439 C.2       22 UNK         0.5000 
    122 N         -8.0105  -18.0813  -48.9571 N.am      22 UNK        -0.7600 
    123 O         -7.5131  -17.3821  -46.9206 O.2       22 UNK        -0.5000 
    124 C124       -4.8109  -18.6596  -47.5582 C.3       23 UNK        -0.0398 
    125 S125       -3.0665  -18.1996  -47.3208 S.3       23 UNK        -0.2404 
    126 C126       -2.2788  -19.0726  -48.7011 C.3       23 UNK        -0.0205 
    127 H127        4.4020  -15.9893  -43.0506 H         1 UNK         0.0600 
    128 H128        5.9333  -16.7558  -43.4792 H         1 UNK         0.0600 
    129 H129        5.9181  -15.1068  -42.8422 H         1 UNK         0.0600 
    130 H130        3.2603  -15.3515  -44.8226 H         1 UNK         0.3000 
    131 H131        2.6264  -14.5197  -46.6953 H         1 UNK         0.0600 
    132 H132        5.1086  -15.7285  -48.0007 H         1 UNK         0.0800 
    133 H133        3.7294  -16.6608  -47.4966 H         1 UNK         0.0800 
    134 H134        0.8820  -15.2564  -49.8947 H         1 UNK         0.0800 
    135 H135        1.1499  -15.2341  -48.1754 H         1 UNK         0.0800 
    136 H136       -1.0217  -16.6612  -48.7651 H         1 UNK         0.1150 
    137 H137       -0.2276  -20.8583  -48.9587 H         1 UNK         0.1150 
    138 H138        2.9924  -18.0848  -49.3378 H         1 UNK         0.1150 
    139 H139        1.9295  -21.4523  -50.0629 H         1 UNK         0.0800 
    140 H140        3.3211  -20.4087  -49.9265 H         1 UNK         0.0800 
    141 H141        3.0840  -23.3262  -49.5277 H         1 UNK         0.0800 
    142 H142        4.1163  -23.6269  -48.1731 H         1 UNK         0.0800 
    143 H143        2.2450  -25.2374  -48.3780 H         1 UNK         0.0600 
    144 H144        2.9020  -23.9249  -45.9311 H         1 UNK         0.3000 
    145 H145        1.3698  -26.4099  -43.8532 H         1 UNK         0.0600 
    146 H146        3.7093  -26.5829  -43.0558 H         1 UNK         0.0600 
    147 H147        3.5157  -27.3676  -44.6156 H         1 UNK         0.0600 
    148 H148        4.2941  -25.7957  -44.5206 H         1 UNK         0.0600 
    149 H149        1.2928  -24.5218  -42.7790 H         1 UNK         0.3000 
    150 H150        1.3770  -22.3855  -42.2310 H         1 UNK         0.0600 
    151 H151        3.1427  -23.4890  -40.8399 H         1 UNK         0.0600 
    152 H152        3.0499  -21.7699  -40.4945 H         1 UNK         0.0600 
    153 H153        4.3588  -22.4000  -41.4965 H         1 UNK         0.0600 
    154 H154        3.4496  -20.4544  -42.6731 H         1 UNK         0.3000 
    155 H155        2.6379  -18.4236  -43.4041 H         1 UNK         0.0600 
    156 H156        3.7615  -17.8536  -45.4676 H         1 UNK         0.0600 
    157 H157        2.8981  -19.0806  -46.3839 H         1 UNK         0.0600 
    158 H158        4.1300  -19.5485  -45.2146 H         1 UNK         0.0600 
    159 H159        0.2964  -18.8184  -45.0251 H         1 UNK         0.3000 
    160 H160       -0.6860  -16.6171  -46.1212 H         1 UNK         0.0600 
    161 H161       -2.6694  -16.7616  -44.5395 H         1 UNK         0.0600 
    162 H162       -1.5551  -17.0887  -43.2129 H         1 UNK         0.0600 
    163 H163       -1.6923  -18.2164  -44.5517 H         1 UNK         0.0600 
    164 H164       -0.8479  -14.4467  -45.8032 H         1 UNK         0.3000 
    165 H165       -1.4941  -12.3378  -43.0631 H         1 UNK         0.0600 
    166 H166        0.9090  -12.3620  -44.9575 H         1 UNK         0.0600 
    167 H167        0.1467  -10.8923  -44.3457 H         1 UNK         0.0600 
    168 H168        0.9119  -12.0222  -43.2379 H         1 UNK         0.0600 
    169 H169       -1.4531  -12.2045  -45.9877 H         1 UNK         0.3000 
    170 H170       -4.8495  -12.9727  -46.4211 H         1 UNK         0.0600 
    171 H171       -5.2385  -10.7044  -45.4523 H         1 UNK         0.0600 
    172 H172       -3.8189  -10.0850  -46.2884 H         1 UNK         0.0600 
    173 H173       -5.2188  -10.6429  -47.2070 H         1 UNK         0.0600 
    174 H174       -2.9081  -11.5528  -48.0266 H         1 UNK         0.3000 
    175 H175       -1.2542  -14.4018  -49.3001 H         1 UNK         0.0600 
    176 H176       -3.2717  -12.5841  -50.7164 H         1 UNK         0.0600 
    177 H177       -1.9643  -13.4828  -51.4923 H         1 UNK         0.0600 
    178 H178       -3.2848  -14.3445  -50.7225 H         1 UNK         0.0600 
    179 H179       -1.0495  -11.6517  -49.9804 H         1 UNK         0.3000 
    180 H180        1.1231  -10.6711  -49.3100 H         1 UNK         0.0600 
    181 H181       -0.5325   -9.8133  -46.8450 H         1 UNK         0.0600 
    182 H182       -0.9854   -9.5194  -48.5209 H         1 UNK         0.0600 
    183 H183        0.4255   -8.7258  -47.8464 H         1 UNK         0.0600 
    184 H184        1.7637  -11.8502  -46.8217 H         1 UNK         0.3000 
    185 H185        5.0236  -10.6087  -46.7005 H         1 UNK         0.0600 
    186 H186        4.0083   -9.0360  -45.0525 H         1 UNK         0.0600 
    187 H187        2.9234  -10.2979  -44.4828 H         1 UNK         0.0600 
    188 H188        4.6640  -10.4482  -44.2395 H         1 UNK         0.0600 
    189 H189        3.4581  -12.5785  -45.2404 H         1 UNK         0.3000 
    190 H190        0.4625  -22.8888  -46.4128 H         1 UNK         0.3000 
    191 H191       -1.6710  -22.4219  -48.2674 H         1 UNK         0.0600 
    192 H192       -2.8636  -21.5532  -46.2553 H         1 UNK         0.0600 
    193 H193       -1.2280  -20.9206  -46.3416 H         1 UNK         0.0600 
    194 H194       -1.6108  -22.2152  -45.2095 H         1 UNK         0.0600 
    195 H195       -1.1060  -24.9633  -45.8372 H         1 UNK         0.3000 
    196 H196       -3.7307  -26.1485  -46.0457 H         1 UNK         0.0600 
    197 H197       -2.7118  -28.0167  -44.7848 H         1 UNK         0.0600 
    198 H198       -2.2881  -26.4813  -44.0447 H         1 UNK         0.0600 
    199 H199       -1.1038  -27.3508  -45.0187 H         1 UNK         0.0600 
    200 H200       -0.5475  -26.7857  -47.5680 H         1 UNK         0.3000 
    201 H201       -1.3226  -28.9733  -49.1975 H         1 UNK         0.0600 
    202 H202        1.0434  -28.3505  -48.7175 H         1 UNK         0.0600 
    203 H203        0.8639  -26.8767  -49.6671 H         1 UNK         0.0600 
    204 H204        0.7575  -28.4476  -50.4493 H         1 UNK         0.0600 
    205 H205       -1.4700  -25.4565  -49.7894 H         1 UNK         0.3000 
    206 H206       -2.5218  -25.6323  -52.4739 H         1 UNK         0.0600 
    207 H207       -1.2174  -23.6803  -51.6416 H         1 UNK         0.0600 
    208 H208       -2.8157  -23.1654  -52.1483 H         1 UNK         0.0600 
    209 H209       -2.4588  -23.3369  -50.4388 H         1 UNK         0.0600 
    210 H210       -4.0006  -26.3410  -49.5237 H         1 UNK         0.3000 
    211 H211       -6.0323  -26.4621  -48.6608 H         1 UNK         0.0600 
    212 H212       -7.0659  -26.5020  -51.5489 H         1 UNK         0.0600 
    213 H213       -7.9227  -27.0794  -50.1261 H         1 UNK         0.0600 
    214 H214       -6.4697  -27.9060  -50.6643 H         1 UNK         0.0600 
    215 H215       -4.9095  -23.9691  -48.7973 H         1 UNK         0.3000 
    216 H216       -5.0632  -21.8447  -48.5569 H         1 UNK         0.0600 
    217 H217       -8.0851  -22.2007  -48.1848 H         1 UNK         0.0600 
    218 H218       -7.1678  -20.7658  -47.7605 H         1 UNK         0.0600 
    219 H219       -6.8623  -22.2758  -46.9179 H         1 UNK         0.0600 
    220 H220       -7.7019  -22.8310  -50.7093 H         1 UNK         0.3000 
    221 H221       -8.1835  -20.4001  -51.9718 H         1 UNK         0.0600 
    222 H222       -8.6515  -23.2488  -52.9958 H         1 UNK         0.0600 
    223 H223       -9.7532  -22.3010  -51.9984 H         1 UNK         0.0600 
    224 H224       -9.4145  -21.8023  -53.6484 H         1 UNK         0.0600 
    225 H225       -5.9172  -22.9893  -53.0738 H         1 UNK         0.3000 
    226 H226       -5.5018  -21.8155  -55.6485 H         1 UNK         0.0600 
    227 H227       -5.1800  -24.2505  -55.1206 H         1 UNK         0.0600 
    228 H228       -3.7870  -23.5365  -55.9177 H         1 UNK         0.0600 
    229 H229       -3.7376  -23.8451  -54.1920 H         1 UNK         0.0600 
    230 H230       -4.1659  -20.9928  -52.5810 H         1 UNK         0.3000 
    231 H231       -2.0059  -19.3363  -53.8359 H         1 UNK         0.0600 
    232 H232       -2.1445  -20.6230  -51.0667 H         1 UNK         0.0600 
    233 H233       -0.8803  -19.5183  -51.6175 H         1 UNK         0.0600 
    234 H234       -1.0741  -21.0815  -52.3848 H         1 UNK         0.0600 
    235 H235       -5.0786  -19.0198  -52.9640 H         1 UNK         0.3000 
    236 H236       -6.4425  -17.3896  -52.4787 H         1 UNK         0.0600 
    237 H237       -5.0829  -16.1406  -54.1614 H         1 UNK         0.0600 
    238 H238       -5.8144  -15.0707  -52.9790 H         1 UNK         0.0600 
    239 H239       -4.1041  -15.4558  -52.8648 H         1 UNK         0.0600 
    240 H240       -5.2114  -18.6859  -50.1978 H         1 UNK         0.3000 
    241 H241       -5.2888  -16.6296  -48.0701 H         1 UNK         0.0600 
    242 H242       -7.7135  -18.3361  -49.8838 H         1 UNK         0.3800 
    243 H243       -8.9886  -18.1122  -48.7157 H         1 UNK         0.3800 
    244 H244       -5.2272  -18.7600  -46.5541 H         1 UNK         0.0800 
    245 H245       -4.8740  -19.6493  -48.0043 H         1 UNK         0.0800 
    246 H246       -2.7568  -18.7553  -49.6251 H         1 UNK         0.0800 
    247 H247       -2.4676  -20.1411  -48.5999 H         1 UNK         0.0800 
@<TRIPOS>BOND
     1    1    2 1    
     2    1  127 1    
     3    1  128 1    
     4    1  129 1    
     5    2    3 2    
     6    2    4 am   BACKBONE|DICT|INTERRES
     7    4    5 1    
     8    4  130 1    
     9    5    6 1    
    10    5   65 1    
    11    5  131 1    
    12    6    7 1    
    13    6  132 1    
    14    6  133 1    
    15    7    8 1    
    16    8    9 1    
    17    8  134 1    
    18    8  135 1    
    19    9   10 ar   
    20    9   14 ar   
    21   10   11 ar   
    22   10  136 1    
    23   11   12 ar   
    24   11  126 1    
    25   12   13 ar   
    26   12  137 1    
    27   13   14 ar   
    28   13   15 1    
    29   14  138 1    
    30   15   16 1    
    31   15  139 1    
    32   15  140 1    
    33   16   17 1    
    34   17   18 1    
    35   17  141 1    
    36   17  142 1    
    37   18   19 1    
    38   18   67 1    
    39   18  143 1    
    40   19   20 am   BACKBONE|DICT|INTERRES
    41   19  144 1    
    42   20   21 2    
    43   20   22 1    
    44   22   23 1    
    45   22   24 1    
    46   22  145 1    
    47   23  146 1    
    48   23  147 1    
    49   23  148 1    
    50   24   25 am   BACKBONE|DICT|INTERRES
    51   24  149 1    
    52   25   26 2    
    53   25   27 1    
    54   27   28 1    
    55   27   29 1    
    56   27  150 1    
    57   28  151 1    
    58   28  152 1    
    59   28  153 1    
    60   29   30 am   BACKBONE|DICT|INTERRES
    61   29  154 1    
    62   30   31 2    
    63   30   32 1    
    64   32   33 1    
    65   32   34 1    
    66   32  155 1    
    67   33  156 1    
    68   33  157 1    
    69   33  158 1    
    70   34   35 am   BACKBONE|DICT|INTERRES
    71   34  159 1    
    72   35   36 2    
    73   35   37 1    
    74   37   38 1    
    75   37   39 1    
    76   37  160 1    
    77   38  161 1    
    78   38  162 1    
    79   38  163 1    
    80   39   40 am   BACKBONE|DICT|INTERRES
    81   39  164 1    
    82   40   41 2    
    83   40   42 1    
    84   42   43 1    
    85   42   44 1    
    86   42  165 1    
    87   43  166 1    
    88   43  167 1    
    89   43  168 1    
    90   44   45 am   BACKBONE|DICT|INTERRES
    91   44  169 1    
    92   45   46 2    
    93   45   47 1    
    94   47   48 1    
    95   47   49 1    
    96   47  170 1    
    97   48  171 1    
    98   48  172 1    
    99   48  173 1    
   100   49   50 am   BACKBONE|DICT|INTERRES
   101   49  174 1    
   102   50   51 2    
   103   50   52 1    
   104   52   53 1    
   105   52   54 1    
   106   52  175 1    
   107   53  176 1    
   108   53  177 1    
   109   53  178 1    
   110   54   55 am   BACKBONE|DICT|INTERRES
   111   54  179 1    
   112   55   56 2    
   113   55   57 1    
   114   57   58 1    
   115   57   59 1    
   116   57  180 1    
   117   58  181 1    
   118   58  182 1    
   119   58  183 1    
   120   59   60 am   BACKBONE|DICT|INTERRES
   121   59  184 1    
   122   60   61 2    
   123   60   62 1    
   124   62   63 1    
   125   62   64 1    
   126   62  185 1    
   127   63  186 1    
   128   63  187 1    
   129   63  188 1    
   130   64   65 am   BACKBONE|DICT|INTERRES
   131   64  189 1    
   132   65   66 2    
   133   67   68 2    
   134   67   69 am   BACKBONE|DICT|INTERRES
   135   69   70 1    
   136   69  190 1    
   137   70   71 1    
   138   70   72 1    
   139   70  191 1    
   140   71  192 1    
   141   71  193 1    
   142   71  194 1    
   143   72   73 2    
   144   72   74 am   BACKBONE|DICT|INTERRES
   145   74   75 1    
   146   74  195 1    
   147   75   76 1    
   148   75   77 1    
   149   75  196 1    
   150   76  197 1    
   151   76  198 1    
   152   76  199 1    
   153   77   78 2    
   154   77   79 am   BACKBONE|DICT|INTERRES
   155   79   80 1    
   156   79  200 1    
   157   80   81 1    
   158   80   82 1    
   159   80  201 1    
   160   81  202 1    
   161   81  203 1    
   162   81  204 1    
   163   82   83 2    
   164   82   84 am   BACKBONE|DICT|INTERRES
   165   84   85 1    
   166   84  205 1    
   167   85   86 1    
   168   85   87 1    
   169   85  206 1    
   170   86  207 1    
   171   86  208 1    
   172   86  209 1    
   173   87   88 2    
   174   87   89 am   BACKBONE|DICT|INTERRES
   175   89   90 1    
   176   89  210 1    
   177   90   91 1    
   178   90   92 1    
   179   90  211 1    
   180   91  212 1    
   181   91  213 1    
   182   91  214 1    
   183   92   93 2    
   184   92   94 am   BACKBONE|DICT|INTERRES
   185   94   95 1    
   186   94  215 1    
   187   95   96 1    
   188   95   97 1    
   189   95  216 1    
   190   96  217 1    
   191   96  218 1    
   192   96  219 1    
   193   97   98 2    
   194   97   99 am   BACKBONE|DICT|INTERRES
   195   99  100 1    
   196   99  220 1    
   197  100  101 1    
   198  100  102 1    
   199  100  221 1    
   200  101  222 1    
   201  101  223 1    
   202  101  224 1    
   203  102  103 2    
   204  102  104 am   BACKBONE|DICT|INTERRES
   205  104  105 1    
   206  104  225 1    
   207  105  106 1    
   208  105  107 1    
   209  105  226 1    
   210  106  227 1    
   211  106  228 1    
   212  106  229 1    
   213  107  108 2    
   214  107  109 am   BACKBONE|DICT|INTERRES
   215  109  110 1    
   216  109  230 1    
   217  110  111 1    
   218  110  112 1    
   219  110  231 1    
   220  111  232 1    
   221  111  233 1    
   222  111  234 1    
   223  112  113 2    
   224  112  114 am   BACKBONE|DICT|INTERRES
   225  114  115 1    
   226  114  235 1    
   227  115  116 1    
   228  115  117 1    
   229  115  236 1    
   230  116  237 1    
   231  116  238 1    
   232  116  239 1    
   233  117  118 2    
   234  117  119 am   BACKBONE|DICT|INTERRES
   235  119  120 1    
   236  119  240 1    
   237  120  121 1    
   238  120  124 1    
   239  120  241 1    
   240  121  122 am   BACKBONE|DICT|INTERRES
   241  121  123 2    
   242  122  242 1    
   243  122  243 1    
   244  124  125 1    
   245  124  244 1    
   246  124  245 1    
   247  125  126 1    
   248  126  246 1    
   249  126  247 1    
@<TRIPOS>SUBSTRUCTURE
     1 UNK         1 GROUP             0       ****    0 ROOT    
