@<TRIPOS>MOLECULE
3R540
247   249    1
SMALL
USER_CHARGES


@<TRIPOS>ATOM
      1 CA         -4.7427  -15.7431  -47.3209 C.3       0 UNK        -0.1800 
      2 C          -3.5425  -15.6176  -46.3949 C.2       0 UNK         0.5000 
      3 O          -3.4803  -14.6866  -45.5914 O.2       0 UNK        -0.5000 
      4 N          -2.5998  -16.5661  -46.4851 N.am      1 UNK        -0.5000 
      5 CA         -1.3317  -16.6017  -45.7376 C.3       1 UNK         0.1400 
      6 C6         -0.3810  -17.6954  -46.2883 C.3       23 UNK        -0.0398 
      7 S7          1.3787  -17.2218  -46.1872 S.3       23 UNK        -0.2404 
      8 C8          1.6571  -16.4511  -47.8197 C.3       23 UNK        -0.0205 
      9 C9          1.4435  -17.3931  -49.0018 C.ar      23 UNK        -0.0193 
     10 C10         0.7720  -16.9339  -50.1404 C.ar      23 UNK        -0.1150 
     11 C11         0.5655  -17.7773  -51.2368 C.ar      23 UNK        -0.0193 
     12 C12         1.0323  -19.0947  -51.1835 C.ar      23 UNK        -0.1150 
     13 C13         1.7157  -19.5635  -50.0596 C.ar      23 UNK        -0.0193 
     14 C14         1.9220  -18.7079  -48.9754 C.ar      23 UNK        -0.1150 
     15 C15         2.2353  -20.9917  -50.0233 C.3       23 UNK        -0.0205 
     16 S16         0.9559  -22.1631  -49.4779 S.3       23 UNK        -0.2404 
     17 C17         0.8873  -21.8124  -47.6910 C.3       23 UNK        -0.0398 
     18 CA         -0.0445  -22.7784  -46.9202 C.3       11 UNK         0.1400 
     19 N           0.3531  -22.8725  -45.5139 N.am      11 UNK        -0.5000 
     20 C          -0.1435  -23.7524  -44.6318 C.2       10 UNK         0.5000 
     21 O          -0.9441  -24.6345  -44.9370 O.2       10 UNK        -0.5000 
     22 CA          0.2666  -23.5892  -43.1533 C.3       10 UNK         0.1400 
     23 CB          1.3946  -24.5697  -42.8018 C.3       10 UNK        -0.1800 
     24 N           0.6879  -22.2323  -42.7982 N.am      10 UNK        -0.5000 
     25 C          -0.0410  -21.1160  -42.9466 C.2       9 UNK         0.5000 
     26 O          -1.2083  -21.1131  -43.3379 O.2       9 UNK        -0.5000 
     27 CA          0.6807  -19.7780  -42.6927 C.3       9 UNK         0.1400 
     28 CB          0.3474  -19.2415  -41.2935 C.3       9 UNK        -0.1800 
     29 N           2.1385  -19.8476  -42.8506 N.am      9 UNK        -0.5000 
     30 C           2.7788  -20.1752  -43.9819 C.2       8 UNK         0.5000 
     31 O           2.2072  -20.4926  -45.0275 O.2       8 UNK        -0.5000 
     32 CA          4.3162  -20.2148  -43.9137 C.3       8 UNK         0.1400 
     33 CB          4.8317  -21.6372  -44.1856 C.3       8 UNK        -0.1800 
     34 N           4.9263  -19.2919  -44.8685 N.am      8 UNK        -0.5000 
     35 C           4.8372  -17.9583  -44.7969 C.2       7 UNK         0.5000 
     36 O           4.2611  -17.3660  -43.8798 O.2       7 UNK        -0.5000 
     37 CA          5.5182  -17.1477  -45.9157 C.3       7 UNK         0.1400 
     38 CB          5.4378  -17.8132  -47.3033 C.3       7 UNK        -0.1800 
     39 N           4.8918  -15.8342  -45.9665 N.am      7 UNK        -0.5000 
     40 C           5.4901  -14.6710  -46.2397 C.2       6 UNK         0.5000 
     41 O           6.6707  -14.5697  -46.5759 O.2       6 UNK        -0.5000 
     42 CA          4.6212  -13.4023  -46.1129 C.3       6 UNK         0.1400 
     43 CB          4.2315  -12.8754  -47.5027 C.3       6 UNK        -0.1800 
     44 N           3.3970  -13.6318  -45.3435 N.am      6 UNK        -0.5000 
     45 C           3.3172  -13.7569  -44.0145 C.2       5 UNK         0.5000 
     46 O           4.2725  -13.5709  -43.2586 O.2       5 UNK        -0.5000 
     47 CA          1.9375  -14.1679  -43.4542 C.3       5 UNK         0.1400 
     48 CB          1.9483  -14.3704  -41.9287 C.3       5 UNK        -0.1800 
     49 N           0.8587  -13.2355  -43.7934 N.am      5 UNK        -0.5000 
     50 C           0.3070  -13.0589  -45.0002 C.2       4 UNK         0.5000 
     51 O           0.7031  -13.6240  -46.0211 O.2       4 UNK        -0.5000 
     52 CA         -0.9156  -12.1259  -45.0577 C.3       4 UNK         0.1400 
     53 CB         -1.4251  -11.9079  -46.4940 C.3       4 UNK        -0.1800 
     54 N          -2.0075  -12.6737  -44.2557 N.am      4 UNK        -0.5000 
     55 C          -2.1888  -12.4685  -42.9450 C.2       3 UNK         0.5000 
     56 O          -1.4271  -11.7937  -42.2512 O.2       3 UNK        -0.5000 
     57 CA         -3.4017  -13.1568  -42.3011 C.3       3 UNK         0.1400 
     58 CB         -4.7158  -12.5290  -42.7938 C.3       3 UNK        -0.1800 
     59 N          -3.3981  -14.5825  -42.6206 N.am      3 UNK        -0.5000 
     60 C          -3.1354  -15.5664  -41.7490 C.2       2 UNK         0.5000 
     61 O          -2.9394  -15.3846  -40.5469 O.2       2 UNK        -0.5000 
     62 CA         -3.0718  -17.0027  -42.3111 C.3       2 UNK         0.1400 
     63 CB         -4.4200  -17.7158  -42.1282 C.3       2 UNK        -0.1800 
     64 N          -2.6958  -17.0483  -43.7247 N.am      2 UNK        -0.5000 
     65 C          -1.4924  -16.6988  -44.2006 C.2       1 UNK         0.5000 
     66 O          -0.5405  -16.4290  -43.4713 O.2       1 UNK        -0.5000 
     67 C          -1.5359  -22.3965  -47.0845 C.2       11 UNK         0.5000 
     68 O          -2.1772  -22.8461  -48.0356 O.2       11 UNK        -0.5000 
     69 N          -2.0821  -21.6068  -46.1459 N.am      12 UNK        -0.5000 
     70 CA         -3.5038  -21.2613  -46.1020 C.3       12 UNK         0.1400 
     71 CB         -3.6984  -19.9525  -45.3274 C.3       12 UNK        -0.1800 
     72 C          -4.3512  -22.3909  -45.4980 C.2       12 UNK         0.5000 
     73 O          -5.4615  -22.6227  -45.9736 O.2       12 UNK        -0.5000 
     74 N          -3.8040  -23.1078  -44.5051 N.am      13 UNK        -0.5000 
     75 CA         -4.4292  -24.2893  -43.8991 C.3       13 UNK         0.1400 
     76 CB         -3.6465  -24.7047  -42.6444 C.3       13 UNK        -0.1800 
     77 C          -4.5459  -25.4645  -44.8905 C.2       13 UNK         0.5000 
     78 O          -5.5577  -26.1657  -44.8938 O.2       13 UNK        -0.5000 
     79 N          -3.5284  -25.6184  -45.7486 N.am      14 UNK        -0.5000 
     80 CA         -3.4968  -26.5519  -46.8763 C.3       14 UNK         0.1400 
     81 CB         -2.0361  -26.7137  -47.3280 C.3       14 UNK        -0.1800 
     82 C          -4.3741  -26.1114  -48.0686 C.2       14 UNK         0.5000 
     83 O          -4.5617  -26.8999  -48.9951 O.2       14 UNK        -0.5000 
     84 N          -4.8615  -24.8610  -48.0415 N.am      15 UNK        -0.5000 
     85 CA         -5.6577  -24.1654  -49.0605 C.3       15 UNK         0.1400 
     86 CB         -6.9903  -24.8925  -49.3297 C.3       15 UNK        -0.1800 
     87 C          -4.8906  -23.8470  -50.3613 C.2       15 UNK         0.5000 
     88 O          -5.4966  -23.3711  -51.3214 O.2       15 UNK        -0.5000 
     89 N          -3.5684  -24.0515  -50.3665 N.am      16 UNK        -0.5000 
     90 CA         -2.6792  -23.7480  -51.4854 C.3       16 UNK         0.1400 
     91 CB         -1.3396  -24.4657  -51.2711 C.3       16 UNK        -0.1800 
     92 C          -2.4828  -22.2350  -51.6848 C.2       16 UNK         0.5000 
     93 O          -2.3519  -21.7910  -52.8259 O.2       16 UNK        -0.5000 
     94 N          -2.5007  -21.4693  -50.5847 N.am      17 UNK        -0.5000 
     95 CA         -2.4813  -20.0058  -50.6123 C.3       17 UNK         0.1400 
     96 CB         -1.9575  -19.4642  -49.2761 C.3       17 UNK        -0.1800 
     97 C          -3.8656  -19.4035  -50.9058 C.2       17 UNK         0.5000 
     98 O          -3.9418  -18.2855  -51.4145 O.2       17 UNK        -0.5000 
     99 N          -4.9300  -20.1407  -50.5563 N.am      18 UNK        -0.5000 
    100 CA        -6.3203  -19.7530  -50.7976 C.3       18 UNK         0.1400 
    101 CB        -7.2478  -20.5774  -49.8913 C.3       18 UNK        -0.1800 
    102 C         -6.7122  -19.9098  -52.2778 C.2       18 UNK         0.5000 
    103 O         -7.5017  -19.1115  -52.7845 O.2       18 UNK        -0.5000 
    104 N         -6.1409  -20.9218  -52.9456 N.am      19 UNK        -0.5000 
    105 CA        -6.2381  -21.1396  -54.3857 C.3       19 UNK         0.1400 
    106 CB        -5.5921  -22.4903  -54.7308 C.3       19 UNK        -0.1800 
    107 C         -5.5585  -20.0045  -55.1732 C.2       19 UNK         0.5000 
    108 O         -4.4709  -19.5603  -54.7971 O.2       19 UNK        -0.5000 
    109 N         -6.1916  -19.5882  -56.2781 N.am      20 UNK        -0.5000 
    110 CA        -5.7561  -18.4836  -57.1421 C.3       20 UNK         0.1400 
    111 CB        -6.8419  -18.2223  -58.1976 C.3       20 UNK        -0.1800 
    112 C         -4.3870  -18.6980  -57.8195 C.2       20 UNK         0.5000 
    113 O         -3.7574  -17.7240  -58.2340 O.2       20 UNK        -0.5000 
    114 N         -3.9458  -19.9601  -57.9064 N.am      21 UNK        -0.5000 
    115 CA        -2.6286  -20.3602  -58.3976 C.3       21 UNK         0.1400 
    116 CB        -2.6127  -21.8855  -58.5830 C.3       21 UNK        -0.1800 
    117 C         -1.4671  -19.9193  -57.4828 C.2       21 UNK         0.5000 
    118 O         -0.3599  -19.7357  -57.9885 O.2       21 UNK        -0.5000 
    119 N         -1.7381  -19.7536  -56.1773 N.am      22 UNK        -0.5000 
    120 CA        -0.7795  -19.4069  -55.1161 C.3       22 UNK         0.1400 
    121 C          0.3415  -20.4795  -54.9729 C.2       22 UNK         0.5000 
    122 N          0.0699  -21.5624  -54.2581 N.am      22 UNK        -0.7600 
    123 O          1.4431  -20.3477  -55.5004 O.2       22 UNK        -0.5000 
    124 C124       -0.2768  -17.9372  -55.2438 C.3       23 UNK        -0.0398 
    125 S125        0.8915  -17.3789  -53.9523 S.3       23 UNK        -0.2404 
    126 C126       -0.1677  -17.2751  -52.4743 C.3       23 UNK        -0.0205 
    127 H127       -4.8247  -14.8549  -47.9472 H         1 UNK         0.0600 
    128 H128       -5.6582  -15.8350  -46.7366 H         1 UNK         0.0600 
    129 H129       -4.6649  -16.6136  -47.9730 H         1 UNK         0.0600 
    130 H130       -2.7238  -17.2985  -47.1674 H         1 UNK         0.3000 
    131 H131       -0.8723  -15.6328  -45.9283 H         1 UNK         0.0600 
    132 H132       -0.5204  -18.6478  -45.7736 H         1 UNK         0.0800 
    133 H133       -0.6052  -17.9024  -47.3325 H         1 UNK         0.0800 
    134 H134        1.0045  -15.5807  -47.9025 H         1 UNK         0.0800 
    135 H135        2.6788  -16.0737  -47.8606 H         1 UNK         0.0800 
    136 H136        0.4089  -15.9163  -50.1734 H         1 UNK         0.1150 
    137 H137        0.8691  -19.7562  -52.0225 H         1 UNK         0.1150 
    138 H138        2.4428  -19.0747  -48.1027 H         1 UNK         0.1150 
    139 H139        2.5718  -21.2808  -51.0200 H         1 UNK         0.0800 
    140 H140        3.1089  -21.0677  -49.3740 H         1 UNK         0.0800 
    141 H141        0.6102  -20.7717  -47.5171 H         1 UNK         0.0800 
    142 H142        1.9083  -21.9122  -47.3197 H         1 UNK         0.0800 
    143 H143        0.0764  -23.7788  -47.3414 H         1 UNK         0.0600 
    144 H144        1.0012  -22.1629  -45.1879 H         1 UNK         0.3000 
    145 H145       -0.6042  -23.8313  -42.5421 H         1 UNK         0.0600 
    146 H146        1.6366  -24.5297  -41.7396 H         1 UNK         0.0600 
    147 H147        1.1044  -25.5967  -43.0284 H         1 UNK         0.0600 
    148 H148        2.3045  -24.3539  -43.3633 H         1 UNK         0.0600 
    149 H149        1.6373  -22.1302  -42.4723 H         1 UNK         0.3000 
    150 H150        0.3049  -19.0678  -43.4305 H         1 UNK         0.0600 
    151 H151        0.7816  -19.8626  -40.5093 H         1 UNK         0.0600 
    152 H152       -0.7304  -19.2154  -41.1301 H         1 UNK         0.0600 
    153 H153        0.7183  -18.2241  -41.1654 H         1 UNK         0.0600 
    154 H154        2.6855  -19.5903  -42.0417 H         1 UNK         0.3000 
    155 H155        4.6367  -19.9252  -42.9106 H         1 UNK         0.0600 
    156 H156        4.5735  -21.9753  -45.1902 H         1 UNK         0.0600 
    157 H157        4.4032  -22.3501  -43.4800 H         1 UNK         0.0600 
    158 H158        5.9156  -21.6907  -44.0821 H         1 UNK         0.0600 
    159 H159        5.3870  -19.7085  -45.6636 H         1 UNK         0.3000 
    160 H160        6.5672  -17.0384  -45.6337 H         1 UNK         0.0600 
    161 H161        4.4067  -18.0175  -47.5864 H         1 UNK         0.0600 
    162 H162        5.9863  -18.7550  -47.3306 H         1 UNK         0.0600 
    163 H163        5.8703  -17.1724  -48.0718 H         1 UNK         0.0600 
    164 H164        3.9412  -15.8123  -45.6224 H         1 UNK         0.3000 
    165 H165        5.2166  -12.6396  -45.6070 H         1 UNK         0.0600 
    166 H166        3.6617  -11.9491  -47.4274 H         1 UNK         0.0600 
    167 H167        5.1167  -12.6643  -48.1042 H         1 UNK         0.0600 
    168 H168        3.6254  -13.5978  -48.0511 H         1 UNK         0.0600 
    169 H169        2.5328  -13.7429  -45.8700 H         1 UNK         0.3000 
    170 H170        1.7026  -15.1327  -43.9069 H         1 UNK         0.0600 
    171 H171        2.7049  -15.1000  -41.6370 H         1 UNK         0.0600 
    172 H172        2.1608  -13.4407  -41.3997 H         1 UNK         0.0600 
    173 H173        0.9872  -14.7470  -41.5771 H         1 UNK         0.0600 
    174 H174        0.4504  -12.7274  -43.0189 H         1 UNK         0.3000 
    175 H175       -0.6133  -11.1553  -44.6590 H         1 UNK         0.0600 
    176 H176       -0.6456  -11.4787  -47.1246 H         1 UNK         0.0600 
    177 H177       -1.7445  -12.8433  -46.9555 H         1 UNK         0.0600 
    178 H178       -2.2717  -11.2215  -46.5111 H         1 UNK         0.0600 
    179 H179       -2.6423  -13.2977  -44.7486 H         1 UNK         0.3000 
    180 H180       -3.3387  -13.0005  -41.2222 H         1 UNK         0.0600 
    181 H181       -4.8564  -12.6665  -43.8667 H         1 UNK         0.0600 
    182 H182       -4.7362  -11.4571  -42.5930 H         1 UNK         0.0600 
    183 H183       -5.5738  -12.9710  -42.2871 H         1 UNK         0.0600 
    184 H184       -3.5123  -14.8191  -43.6004 H         1 UNK         0.3000 
    185 H185       -2.3173  -17.5451  -41.7391 H         1 UNK         0.0600 
    186 H186       -4.7307  -17.7010  -41.0827 H         1 UNK         0.0600 
    187 H187       -5.2095  -17.2411  -42.7121 H         1 UNK         0.0600 
    188 H188       -4.3585  -18.7611  -42.4304 H         1 UNK         0.0600 
    189 H189       -3.4334  -17.2435  -44.3843 H         1 UNK         0.3000 
    190 H190       -1.5265  -21.3259  -45.3455 H         1 UNK         0.3000 
    191 H191       -3.8630  -21.1005  -47.1202 H         1 UNK         0.0600 
    192 H192       -3.1101  -19.1535  -45.7715 H         1 UNK         0.0600 
    193 H193       -4.7432  -19.6397  -45.3436 H         1 UNK         0.0600 
    194 H194       -3.4012  -20.0499  -44.2836 H         1 UNK         0.0600 
    195 H195       -2.8888  -22.8468  -44.1670 H         1 UNK         0.3000 
    196 H196       -5.4393  -24.0109  -43.5911 H         1 UNK         0.0600 
    197 H197       -4.1597  -25.5110  -42.1191 H         1 UNK         0.0600 
    198 H198       -3.5453  -23.8740  -41.9457 H         1 UNK         0.0600 
    199 H199       -2.6476  -25.0639  -42.8900 H         1 UNK         0.0600 
    200 H200       -2.6918  -25.0589  -45.6062 H         1 UNK         0.3000 
    201 H201       -3.8643  -27.5221  -46.5362 H         1 UNK         0.0600 
    202 H202       -1.4085  -27.0723  -46.5119 H         1 UNK         0.0600 
    203 H203       -1.6183  -25.7696  -47.6802 H         1 UNK         0.0600 
    204 H204       -1.9523  -27.4347  -48.1422 H         1 UNK         0.0600 
    205 H205       -4.6566  -24.3065  -47.2208 H         1 UNK         0.3000 
    206 H206       -5.9031  -23.1969  -48.6239 H         1 UNK         0.0600 
    207 H207       -7.5243  -25.0925  -48.4007 H         1 UNK         0.0600 
    208 H208       -7.6466  -24.2865  -49.9554 H         1 UNK         0.0600 
    209 H209       -6.8402  -25.8419  -49.8437 H         1 UNK         0.0600 
    210 H210       -3.1295  -24.3496  -49.5063 H         1 UNK         0.3000 
    211 H211       -3.1301  -24.1396  -52.3998 H         1 UNK         0.0600 
    212 H212       -0.9082  -24.2266  -50.2996 H         1 UNK         0.0600 
    213 H213       -0.6135  -24.1864  -52.0357 H         1 UNK         0.0600 
    214 H214       -1.4646  -25.5475  -51.3190 H         1 UNK         0.0600 
    215 H215       -2.5277  -21.9255  -49.6770 H         1 UNK         0.3000 
    216 H216       -1.8009  -19.6845  -51.4011 H         1 UNK         0.0600 
    217 H217       -1.8535  -18.3797  -49.3203 H         1 UNK         0.0600 
    218 H218       -0.9773  -19.8725  -49.0416 H         1 UNK         0.0600 
    219 H219       -2.6277  -19.6963  -48.4509 H         1 UNK         0.0600 
    220 H220       -4.7704  -21.0567  -50.1680 H         1 UNK         0.3000 
    221 H221       -6.4355  -18.7003  -50.5300 H         1 UNK         0.0600 
    222 H222       -7.2293  -21.6364  -50.1473 H         1 UNK         0.0600 
    223 H223       -6.9696  -20.4781  -48.8419 H         1 UNK         0.0600 
    224 H224       -8.2804  -20.2396  -49.9870 H         1 UNK         0.0600 
    225 H225       -5.5477  -21.5639  -52.4351 H         1 UNK         0.3000 
    226 H226       -7.2965  -21.1786  -54.6512 H         1 UNK         0.0600 
    227 H227       -5.6734  -22.7039  -55.7972 H         1 UNK         0.0600 
    228 H228       -4.5325  -22.5066  -54.4714 H         1 UNK         0.0600 
    229 H229       -6.0779  -23.3075  -54.1971 H         1 UNK         0.0600 
    230 H230       -7.0703  -20.0206  -56.5253 H         1 UNK         0.3000 
    231 H231       -5.6667  -17.5932  -56.5163 H         1 UNK         0.0600 
    232 H232       -6.9968  -19.0914  -58.8382 H         1 UNK         0.0600 
    233 H233       -6.5693  -17.3847  -58.8413 H         1 UNK         0.0600 
    234 H234       -7.7951  -17.9730  -57.7311 H         1 UNK         0.0600 
    235 H235       -4.5387  -20.6937  -57.5486 H         1 UNK         0.3000 
    236 H236       -2.4760  -19.8945  -59.3736 H         1 UNK         0.0600 
    237 H237       -3.3803  -22.2064  -59.2874 H         1 UNK         0.0600 
    238 H238       -1.6521  -22.2211  -58.9761 H         1 UNK         0.0600 
    239 H239       -2.7812  -22.4070  -57.6398 H         1 UNK         0.0600 
    240 H240       -2.6894  -19.9023  -55.8588 H         1 UNK         0.3000 
    241 H241       -1.3637  -19.4579  -54.1970 H         1 UNK         0.0600 
    242 H242       -0.8383  -21.6774  -53.8107 H         1 UNK         0.3800 
    243 H243        0.7732  -22.2757  -54.1562 H         1 UNK         0.3800 
    244 H244        0.2214  -17.7982  -56.2039 H         1 UNK         0.0800 
    245 H245       -1.1295  -17.2570  -55.2507 H         1 UNK         0.0800 
    246 H246       -0.4847  -16.2391  -52.3459 H         1 UNK         0.0800 
    247 H247       -1.0801  -17.8536  -52.6082 H         1 UNK         0.0800 
@<TRIPOS>BOND
     1    1    2 1    
     2    1  127 1    
     3    1  128 1    
     4    1  129 1    
     5    2    3 2    
     6    2    4 am   BACKBONE|DICT|INTERRES
     7    4    5 1    
     8    4  130 1    
     9    5    6 1    
    10    5   65 1    
    11    5  131 1    
    12    6    7 1    
    13    6  132 1    
    14    6  133 1    
    15    7    8 1    
    16    8    9 1    
    17    8  134 1    
    18    8  135 1    
    19    9   10 ar   
    20    9   14 ar   
    21   10   11 ar   
    22   10  136 1    
    23   11   12 ar   
    24   11  126 1    
    25   12   13 ar   
    26   12  137 1    
    27   13   14 ar   
    28   13   15 1    
    29   14  138 1    
    30   15   16 1    
    31   15  139 1    
    32   15  140 1    
    33   16   17 1    
    34   17   18 1    
    35   17  141 1    
    36   17  142 1    
    37   18   19 1    
    38   18   67 1    
    39   18  143 1    
    40   19   20 am   BACKBONE|DICT|INTERRES
    41   19  144 1    
    42   20   21 2    
    43   20   22 1    
    44   22   23 1    
    45   22   24 1    
    46   22  145 1    
    47   23  146 1    
    48   23  147 1    
    49   23  148 1    
    50   24   25 am   BACKBONE|DICT|INTERRES
    51   24  149 1    
    52   25   26 2    
    53   25   27 1    
    54   27   28 1    
    55   27   29 1    
    56   27  150 1    
    57   28  151 1    
    58   28  152 1    
    59   28  153 1    
    60   29   30 am   BACKBONE|DICT|INTERRES
    61   29  154 1    
    62   30   31 2    
    63   30   32 1    
    64   32   33 1    
    65   32   34 1    
    66   32  155 1    
    67   33  156 1    
    68   33  157 1    
    69   33  158 1    
    70   34   35 am   BACKBONE|DICT|INTERRES
    71   34  159 1    
    72   35   36 2    
    73   35   37 1    
    74   37   38 1    
    75   37   39 1    
    76   37  160 1    
    77   38  161 1    
    78   38  162 1    
    79   38  163 1    
    80   39   40 am   BACKBONE|DICT|INTERRES
    81   39  164 1    
    82   40   41 2    
    83   40   42 1    
    84   42   43 1    
    85   42   44 1    
    86   42  165 1    
    87   43  166 1    
    88   43  167 1    
    89   43  168 1    
    90   44   45 am   BACKBONE|DICT|INTERRES
    91   44  169 1    
    92   45   46 2    
    93   45   47 1    
    94   47   48 1    
    95   47   49 1    
    96   47  170 1    
    97   48  171 1    
    98   48  172 1    
    99   48  173 1    
   100   49   50 am   BACKBONE|DICT|INTERRES
   101   49  174 1    
   102   50   51 2    
   103   50   52 1    
   104   52   53 1    
   105   52   54 1    
   106   52  175 1    
   107   53  176 1    
   108   53  177 1    
   109   53  178 1    
   110   54   55 am   BACKBONE|DICT|INTERRES
   111   54  179 1    
   112   55   56 2    
   113   55   57 1    
   114   57   58 1    
   115   57   59 1    
   116   57  180 1    
   117   58  181 1    
   118   58  182 1    
   119   58  183 1    
   120   59   60 am   BACKBONE|DICT|INTERRES
   121   59  184 1    
   122   60   61 2    
   123   60   62 1    
   124   62   63 1    
   125   62   64 1    
   126   62  185 1    
   127   63  186 1    
   128   63  187 1    
   129   63  188 1    
   130   64   65 am   BACKBONE|DICT|INTERRES
   131   64  189 1    
   132   65   66 2    
   133   67   68 2    
   134   67   69 am   BACKBONE|DICT|INTERRES
   135   69   70 1    
   136   69  190 1    
   137   70   71 1    
   138   70   72 1    
   139   70  191 1    
   140   71  192 1    
   141   71  193 1    
   142   71  194 1    
   143   72   73 2    
   144   72   74 am   BACKBONE|DICT|INTERRES
   145   74   75 1    
   146   74  195 1    
   147   75   76 1    
   148   75   77 1    
   149   75  196 1    
   150   76  197 1    
   151   76  198 1    
   152   76  199 1    
   153   77   78 2    
   154   77   79 am   BACKBONE|DICT|INTERRES
   155   79   80 1    
   156   79  200 1    
   157   80   81 1    
   158   80   82 1    
   159   80  201 1    
   160   81  202 1    
   161   81  203 1    
   162   81  204 1    
   163   82   83 2    
   164   82   84 am   BACKBONE|DICT|INTERRES
   165   84   85 1    
   166   84  205 1    
   167   85   86 1    
   168   85   87 1    
   169   85  206 1    
   170   86  207 1    
   171   86  208 1    
   172   86  209 1    
   173   87   88 2    
   174   87   89 am   BACKBONE|DICT|INTERRES
   175   89   90 1    
   176   89  210 1    
   177   90   91 1    
   178   90   92 1    
   179   90  211 1    
   180   91  212 1    
   181   91  213 1    
   182   91  214 1    
   183   92   93 2    
   184   92   94 am   BACKBONE|DICT|INTERRES
   185   94   95 1    
   186   94  215 1    
   187   95   96 1    
   188   95   97 1    
   189   95  216 1    
   190   96  217 1    
   191   96  218 1    
   192   96  219 1    
   193   97   98 2    
   194   97   99 am   BACKBONE|DICT|INTERRES
   195   99  100 1    
   196   99  220 1    
   197  100  101 1    
   198  100  102 1    
   199  100  221 1    
   200  101  222 1    
   201  101  223 1    
   202  101  224 1    
   203  102  103 2    
   204  102  104 am   BACKBONE|DICT|INTERRES
   205  104  105 1    
   206  104  225 1    
   207  105  106 1    
   208  105  107 1    
   209  105  226 1    
   210  106  227 1    
   211  106  228 1    
   212  106  229 1    
   213  107  108 2    
   214  107  109 am   BACKBONE|DICT|INTERRES
   215  109  110 1    
   216  109  230 1    
   217  110  111 1    
   218  110  112 1    
   219  110  231 1    
   220  111  232 1    
   221  111  233 1    
   222  111  234 1    
   223  112  113 2    
   224  112  114 am   BACKBONE|DICT|INTERRES
   225  114  115 1    
   226  114  235 1    
   227  115  116 1    
   228  115  117 1    
   229  115  236 1    
   230  116  237 1    
   231  116  238 1    
   232  116  239 1    
   233  117  118 2    
   234  117  119 am   BACKBONE|DICT|INTERRES
   235  119  120 1    
   236  119  240 1    
   237  120  121 1    
   238  120  124 1    
   239  120  241 1    
   240  121  122 am   BACKBONE|DICT|INTERRES
   241  121  123 2    
   242  122  242 1    
   243  122  243 1    
   244  124  125 1    
   245  124  244 1    
   246  124  245 1    
   247  125  126 1    
   248  126  246 1    
   249  126  247 1    
@<TRIPOS>SUBSTRUCTURE
     1 UNK         1 GROUP             0       ****    0 ROOT    
