@<TRIPOS>MOLECULE
3R540
247   249    1
SMALL
USER_CHARGES


@<TRIPOS>ATOM
      1 CA         -0.5312  -12.2397  -47.6663 C.3       0 UNK        -0.1800 
      2 C           0.7970  -12.0096  -48.3746 C.2       0 UNK         0.5000 
      3 O           0.8093  -11.6893  -49.5630 O.2       0 UNK        -0.5000 
      4 N           1.9054  -12.1698  -47.6458 N.am      1 UNK        -0.5000 
      5 CA          3.2802  -11.9505  -48.1027 C.3       1 UNK         0.1400 
      6 C6          4.0455  -13.2772  -48.3676 C.3       23 UNK        -0.0398 
      7 S7          3.2605  -14.3519  -49.6147 S.3       23 UNK        -0.2404 
      8 C8          2.4691  -15.5531  -48.5067 C.3       23 UNK        -0.0205 
      9 C9          1.5113  -16.4693  -49.2455 C.ar      23 UNK        -0.0193 
     10 C10         0.2192  -16.0332  -49.5493 C.ar      23 UNK        -0.1150 
     11 C11        -0.6924  -16.8975  -50.1595 C.ar      23 UNK        -0.0193 
     12 C12        -0.3088  -18.2103  -50.4486 C.ar      23 UNK        -0.1150 
     13 C13         0.9851  -18.6558  -50.1643 C.ar      23 UNK        -0.0193 
     14 C14         1.8978  -17.7691  -49.5805 C.ar      23 UNK        -0.1150 
     15 C15         1.3655  -20.1005  -50.4817 C.3       23 UNK        -0.0205 
     16 S16         2.4202  -20.9060  -49.2236 S.3       23 UNK        -0.2404 
     17 C17         1.5265  -20.5585  -47.6690 C.3       23 UNK        -0.0398 
     18 CA          0.6600  -21.7305  -47.1635 C.3       11 UNK         0.1400 
     19 N           0.3228  -21.5556  -45.7509 N.am      11 UNK        -0.5000 
     20 C          -0.2567  -22.4808  -44.9767 C.2       10 UNK         0.5000 
     21 O          -0.5274  -23.6192  -45.3574 O.2       10 UNK        -0.5000 
     22 CA         -0.6426  -22.0404  -43.5533 C.3       10 UNK         0.1400 
     23 CB          0.5734  -22.0918  -42.6168 C.3       10 UNK        -0.1800 
     24 N          -1.2340  -20.7007  -43.5237 N.am      10 UNK        -0.5000 
     25 C          -2.3908  -20.3751  -44.1185 C.2       9 UNK         0.5000 
     26 O          -3.1022  -21.1858  -44.7115 O.2       9 UNK        -0.5000 
     27 CA         -2.8064  -18.8933  -44.0821 C.3       9 UNK         0.1400 
     28 CB         -3.4413  -18.5386  -42.7295 C.3       9 UNK        -0.1800 
     29 N          -1.6976  -17.9801  -44.3636 N.am      9 UNK        -0.5000 
     30 C          -1.0284  -17.9258  -45.5245 C.2       8 UNK         0.5000 
     31 O          -1.2901  -18.6319  -46.4965 O.2       8 UNK        -0.5000 
     32 CA          0.1714  -16.9625  -45.5931 C.3       8 UNK         0.1400 
     33 CB         -0.2950  -15.5119  -45.7910 C.3       8 UNK        -0.1800 
     34 N           1.0246  -17.0488  -44.4073 N.am      8 UNK        -0.5000 
     35 C           1.6745  -18.1562  -44.0193 C.2       7 UNK         0.5000 
     36 O           1.6698  -19.2122  -44.6510 O.2       7 UNK        -0.5000 
     37 CA          2.3985  -18.0915  -42.6647 C.3       7 UNK         0.1400 
     38 CB          3.7628  -17.3956  -42.7942 C.3       7 UNK        -0.1800 
     39 N           1.5855  -17.4190  -41.6511 N.am      7 UNK        -0.5000 
     40 C           0.4514  -17.9213  -41.1401 C.2       6 UNK         0.5000 
     41 O          -0.0032  -19.0254  -41.4378 O.2       6 UNK        -0.5000 
     42 CA         -0.3274  -17.0186  -40.1661 C.3       6 UNK         0.1400 
     43 CB          0.2357  -17.1451  -38.7429 C.3       6 UNK        -0.1800 
     44 N          -0.3098  -15.6127  -40.5717 N.am      6 UNK        -0.5000 
     45 C          -0.8943  -15.1336  -41.6795 C.2       5 UNK         0.5000 
     46 O          -1.5589  -15.8214  -42.4524 O.2       5 UNK        -0.5000 
     47 CA         -0.6456  -13.6489  -42.0048 C.3       5 UNK         0.1400 
     48 CB         -1.6978  -12.7615  -41.3239 C.3       5 UNK        -0.1800 
     49 N           0.6957  -13.2055  -41.6139 N.am      5 UNK        -0.5000 
     50 C           1.8274  -13.6621  -42.1639 C.2       4 UNK         0.5000 
     51 O           1.8602  -14.4794  -43.0889 O.2       4 UNK        -0.5000 
     52 CA          3.1364  -13.1757  -41.5324 C.3       4 UNK         0.1400 
     53 CB          3.4930  -14.0339  -40.3039 C.3       4 UNK        -0.1800 
     54 N           4.1955  -13.2634  -42.5298 N.am      4 UNK        -0.5000 
     55 C           5.3556  -12.5998  -42.4931 C.2       3 UNK         0.5000 
     56 O           5.6811  -11.8388  -41.5807 O.2       3 UNK        -0.5000 
     57 CA          6.2932  -12.7731  -43.6951 C.3       3 UNK         0.1400 
     58 CB          6.2019  -14.1608  -44.3635 C.3       3 UNK        -0.1800 
     59 N           5.9507  -11.7395  -44.6607 N.am      3 UNK        -0.5000 
     60 C           6.7969  -11.0477  -45.4275 C.2       2 UNK         0.5000 
     61 O           8.0179  -11.2155  -45.4207 O.2       2 UNK        -0.5000 
     62 CA          6.1468  -10.0208  -46.3855 C.3       2 UNK         0.1400 
     63 CB          7.1851   -9.2176  -47.1896 C.3       2 UNK        -0.1800 
     64 N           5.2190  -10.6625  -47.3235 N.am      2 UNK        -0.5000 
     65 C           4.0058  -11.1389  -47.0135 C.2       1 UNK         0.5000 
     66 O           3.4937  -11.0073  -45.8959 O.2       1 UNK        -0.5000 
     67 C          -0.6005  -21.9385  -48.0305 C.2       11 UNK         0.5000 
     68 O          -0.6163  -22.8414  -48.8657 O.2       11 UNK        -0.5000 
     69 N          -1.6506  -21.1395  -47.7918 N.am      12 UNK        -0.5000 
     70 CA         -2.9513  -21.2621  -48.4507 C.3       12 UNK         0.1400 
     71 CB         -3.8463  -20.0775  -48.0576 C.3       12 UNK        -0.1800 
     72 C          -3.6532  -22.5994  -48.1544 C.2       12 UNK         0.5000 
     73 O          -4.2240  -23.1967  -49.0679 O.2       12 UNK        -0.5000 
     74 N          -3.5672  -23.0619  -46.8992 N.am      13 UNK        -0.5000 
     75 CA         -4.0397  -24.3765  -46.4675 C.3       13 UNK         0.1400 
     76 CB         -3.9603  -24.4878  -44.9376 C.3       13 UNK        -0.1800 
     77 C          -3.2718  -25.5205  -47.1536 C.2       13 UNK         0.5000 
     78 O          -3.9027  -26.4377  -47.6822 O.2       13 UNK        -0.5000 
     79 N          -1.9339  -25.4150  -47.1766 N.am      14 UNK        -0.5000 
     80 CA         -1.0234  -26.3505  -47.8425 C.3       14 UNK         0.1400 
     81 CB          0.4313  -25.9807  -47.5172 C.3       14 UNK        -0.1800 
     82 C          -1.2392  -26.4355  -49.3655 C.2       14 UNK         0.5000 
     83 O          -1.1244  -27.5236  -49.9306 O.2       14 UNK        -0.5000 
     84 N          -1.6221  -25.3161  -49.9952 N.am      15 UNK        -0.5000 
     85 CA         -2.0508  -25.2047  -51.3937 C.3       15 UNK         0.1400 
     86 CB         -1.9196  -23.7357  -51.8386 C.3       15 UNK        -0.1800 
     87 C          -3.4721  -25.7697  -51.6357 C.2       15 UNK         0.5000 
     88 O          -4.2751  -25.1437  -52.3307 O.2       15 UNK        -0.5000 
     89 N          -3.7521  -26.9413  -51.0451 N.am      16 UNK        -0.5000 
     90 CA         -4.9886  -27.7259  -51.0942 C.3       16 UNK         0.1400 
     91 CB         -5.0830  -28.4733  -52.4384 C.3       16 UNK        -0.1800 
     92 C          -6.2528  -26.9113  -50.7489 C.2       16 UNK         0.5000 
     93 O          -7.2680  -27.0251  -51.4380 O.2       16 UNK        -0.5000 
     94 N          -6.1506  -26.1007  -49.6842 N.am      17 UNK        -0.5000 
     95 CA         -7.1645  -25.1648  -49.1882 C.3       17 UNK         0.1400 
     96 CB         -8.3658  -25.9269  -48.5910 C.3       17 UNK        -0.1800 
     97 C          -7.5666  -24.1215  -50.2517 C.2       17 UNK         0.5000 
     98 O          -8.7438  -24.0083  -50.5998 O.2       17 UNK        -0.5000 
     99 N          -6.5588  -23.3851  -50.7407 N.am      18 UNK        -0.5000 
    100 CA        -6.6367  -22.3293  -51.7538 C.3       18 UNK         0.1400 
    101 CB        -7.4144  -21.1138  -51.2064 C.3       18 UNK        -0.1800 
    102 C         -7.1736  -22.8346  -53.1095 C.2       18 UNK         0.5000 
    103 O         -8.1113  -22.2585  -53.6665 O.2       18 UNK        -0.5000 
    104 N         -6.5742  -23.9188  -53.6182 N.am      19 UNK        -0.5000 
    105 CA        -6.8523  -24.4583  -54.9465 C.3       19 UNK         0.1400 
    106 CB        -6.4154  -25.9291  -55.0018 C.3       19 UNK        -0.1800 
    107 C         -6.1209  -23.6149  -56.0040 C.2       19 UNK         0.5000 
    108 O         -4.8953  -23.7016  -56.1067 O.2       19 UNK        -0.5000 
    109 N         -6.8781  -22.7834  -56.7335 N.am      20 UNK        -0.5000 
    110 CA        -6.4667  -21.8234  -57.7722 C.3       20 UNK         0.1400 
    111 CB        -5.7630  -22.5266  -58.9488 C.3       20 UNK        -0.1800 
    112 C         -5.6344  -20.6314  -57.2527 C.2       20 UNK         0.5000 
    113 O         -5.8945  -19.4935  -57.6472 O.2       20 UNK        -0.5000 
    114 N         -4.6696  -20.9035  -56.3685 N.am      21 UNK        -0.5000 
    115 CA        -3.9085  -19.9251  -55.5960 C.3       21 UNK         0.1400 
    116 CB        -2.7016  -20.6453  -54.9696 C.3       21 UNK        -0.1800 
    117 C         -4.7704  -19.2662  -54.5002 C.2       21 UNK         0.5000 
    118 O         -5.8681  -19.7400  -54.1999 O.2       21 UNK        -0.5000 
    119 N         -4.2323  -18.2057  -53.8873 N.am      22 UNK        -0.5000 
    120 CA        -4.8278  -17.5058  -52.7341 C.3       22 UNK         0.1400 
    121 C         -4.9574  -18.3518  -51.4324 C.2       22 UNK         0.5000 
    122 N         -4.2810  -19.4869  -51.3068 N.am      22 UNK        -0.7600 
    123 O         -5.6849  -17.9688  -50.5213 O.2       22 UNK        -0.5000 
    124 C124       -4.1251  -16.1487  -52.4554 C.3       23 UNK        -0.0398 
    125 S125       -2.3073  -16.2715  -52.3018 S.3       23 UNK        -0.2404 
    126 C126       -2.0964  -16.4276  -50.4996 C.3       23 UNK        -0.0205 
    127 H127       -0.3924  -12.4916  -46.6146 H         1 UNK         0.0600 
    128 H128       -1.0756  -13.0551  -48.1422 H         1 UNK         0.0600 
    129 H129       -1.1460  -11.3413  -47.7209 H         1 UNK         0.0600 
    130 H130        1.8310  -12.3299  -46.6498 H         1 UNK         0.3000 
    131 H131        3.2806  -11.3471  -49.0128 H         1 UNK         0.0600 
    132 H132        5.0538  -13.0668  -48.7278 H         1 UNK         0.0800 
    133 H133        4.1762  -13.8385  -47.4402 H         1 UNK         0.0800 
    134 H134        1.9229  -15.0205  -47.7289 H         1 UNK         0.0800 
    135 H135        3.2377  -16.1358  -47.9963 H         1 UNK         0.0800 
    136 H136       -0.0748  -15.0227  -49.3044 H         1 UNK         0.1150 
    137 H137       -1.0229  -18.8819  -50.9044 H         1 UNK         0.1150 
    138 H138        2.9003  -18.1014  -49.3516 H         1 UNK         0.1150 
    139 H139        0.4681  -20.7078  -50.6107 H         1 UNK         0.0800 
    140 H140        1.8877  -20.1195  -51.4388 H         1 UNK         0.0800 
    141 H141        0.9364  -19.6451  -47.7368 H         1 UNK         0.0800 
    142 H142        2.3019  -20.3429  -46.9333 H         1 UNK         0.0800 
    143 H143        1.2568  -22.6424  -47.2312 H         1 UNK         0.0600 
    144 H144        0.5513  -20.6538  -45.3422 H         1 UNK         0.3000 
    145 H145       -1.3892  -22.7440  -43.1794 H         1 UNK         0.0600 
    146 H146        0.2886  -21.8627  -41.5898 H         1 UNK         0.0600 
    147 H147        1.0244  -23.0849  -42.6159 H         1 UNK         0.0600 
    148 H148        1.3436  -21.3804  -42.9160 H         1 UNK         0.0600 
    149 H149       -0.7262  -19.9887  -43.0071 H         1 UNK         0.3000 
    150 H150       -3.5606  -18.7432  -44.8570 H         1 UNK         0.0600 
    151 H151       -4.2827  -19.1964  -42.5082 H         1 UNK         0.0600 
    152 H152       -3.8189  -17.5160  -42.7280 H         1 UNK         0.0600 
    153 H153       -2.7266  -18.6321  -41.9117 H         1 UNK         0.0600 
    154 H154       -1.4535  -17.3237  -43.6270 H         1 UNK         0.3000 
    155 H155        0.7777  -17.2469  -46.4553 H         1 UNK         0.0600 
    156 H156       -0.9660  -15.1893  -44.9954 H         1 UNK         0.0600 
    157 H157       -0.8316  -15.4033  -46.7340 H         1 UNK         0.0600 
    158 H158        0.5485  -14.8223  -45.8102 H         1 UNK         0.0600 
    159 H159        1.1149  -16.2094  -43.8446 H         1 UNK         0.3000 
    160 H160        2.5743  -19.1166  -42.3314 H         1 UNK         0.0600 
    161 H161        4.2911  -17.3821  -41.8409 H         1 UNK         0.0600 
    162 H162        3.6681  -16.3666  -43.1393 H         1 UNK         0.0600 
    163 H163        4.3978  -17.9200  -43.5092 H         1 UNK         0.0600 
    164 H164        1.8639  -16.4862  -41.3896 H         1 UNK         0.3000 
    165 H165       -1.3658  -17.3564  -40.1550 H         1 UNK         0.0600 
    166 H166       -0.3559  -16.5676  -38.0323 H         1 UNK         0.0600 
    167 H167        0.2202  -18.1834  -38.4087 H         1 UNK         0.0600 
    168 H168        1.2674  -16.7962  -38.6833 H         1 UNK         0.0600 
    169 H169        0.2089  -14.9749  -39.9868 H         1 UNK         0.3000 
    170 H170       -0.7418  -13.5254  -43.0855 H         1 UNK         0.0600 
    171 H171       -2.7060  -13.0598  -41.6146 H         1 UNK         0.0600 
    172 H172       -1.6374  -12.8242  -40.2367 H         1 UNK         0.0600 
    173 H173       -1.5752  -11.7162  -41.6080 H         1 UNK         0.0600 
    174 H174        0.7480  -12.5371  -40.8584 H         1 UNK         0.3000 
    175 H175        3.0101  -12.1333  -41.2321 H         1 UNK         0.0600 
    176 H176        3.6564  -15.0772  -40.5761 H         1 UNK         0.0600 
    177 H177        4.3990  -13.6726  -39.8174 H         1 UNK         0.0600 
    178 H178        2.6974  -14.0075  -39.5584 H         1 UNK         0.0600 
    179 H179        3.9625  -13.8392  -43.3289 H         1 UNK         0.3000 
    180 H180        7.3129  -12.6265  -43.3326 H         1 UNK         0.0600 
    181 H181        5.2370  -14.3256  -44.8443 H         1 UNK         0.0600 
    182 H182        6.3534  -14.9583  -43.6348 H         1 UNK         0.0600 
    183 H183        6.9707  -14.2723  -45.1283 H         1 UNK         0.0600 
    184 H184        4.9616  -11.5200  -44.7462 H         1 UNK         0.3000 
    185 H185        5.5879   -9.3134  -45.7690 H         1 UNK         0.0600 
    186 H186        7.8758   -8.6959  -46.5259 H         1 UNK         0.0600 
    187 H187        7.7772   -9.8612  -47.8414 H         1 UNK         0.0600 
    188 H188        6.7036   -8.4626  -47.8114 H         1 UNK         0.0600 
    189 H189        5.5818  -10.8224  -48.2524 H         1 UNK         0.3000 
    190 H190       -1.5474  -20.3709  -47.1331 H         1 UNK         0.3000 
    191 H191       -2.7753  -21.2172  -49.5268 H         1 UNK         0.0600 
    192 H192       -3.9905  -20.0238  -46.9791 H         1 UNK         0.0600 
    193 H193       -4.8351  -20.1579  -48.5109 H         1 UNK         0.0600 
    194 H194       -3.4118  -19.1311  -48.3811 H         1 UNK         0.0600 
    195 H195       -3.1390  -22.4734  -46.1903 H         1 UNK         0.3000 
    196 H196       -5.0894  -24.4620  -46.7493 H         1 UNK         0.0600 
    197 H197       -4.3405  -25.4516  -44.5972 H         1 UNK         0.0600 
    198 H198       -4.5578  -23.7135  -44.4560 H         1 UNK         0.0600 
    199 H199       -2.9377  -24.3922  -44.5742 H         1 UNK         0.0600 
    200 H200       -1.4988  -24.6397  -46.6837 H         1 UNK         0.3000 
    201 H201       -1.2191  -27.3423  -47.4301 H         1 UNK         0.0600 
    202 H202        0.6102  -25.9912  -46.4420 H         1 UNK         0.0600 
    203 H203        0.6883  -24.9895  -47.8897 H         1 UNK         0.0600 
    204 H204        1.1249  -26.6907  -47.9692 H         1 UNK         0.0600 
    205 H205       -1.6303  -24.4536  -49.4597 H         1 UNK         0.3000 
    206 H206       -1.3689  -25.7969  -52.0068 H         1 UNK         0.0600 
    207 H207       -0.9059  -23.3653  -51.6852 H         1 UNK         0.0600 
    208 H208       -2.1482  -23.6232  -52.8991 H         1 UNK         0.0600 
    209 H209       -2.5991  -23.0874  -51.2852 H         1 UNK         0.0600 
    210 H210       -3.0005  -27.3544  -50.5029 H         1 UNK         0.3000 
    211 H211       -4.9015  -28.4790  -50.3098 H         1 UNK         0.0600 
    212 H212       -5.1139  -27.7837  -53.2793 H         1 UNK         0.0600 
    213 H213       -5.9770  -29.0961  -52.4858 H         1 UNK         0.0600 
    214 H214       -4.2250  -29.1301  -52.5811 H         1 UNK         0.0600 
    215 H215       -5.2693  -26.0990  -49.1802 H         1 UNK         0.3000 
    216 H216       -6.7007  -24.6048  -48.3770 H         1 UNK         0.0600 
    217 H217       -9.0769  -25.2364  -48.1363 H         1 UNK         0.0600 
    218 H218       -8.0444  -26.6200  -47.8135 H         1 UNK         0.0600 
    219 H219       -8.9044  -26.4982  -49.3476 H         1 UNK         0.0600 
    220 H220       -5.6308  -23.5500  -50.3592 H         1 UNK         0.3000 
    221 H221       -5.6110  -22.0068  -51.9374 H         1 UNK         0.0600 
    222 H222       -8.4631  -21.3481  -51.0230 H         1 UNK         0.0600 
    223 H223       -6.9812  -20.7565  -50.2722 H         1 UNK         0.0600 
    224 H224       -7.3855  -20.2843  -51.9135 H         1 UNK         0.0600 
    225 H225       -5.7957  -24.3391  -53.1139 H         1 UNK         0.3000 
    226 H226       -7.9275  -24.4240  -55.1342 H         1 UNK         0.0600 
    227 H227       -6.9498  -26.5237  -54.2608 H         1 UNK         0.0600 
    228 H228       -6.6244  -26.3615  -55.9809 H         1 UNK         0.0600 
    229 H229       -5.3463  -26.0374  -54.8160 H         1 UNK         0.0600 
    230 H230       -7.8623  -22.7472  -56.5052 H         1 UNK         0.3000 
    231 H231       -7.3961  -21.4025  -58.1590 H         1 UNK         0.0600 
    232 H232       -6.3797  -23.3283  -59.3550 H         1 UNK         0.0600 
    233 H233       -4.8042  -22.9554  -58.6566 H         1 UNK         0.0600 
    234 H234       -5.5688  -21.8233  -59.7594 H         1 UNK         0.0600 
    235 H235       -4.5500  -21.8799  -56.1125 H         1 UNK         0.3000 
    236 H236       -3.5504  -19.1460  -56.2719 H         1 UNK         0.0600 
    237 H237       -2.0651  -19.9524  -54.4180 H         1 UNK         0.0600 
    238 H238       -3.0163  -21.4275  -54.2769 H         1 UNK         0.0600 
    239 H239       -2.0807  -21.1103  -55.7357 H         1 UNK         0.0600 
    240 H240       -3.3176  -17.8801  -54.1655 H         1 UNK         0.3000 
    241 H241       -5.8558  -17.2728  -53.0181 H         1 UNK         0.0600 
    242 H242       -4.3905  -20.0191  -50.4627 H         1 UNK         0.3800 
    243 H243       -3.6750  -19.8050  -52.0438 H         1 UNK         0.3800 
    244 H244       -4.3317  -15.4689  -53.2829 H         1 UNK         0.0800 
    245 H245       -4.5399  -15.6591  -51.5722 H         1 UNK         0.0800 
    246 H246       -2.3132  -15.4683  -50.0273 H         1 UNK         0.0800 
    247 H247       -2.8096  -17.1420  -50.0897 H         1 UNK         0.0800 
@<TRIPOS>BOND
     1    1    2 1    
     2    1  127 1    
     3    1  128 1    
     4    1  129 1    
     5    2    3 2    
     6    2    4 am   BACKBONE|DICT|INTERRES
     7    4    5 1    
     8    4  130 1    
     9    5    6 1    
    10    5   65 1    
    11    5  131 1    
    12    6    7 1    
    13    6  132 1    
    14    6  133 1    
    15    7    8 1    
    16    8    9 1    
    17    8  134 1    
    18    8  135 1    
    19    9   10 ar   
    20    9   14 ar   
    21   10   11 ar   
    22   10  136 1    
    23   11   12 ar   
    24   11  126 1    
    25   12   13 ar   
    26   12  137 1    
    27   13   14 ar   
    28   13   15 1    
    29   14  138 1    
    30   15   16 1    
    31   15  139 1    
    32   15  140 1    
    33   16   17 1    
    34   17   18 1    
    35   17  141 1    
    36   17  142 1    
    37   18   19 1    
    38   18   67 1    
    39   18  143 1    
    40   19   20 am   BACKBONE|DICT|INTERRES
    41   19  144 1    
    42   20   21 2    
    43   20   22 1    
    44   22   23 1    
    45   22   24 1    
    46   22  145 1    
    47   23  146 1    
    48   23  147 1    
    49   23  148 1    
    50   24   25 am   BACKBONE|DICT|INTERRES
    51   24  149 1    
    52   25   26 2    
    53   25   27 1    
    54   27   28 1    
    55   27   29 1    
    56   27  150 1    
    57   28  151 1    
    58   28  152 1    
    59   28  153 1    
    60   29   30 am   BACKBONE|DICT|INTERRES
    61   29  154 1    
    62   30   31 2    
    63   30   32 1    
    64   32   33 1    
    65   32   34 1    
    66   32  155 1    
    67   33  156 1    
    68   33  157 1    
    69   33  158 1    
    70   34   35 am   BACKBONE|DICT|INTERRES
    71   34  159 1    
    72   35   36 2    
    73   35   37 1    
    74   37   38 1    
    75   37   39 1    
    76   37  160 1    
    77   38  161 1    
    78   38  162 1    
    79   38  163 1    
    80   39   40 am   BACKBONE|DICT|INTERRES
    81   39  164 1    
    82   40   41 2    
    83   40   42 1    
    84   42   43 1    
    85   42   44 1    
    86   42  165 1    
    87   43  166 1    
    88   43  167 1    
    89   43  168 1    
    90   44   45 am   BACKBONE|DICT|INTERRES
    91   44  169 1    
    92   45   46 2    
    93   45   47 1    
    94   47   48 1    
    95   47   49 1    
    96   47  170 1    
    97   48  171 1    
    98   48  172 1    
    99   48  173 1    
   100   49   50 am   BACKBONE|DICT|INTERRES
   101   49  174 1    
   102   50   51 2    
   103   50   52 1    
   104   52   53 1    
   105   52   54 1    
   106   52  175 1    
   107   53  176 1    
   108   53  177 1    
   109   53  178 1    
   110   54   55 am   BACKBONE|DICT|INTERRES
   111   54  179 1    
   112   55   56 2    
   113   55   57 1    
   114   57   58 1    
   115   57   59 1    
   116   57  180 1    
   117   58  181 1    
   118   58  182 1    
   119   58  183 1    
   120   59   60 am   BACKBONE|DICT|INTERRES
   121   59  184 1    
   122   60   61 2    
   123   60   62 1    
   124   62   63 1    
   125   62   64 1    
   126   62  185 1    
   127   63  186 1    
   128   63  187 1    
   129   63  188 1    
   130   64   65 am   BACKBONE|DICT|INTERRES
   131   64  189 1    
   132   65   66 2    
   133   67   68 2    
   134   67   69 am   BACKBONE|DICT|INTERRES
   135   69   70 1    
   136   69  190 1    
   137   70   71 1    
   138   70   72 1    
   139   70  191 1    
   140   71  192 1    
   141   71  193 1    
   142   71  194 1    
   143   72   73 2    
   144   72   74 am   BACKBONE|DICT|INTERRES
   145   74   75 1    
   146   74  195 1    
   147   75   76 1    
   148   75   77 1    
   149   75  196 1    
   150   76  197 1    
   151   76  198 1    
   152   76  199 1    
   153   77   78 2    
   154   77   79 am   BACKBONE|DICT|INTERRES
   155   79   80 1    
   156   79  200 1    
   157   80   81 1    
   158   80   82 1    
   159   80  201 1    
   160   81  202 1    
   161   81  203 1    
   162   81  204 1    
   163   82   83 2    
   164   82   84 am   BACKBONE|DICT|INTERRES
   165   84   85 1    
   166   84  205 1    
   167   85   86 1    
   168   85   87 1    
   169   85  206 1    
   170   86  207 1    
   171   86  208 1    
   172   86  209 1    
   173   87   88 2    
   174   87   89 am   BACKBONE|DICT|INTERRES
   175   89   90 1    
   176   89  210 1    
   177   90   91 1    
   178   90   92 1    
   179   90  211 1    
   180   91  212 1    
   181   91  213 1    
   182   91  214 1    
   183   92   93 2    
   184   92   94 am   BACKBONE|DICT|INTERRES
   185   94   95 1    
   186   94  215 1    
   187   95   96 1    
   188   95   97 1    
   189   95  216 1    
   190   96  217 1    
   191   96  218 1    
   192   96  219 1    
   193   97   98 2    
   194   97   99 am   BACKBONE|DICT|INTERRES
   195   99  100 1    
   196   99  220 1    
   197  100  101 1    
   198  100  102 1    
   199  100  221 1    
   200  101  222 1    
   201  101  223 1    
   202  101  224 1    
   203  102  103 2    
   204  102  104 am   BACKBONE|DICT|INTERRES
   205  104  105 1    
   206  104  225 1    
   207  105  106 1    
   208  105  107 1    
   209  105  226 1    
   210  106  227 1    
   211  106  228 1    
   212  106  229 1    
   213  107  108 2    
   214  107  109 am   BACKBONE|DICT|INTERRES
   215  109  110 1    
   216  109  230 1    
   217  110  111 1    
   218  110  112 1    
   219  110  231 1    
   220  111  232 1    
   221  111  233 1    
   222  111  234 1    
   223  112  113 2    
   224  112  114 am   BACKBONE|DICT|INTERRES
   225  114  115 1    
   226  114  235 1    
   227  115  116 1    
   228  115  117 1    
   229  115  236 1    
   230  116  237 1    
   231  116  238 1    
   232  116  239 1    
   233  117  118 2    
   234  117  119 am   BACKBONE|DICT|INTERRES
   235  119  120 1    
   236  119  240 1    
   237  120  121 1    
   238  120  124 1    
   239  120  241 1    
   240  121  122 am   BACKBONE|DICT|INTERRES
   241  121  123 2    
   242  122  242 1    
   243  122  243 1    
   244  124  125 1    
   245  124  244 1    
   246  124  245 1    
   247  125  126 1    
   248  126  246 1    
   249  126  247 1    
@<TRIPOS>SUBSTRUCTURE
     1 UNK         1 GROUP             0       ****    0 ROOT    
