@<TRIPOS>MOLECULE
3R540
247   249    1
SMALL
USER_CHARGES


@<TRIPOS>ATOM
      1 CA          5.4393  -13.5710  -45.9287 C.3       0 UNK        -0.1800 
      2 C           4.2905  -13.6838  -46.9190 C.2       0 UNK         0.5000 
      3 O           3.1379  -13.8215  -46.5084 O.2       0 UNK        -0.5000 
      4 N           4.6017  -13.6115  -48.2189 N.am      1 UNK        -0.5000 
      5 CA          3.6752  -13.7566  -49.3535 C.3       1 UNK         0.1400 
      6 C6          4.4287  -13.6748  -50.7037 C.3       23 UNK        -0.0398 
      7 S7          5.6986  -14.9737  -50.8797 S.3       23 UNK        -0.2404 
      8 C8          5.0520  -15.9347  -52.2836 C.3       23 UNK        -0.0205 
      9 C9          3.7900  -16.7051  -51.9250 C.ar      23 UNK        -0.0193 
     10 C10         2.5380  -16.2617  -52.3604 C.ar      23 UNK        -0.1150 
     11 C11         1.3826  -16.9967  -52.0747 C.ar      23 UNK        -0.0193 
     12 C12         1.4875  -18.1784  -51.3335 C.ar      23 UNK        -0.1150 
     13 C13         2.7324  -18.6201  -50.8735 C.ar      23 UNK        -0.0193 
     14 C14         3.8789  -17.8815  -51.1775 C.ar      23 UNK        -0.1150 
     15 C15         2.8549  -19.8993  -50.0599 C.3       23 UNK        -0.0205 
     16 S16         2.7943  -19.5644  -48.2710 S.3       23 UNK        -0.2404 
     17 C17         1.0022  -19.6426  -47.9528 C.3       23 UNK        -0.0398 
     18 CA          0.6065  -21.0401  -47.4263 C.3       11 UNK         0.1400 
     19 N           1.0324  -21.2845  -46.0455 N.am      11 UNK        -0.5000 
     20 C           1.1820  -22.5138  -45.5347 C.2       10 UNK         0.5000 
     21 O           0.9641  -23.5490  -46.1676 O.2       10 UNK        -0.5000 
     22 CA          1.5890  -22.5939  -44.0546 C.3       10 UNK         0.1400 
     23 CB          3.0183  -22.0709  -43.8392 C.3       10 UNK        -0.1800 
     24 N           0.6679  -21.8733  -43.1753 N.am      10 UNK        -0.5000 
     25 C          -0.6302  -22.1614  -43.0127 C.2       9 UNK         0.5000 
     26 O          -1.2146  -23.0279  -43.6615 O.2       9 UNK        -0.5000 
     27 CA         -1.4391  -21.3393  -41.9928 C.3       9 UNK         0.1400 
     28 CB         -2.0034  -22.2254  -40.8648 C.3       9 UNK        -0.1800 
     29 N          -0.7503  -20.1550  -41.4694 N.am      9 UNK        -0.5000 
     30 C           0.2402  -20.0711  -40.5688 C.2       8 UNK         0.5000 
     31 O           0.7702  -21.0511  -40.0459 O.2       8 UNK        -0.5000 
     32 CA          0.7555  -18.6589  -40.2087 C.3       8 UNK         0.1400 
     33 CB          2.2458  -18.5275  -40.5642 C.3       8 UNK        -0.1800 
     34 N           0.0221  -17.5741  -40.8675 N.am      8 UNK        -0.5000 
     35 C          -1.2181  -17.1656  -40.5641 C.2       7 UNK         0.5000 
     36 O          -1.8645  -17.5946  -39.6084 O.2       7 UNK        -0.5000 
     37 CA         -1.8668  -16.1574  -41.5344 C.3       7 UNK         0.1400 
     38 CB         -1.5469  -14.7146  -41.1173 C.3       7 UNK        -0.1800 
     39 N          -1.4581  -16.3637  -42.9278 N.am      7 UNK        -0.5000 
     40 C          -1.7192  -17.4597  -43.6555 C.2       6 UNK         0.5000 
     41 O          -2.3822  -18.4085  -43.2416 O.2       6 UNK        -0.5000 
     42 CA         -1.0786  -17.5444  -45.0502 C.3       6 UNK         0.1400 
     43 CB         -1.9251  -16.8152  -46.1031 C.3       6 UNK        -0.1800 
     44 N           0.2786  -17.0010  -45.0323 N.am      6 UNK        -0.5000 
     45 C           1.3586  -17.6940  -44.6457 C.2       5 UNK         0.5000 
     46 O           1.3321  -18.8983  -44.3852 O.2       5 UNK        -0.5000 
     47 CA          2.6856  -16.9207  -44.5195 C.3       5 UNK         0.1400 
     48 CB          3.5546  -17.1210  -45.7667 C.3       5 UNK        -0.1800 
     49 N           2.4985  -15.4872  -44.2834 N.am      5 UNK        -0.5000 
     50 C           2.1070  -14.9734  -43.1112 C.2       4 UNK         0.5000 
     51 O           1.8487  -15.6611  -42.1247 O.2       4 UNK        -0.5000 
     52 CA          1.9307  -13.4453  -43.0288 C.3       4 UNK         0.1400 
     53 CB          3.2693  -12.7626  -42.7140 C.3       4 UNK        -0.1800 
     54 N           1.3303  -12.8164  -44.2100 N.am      4 UNK        -0.5000 
     55 C           0.1591  -13.1618  -44.7638 C.2       3 UNK         0.5000 
     56 O          -0.4877  -14.1543  -44.4328 O.2       3 UNK        -0.5000 
     57 CA         -0.4035  -12.2296  -45.8436 C.3       3 UNK         0.1400 
     58 CB         -1.1699  -11.0832  -45.1463 C.3       3 UNK        -0.1800 
     59 N           0.6569  -11.7339  -46.7279 N.am      3 UNK        -0.5000 
     60 C           0.4850  -10.8911  -47.7580 C.2       2 UNK         0.5000 
     61 O          -0.6026  -10.4203  -48.0926 O.2       2 UNK        -0.5000 
     62 CA          1.7362  -10.5063  -48.5705 C.3       2 UNK         0.1400 
     63 CB          2.4219   -9.2796  -47.9494 C.3       2 UNK        -0.1800 
     64 N           2.7132  -11.5863  -48.6939 N.am      2 UNK        -0.5000 
     65 C           2.5141  -12.7368  -49.3533 C.2       1 UNK         0.5000 
     66 O           1.4744  -13.0063  -49.9555 O.2       1 UNK        -0.5000 
     67 C          -0.8939  -21.3110  -47.6251 C.2       11 UNK         0.5000 
     68 O          -1.2821  -21.6547  -48.7385 O.2       11 UNK        -0.5000 
     69 N          -1.7054  -21.2006  -46.5624 N.am      12 UNK        -0.5000 
     70 CA         -3.1292  -21.5404  -46.5993 C.3       12 UNK         0.1400 
     71 CB         -3.8315  -21.0365  -45.3318 C.3       12 UNK        -0.1800 
     72 C          -3.3484  -23.0508  -46.7906 C.2       12 UNK         0.5000 
     73 O          -4.1717  -23.4389  -47.6197 O.2       12 UNK        -0.5000 
     74 N          -2.5769  -23.8703  -46.0614 N.am      13 UNK        -0.5000 
     75 CA         -2.5577  -25.3272  -46.1855 C.3       13 UNK         0.1400 
     76 CB         -1.7244  -25.9351  -45.0478 C.3       13 UNK        -0.1800 
     77 C          -2.0339  -25.7901  -47.5551 C.2       13 UNK         0.5000 
     78 O          -2.6532  -26.6558  -48.1743 O.2       13 UNK        -0.5000 
     79 N          -0.9425  -25.1697  -48.0310 N.am      14 UNK        -0.5000 
     80 CA         -0.3621  -25.4131  -49.3577 C.3       14 UNK         0.1400 
     81 CB          0.9494  -24.6265  -49.4958 C.3       14 UNK        -0.1800 
     82 C          -1.3246  -25.0624  -50.5109 C.2       14 UNK         0.5000 
     83 O          -1.3371  -25.7504  -51.5314 O.2       14 UNK        -0.5000 
     84 N          -2.1433  -24.0257  -50.2991 N.am      15 UNK        -0.5000 
     85 CA         -3.2144  -23.5752  -51.1838 C.3       15 UNK         0.1400 
     86 CB         -3.4724  -22.0899  -50.8953 C.3       15 UNK        -0.1800 
     87 C          -4.5188  -24.3897  -51.0556 C.2       15 UNK         0.5000 
     88 O          -5.5146  -23.9985  -51.6643 O.2       15 UNK        -0.5000 
     89 N          -4.5165  -25.4773  -50.2694 N.am      16 UNK        -0.5000 
     90 CA         -5.6423  -26.3817  -50.0123 C.3       16 UNK         0.1400 
     91 CB         -6.0556  -27.1257  -51.3002 C.3       16 UNK        -0.1800 
     92 C          -6.8168  -25.6606  -49.3216 C.2       16 UNK         0.5000 
     93 O          -7.9373  -25.6591  -49.8326 O.2       16 UNK        -0.5000 
     94 N          -6.5091  -25.0343  -48.1775 N.am      17 UNK        -0.5000 
     95 CA         -7.3820  -24.1851  -47.3601 C.3       17 UNK         0.1400 
     96 CB         -8.6122  -24.9584  -46.8391 C.3       17 UNK        -0.1800 
     97 C          -7.7340  -22.8704  -48.0836 C.2       17 UNK         0.5000 
     98 O          -8.8924  -22.4507  -48.0895 O.2       17 UNK        -0.5000 
     99 N          -6.7038  -22.2534  -48.6832 N.am      18 UNK        -0.5000 
    100 CA        -6.7322  -20.9833  -49.4206 C.3       18 UNK         0.1400 
    101 CB        -7.0652  -19.8116  -48.4740 C.3       18 UNK        -0.1800 
    102 C         -7.6144  -20.9991  -50.6904 C.2       18 UNK         0.5000 
    103 O         -8.0502  -19.9393  -51.1426 O.2       18 UNK        -0.5000 
    104 N         -7.8513  -22.1886  -51.2589 N.am      19 UNK        -0.5000 
    105 CA        -8.6191  -22.3836  -52.4885 C.3       19 UNK         0.1400 
    106 CB        -9.0852  -23.8454  -52.5652 C.3       19 UNK        -0.1800 
    107 C         -7.8066  -22.0060  -53.7395 C.2       19 UNK         0.5000 
    108 O         -8.3379  -21.3604  -54.6435 O.2       19 UNK        -0.5000 
    109 N         -6.5292  -22.4010  -53.7533 N.am      20 UNK        -0.5000 
    110 CA        -5.5600  -22.1476  -54.8153 C.3       20 UNK         0.1400 
    111 CB        -5.0190  -23.4983  -55.3183 C.3       20 UNK        -0.1800 
    112 C         -4.4530  -21.2309  -54.2696 C.2       20 UNK         0.5000 
    113 O         -3.2766  -21.5996  -54.2727 O.2       20 UNK        -0.5000 
    114 N         -4.8569  -20.0613  -53.7554 N.am      21 UNK        -0.5000 
    115 CA        -4.0056  -19.0666  -53.0958 C.3       21 UNK         0.1400 
    116 CB        -4.8955  -18.1483  -52.2394 C.3       21 UNK        -0.1800 
    117 C         -3.1111  -18.2866  -54.0837 C.2       21 UNK         0.5000 
    118 O         -3.2770  -17.0778  -54.2440 O.2       21 UNK        -0.5000 
    119 N         -2.1997  -19.0184  -54.7350 N.am      22 UNK        -0.5000 
    120 CA        -1.1485  -18.5925  -55.6784 C.3       22 UNK         0.1400 
    121 C         -1.5920  -17.8247  -56.9634 C.2       22 UNK         0.5000 
    122 N         -2.8797  -17.6788  -57.2464 N.am      22 UNK        -0.7600 
    123 O         -0.7513  -17.3989  -57.7513 O.2       22 UNK        -0.5000 
    124 C124        0.1035  -17.9915  -54.9747 C.3       23 UNK        -0.0398 
    125 S125       -0.0606  -16.2776  -54.3594 S.3       23 UNK        -0.2404 
    126 C126        0.0197  -16.5074  -52.5519 C.3       23 UNK        -0.0205 
    127 H127        5.4439  -12.5813  -45.4727 H         1 UNK         0.0600 
    128 H128        5.3326  -14.3134  -45.1380 H         1 UNK         0.0600 
    129 H129        6.4035  -13.7295  -46.4120 H         1 UNK         0.0600 
    130 H130        5.5721  -13.5064  -48.4794 H         1 UNK         0.3000 
    131 H131        3.2218  -14.7472  -49.2732 H         1 UNK         0.0600 
    132 H132        3.7311  -13.7405  -51.5400 H         1 UNK         0.0800 
    133 H133        4.9222  -12.7066  -50.8057 H         1 UNK         0.0800 
    134 H134        5.8198  -16.6383  -52.6086 H         1 UNK         0.0800 
    135 H135        4.8745  -15.2707  -53.1312 H         1 UNK         0.0800 
    136 H136        2.4596  -15.3510  -52.9373 H         1 UNK         0.1150 
    137 H137        0.5993  -18.7527  -51.1124 H         1 UNK         0.1150 
    138 H138        4.8448  -18.2227  -50.8319 H         1 UNK         0.1150 
    139 H139        2.0767  -20.6114  -50.3393 H         1 UNK         0.0800 
    140 H140        3.8032  -20.3874  -50.2895 H         1 UNK         0.0800 
    141 H141        0.7285  -18.8635  -47.2428 H         1 UNK         0.0800 
    142 H142        0.4729  -19.4013  -48.8751 H         1 UNK         0.0800 
    143 H143        1.1160  -21.7708  -48.0571 H         1 UNK         0.0600 
    144 H144        1.2139  -20.4741  -45.4579 H         1 UNK         0.3000 
    145 H145        1.5672  -23.6465  -43.7647 H         1 UNK         0.0600 
    146 H146        3.3417  -22.2250  -42.8096 H         1 UNK         0.0600 
    147 H147        3.7264  -22.5934  -44.4836 H         1 UNK         0.0600 
    148 H148        3.0999  -21.0055  -44.0579 H         1 UNK         0.0600 
    149 H149        1.0577  -21.1192  -42.6298 H         1 UNK         0.3000 
    150 H150       -2.2955  -20.9483  -42.5405 H         1 UNK         0.0600 
    151 H151       -2.6583  -22.9976  -41.2703 H         1 UNK         0.0600 
    152 H152       -2.5921  -21.6395  -40.1589 H         1 UNK         0.0600 
    153 H153       -1.2151  -22.7330  -40.3088 H         1 UNK         0.0600 
    154 H154       -1.0992  -19.2850  -41.8542 H         1 UNK         0.3000 
    155 H155        0.6485  -18.5407  -39.1288 H         1 UNK         0.0600 
    156 H156        2.8422  -19.2881  -40.0589 H         1 UNK         0.0600 
    157 H157        2.6395  -17.5573  -40.2607 H         1 UNK         0.0600 
    158 H158        2.4129  -18.6372  -41.6362 H         1 UNK         0.0600 
    159 H159        0.5152  -17.0887  -41.6098 H         1 UNK         0.3000 
    160 H160       -2.9487  -16.2959  -41.4830 H         1 UNK         0.0600 
    161 H161       -0.4740  -14.5247  -41.1203 H         1 UNK         0.0600 
    162 H162       -2.0170  -13.9948  -41.7878 H         1 UNK         0.0600 
    163 H163       -1.9124  -14.5105  -40.1103 H         1 UNK         0.0600 
    164 H164       -0.9542  -15.6000  -43.3721 H         1 UNK         0.3000 
    165 H165       -1.0393  -18.5979  -45.3332 H         1 UNK         0.0600 
    166 H166       -1.4797  -16.9026  -47.0942 H         1 UNK         0.0600 
    167 H167       -2.9270  -17.2429  -46.1582 H         1 UNK         0.0600 
    168 H168       -2.0344  -15.7544  -45.8772 H         1 UNK         0.0600 
    169 H169        0.3675  -16.0026  -45.1729 H         1 UNK         0.3000 
    170 H170        3.2261  -17.3400  -43.6684 H         1 UNK         0.0600 
    171 H171        3.7829  -18.1773  -45.9084 H         1 UNK         0.0600 
    172 H172        3.0584  -16.7610  -46.6691 H         1 UNK         0.0600 
    173 H173        4.5071  -16.6003  -45.6743 H         1 UNK         0.0600 
    174 H174        2.6686  -14.8589  -45.0666 H         1 UNK         0.3000 
    175 H175        1.2568  -13.2485  -42.1933 H         1 UNK         0.0600 
    176 H176        3.9746  -12.8649  -43.5375 H         1 UNK         0.0600 
    177 H177        3.1341  -11.6989  -42.5176 H         1 UNK         0.0600 
    178 H178        3.7330  -13.1988  -41.8281 H         1 UNK         0.0600 
    179 H179        1.7851  -11.9789  -44.5404 H         1 UNK         0.3000 
    180 H180       -1.1040  -12.8102  -46.4470 H         1 UNK         0.0600 
    181 H181       -1.8404  -11.4691  -44.3768 H         1 UNK         0.0600 
    182 H182       -0.4897  -10.3803  -44.6642 H         1 UNK         0.0600 
    183 H183       -1.7929  -10.5237  -45.8428 H         1 UNK         0.0600 
    184 H184        1.5688  -12.1577  -46.6014 H         1 UNK         0.3000 
    185 H185        1.4063  -10.2385  -49.5766 H         1 UNK         0.0600 
    186 H186        1.7251   -8.4447  -47.8632 H         1 UNK         0.0600 
    187 H187        2.8029   -9.4935  -46.9500 H         1 UNK         0.0600 
    188 H188        3.2573   -8.9413  -48.5628 H         1 UNK         0.0600 
    189 H189        3.5997  -11.4530  -48.2302 H         1 UNK         0.3000 
    190 H190       -1.3057  -20.9676  -45.6665 H         1 UNK         0.3000 
    191 H191       -3.5765  -21.0271  -47.4533 H         1 UNK         0.0600 
    192 H192       -4.9081  -21.1990  -45.3973 H         1 UNK         0.0600 
    193 H193       -3.6732  -19.9677  -45.1881 H         1 UNK         0.0600 
    194 H194       -3.4795  -21.5548  -44.4409 H         1 UNK         0.0600 
    195 H195       -1.9553  -23.4753  -45.3605 H         1 UNK         0.3000 
    196 H196       -3.5839  -25.6858  -46.0827 H         1 UNK         0.0600 
    197 H197       -1.6958  -27.0230  -45.1203 H         1 UNK         0.0600 
    198 H198       -2.1475  -25.6849  -44.0747 H         1 UNK         0.0600 
    199 H199       -0.6948  -25.5754  -45.0652 H         1 UNK         0.0600 
    200 H200       -0.4690  -24.4944  -47.4407 H         1 UNK         0.3000 
    201 H201       -0.1319  -26.4781  -49.4274 H         1 UNK         0.0600 
    202 H202        1.6403  -24.8581  -48.6848 H         1 UNK         0.0600 
    203 H203        0.7728  -23.5514  -49.4928 H         1 UNK         0.0600 
    204 H204        1.4519  -24.8710  -50.4324 H         1 UNK         0.0600 
    205 H205       -2.0155  -23.4787  -49.4554 H         1 UNK         0.3000 
    206 H206       -2.8834  -23.6678  -52.2201 H         1 UNK         0.0600 
    207 H207       -2.5986  -21.4895  -51.1476 H         1 UNK         0.0600 
    208 H208       -4.3102  -21.7048  -51.4730 H         1 UNK         0.0600 
    209 H209       -3.6980  -21.9235  -49.8433 H         1 UNK         0.0600 
    210 H210       -3.6637  -25.7032  -49.7710 H         1 UNK         0.3000 
    211 H211       -5.2807  -27.1300  -49.3055 H         1 UNK         0.0600 
    212 H212       -6.4644  -26.4499  -52.0518 H         1 UNK         0.0600 
    213 H213       -6.8193  -27.8745  -51.0874 H         1 UNK         0.0600 
    214 H214       -5.2062  -27.6450  -51.7438 H         1 UNK         0.0600 
    215 H215       -5.5321  -25.0082  -47.9090 H         1 UNK         0.3000 
    216 H216       -6.7910  -23.8984  -46.4890 H         1 UNK         0.0600 
    217 H217       -8.3160  -25.8821  -46.3422 H         1 UNK         0.0600 
    218 H218       -9.3059  -25.2146  -47.6400 H         1 UNK         0.0600 
    219 H219       -9.1646  -24.3619  -46.1122 H         1 UNK         0.0600 
    220 H220       -5.7940  -22.6939  -48.5923 H         1 UNK         0.3000 
    221 H221       -5.7176  -20.8142  -49.7748 H         1 UNK         0.0600 
    222 H222       -8.0965  -19.8546  -48.1230 H         1 UNK         0.0600 
    223 H223       -6.4123  -19.8126  -47.6010 H         1 UNK         0.0600 
    224 H224       -6.9311  -18.8520  -48.9747 H         1 UNK         0.0600 
    225 H225       -7.4174  -23.0127  -50.8632 H         1 UNK         0.3000 
    226 H226       -9.5052  -21.7462  -52.4544 H         1 UNK         0.0600 
    227 H227       -9.7096  -24.1041  -51.7097 H         1 UNK         0.0600 
    228 H228       -9.6747  -24.0220  -53.4656 H         1 UNK         0.0600 
    229 H229       -8.2419  -24.5374  -52.5815 H         1 UNK         0.0600 
    230 H230       -6.1816  -22.9301  -52.9543 H         1 UNK         0.3000 
    231 H231       -6.0255  -21.6310  -55.6568 H         1 UNK         0.0600 
    232 H232       -4.5280  -24.0578  -54.5207 H         1 UNK         0.0600 
    233 H233       -5.8226  -24.1193  -55.7142 H         1 UNK         0.0600 
    234 H234       -4.2927  -23.3566  -56.1195 H         1 UNK         0.0600 
    235 H235       -5.8413  -19.8397  -53.8020 H         1 UNK         0.3000 
    236 H236       -3.3310  -19.5864  -52.4141 H         1 UNK         0.0600 
    237 H237       -5.4370  -18.7173  -51.4838 H         1 UNK         0.0600 
    238 H238       -4.2980  -17.4025  -51.7135 H         1 UNK         0.0600 
    239 H239       -5.6283  -17.6158  -52.8467 H         1 UNK         0.0600 
    240 H240       -2.2462  -20.0214  -54.5750 H         1 UNK         0.3000 
    241 H241       -0.8080  -19.5439  -56.0885 H         1 UNK         0.0600 
    242 H242       -3.1531  -17.1964  -58.0880 H         1 UNK         0.3800 
    243 H243       -3.5796  -17.9813  -56.5882 H         1 UNK         0.3800 
    244 H244        0.9478  -18.0025  -55.6656 H         1 UNK         0.0800 
    245 H245        0.4039  -18.6450  -54.1553 H         1 UNK         0.0800 
    246 H246       -0.7726  -17.1923  -52.2465 H         1 UNK         0.0800 
    247 H247       -0.1961  -15.5538  -52.0682 H         1 UNK         0.0800 
@<TRIPOS>BOND
     1    1    2 1    
     2    1  127 1    
     3    1  128 1    
     4    1  129 1    
     5    2    3 2    
     6    2    4 am   BACKBONE|DICT|INTERRES
     7    4    5 1    
     8    4  130 1    
     9    5    6 1    
    10    5   65 1    
    11    5  131 1    
    12    6    7 1    
    13    6  132 1    
    14    6  133 1    
    15    7    8 1    
    16    8    9 1    
    17    8  134 1    
    18    8  135 1    
    19    9   10 ar   
    20    9   14 ar   
    21   10   11 ar   
    22   10  136 1    
    23   11   12 ar   
    24   11  126 1    
    25   12   13 ar   
    26   12  137 1    
    27   13   14 ar   
    28   13   15 1    
    29   14  138 1    
    30   15   16 1    
    31   15  139 1    
    32   15  140 1    
    33   16   17 1    
    34   17   18 1    
    35   17  141 1    
    36   17  142 1    
    37   18   19 1    
    38   18   67 1    
    39   18  143 1    
    40   19   20 am   BACKBONE|DICT|INTERRES
    41   19  144 1    
    42   20   21 2    
    43   20   22 1    
    44   22   23 1    
    45   22   24 1    
    46   22  145 1    
    47   23  146 1    
    48   23  147 1    
    49   23  148 1    
    50   24   25 am   BACKBONE|DICT|INTERRES
    51   24  149 1    
    52   25   26 2    
    53   25   27 1    
    54   27   28 1    
    55   27   29 1    
    56   27  150 1    
    57   28  151 1    
    58   28  152 1    
    59   28  153 1    
    60   29   30 am   BACKBONE|DICT|INTERRES
    61   29  154 1    
    62   30   31 2    
    63   30   32 1    
    64   32   33 1    
    65   32   34 1    
    66   32  155 1    
    67   33  156 1    
    68   33  157 1    
    69   33  158 1    
    70   34   35 am   BACKBONE|DICT|INTERRES
    71   34  159 1    
    72   35   36 2    
    73   35   37 1    
    74   37   38 1    
    75   37   39 1    
    76   37  160 1    
    77   38  161 1    
    78   38  162 1    
    79   38  163 1    
    80   39   40 am   BACKBONE|DICT|INTERRES
    81   39  164 1    
    82   40   41 2    
    83   40   42 1    
    84   42   43 1    
    85   42   44 1    
    86   42  165 1    
    87   43  166 1    
    88   43  167 1    
    89   43  168 1    
    90   44   45 am   BACKBONE|DICT|INTERRES
    91   44  169 1    
    92   45   46 2    
    93   45   47 1    
    94   47   48 1    
    95   47   49 1    
    96   47  170 1    
    97   48  171 1    
    98   48  172 1    
    99   48  173 1    
   100   49   50 am   BACKBONE|DICT|INTERRES
   101   49  174 1    
   102   50   51 2    
   103   50   52 1    
   104   52   53 1    
   105   52   54 1    
   106   52  175 1    
   107   53  176 1    
   108   53  177 1    
   109   53  178 1    
   110   54   55 am   BACKBONE|DICT|INTERRES
   111   54  179 1    
   112   55   56 2    
   113   55   57 1    
   114   57   58 1    
   115   57   59 1    
   116   57  180 1    
   117   58  181 1    
   118   58  182 1    
   119   58  183 1    
   120   59   60 am   BACKBONE|DICT|INTERRES
   121   59  184 1    
   122   60   61 2    
   123   60   62 1    
   124   62   63 1    
   125   62   64 1    
   126   62  185 1    
   127   63  186 1    
   128   63  187 1    
   129   63  188 1    
   130   64   65 am   BACKBONE|DICT|INTERRES
   131   64  189 1    
   132   65   66 2    
   133   67   68 2    
   134   67   69 am   BACKBONE|DICT|INTERRES
   135   69   70 1    
   136   69  190 1    
   137   70   71 1    
   138   70   72 1    
   139   70  191 1    
   140   71  192 1    
   141   71  193 1    
   142   71  194 1    
   143   72   73 2    
   144   72   74 am   BACKBONE|DICT|INTERRES
   145   74   75 1    
   146   74  195 1    
   147   75   76 1    
   148   75   77 1    
   149   75  196 1    
   150   76  197 1    
   151   76  198 1    
   152   76  199 1    
   153   77   78 2    
   154   77   79 am   BACKBONE|DICT|INTERRES
   155   79   80 1    
   156   79  200 1    
   157   80   81 1    
   158   80   82 1    
   159   80  201 1    
   160   81  202 1    
   161   81  203 1    
   162   81  204 1    
   163   82   83 2    
   164   82   84 am   BACKBONE|DICT|INTERRES
   165   84   85 1    
   166   84  205 1    
   167   85   86 1    
   168   85   87 1    
   169   85  206 1    
   170   86  207 1    
   171   86  208 1    
   172   86  209 1    
   173   87   88 2    
   174   87   89 am   BACKBONE|DICT|INTERRES
   175   89   90 1    
   176   89  210 1    
   177   90   91 1    
   178   90   92 1    
   179   90  211 1    
   180   91  212 1    
   181   91  213 1    
   182   91  214 1    
   183   92   93 2    
   184   92   94 am   BACKBONE|DICT|INTERRES
   185   94   95 1    
   186   94  215 1    
   187   95   96 1    
   188   95   97 1    
   189   95  216 1    
   190   96  217 1    
   191   96  218 1    
   192   96  219 1    
   193   97   98 2    
   194   97   99 am   BACKBONE|DICT|INTERRES
   195   99  100 1    
   196   99  220 1    
   197  100  101 1    
   198  100  102 1    
   199  100  221 1    
   200  101  222 1    
   201  101  223 1    
   202  101  224 1    
   203  102  103 2    
   204  102  104 am   BACKBONE|DICT|INTERRES
   205  104  105 1    
   206  104  225 1    
   207  105  106 1    
   208  105  107 1    
   209  105  226 1    
   210  106  227 1    
   211  106  228 1    
   212  106  229 1    
   213  107  108 2    
   214  107  109 am   BACKBONE|DICT|INTERRES
   215  109  110 1    
   216  109  230 1    
   217  110  111 1    
   218  110  112 1    
   219  110  231 1    
   220  111  232 1    
   221  111  233 1    
   222  111  234 1    
   223  112  113 2    
   224  112  114 am   BACKBONE|DICT|INTERRES
   225  114  115 1    
   226  114  235 1    
   227  115  116 1    
   228  115  117 1    
   229  115  236 1    
   230  116  237 1    
   231  116  238 1    
   232  116  239 1    
   233  117  118 2    
   234  117  119 am   BACKBONE|DICT|INTERRES
   235  119  120 1    
   236  119  240 1    
   237  120  121 1    
   238  120  124 1    
   239  120  241 1    
   240  121  122 am   BACKBONE|DICT|INTERRES
   241  121  123 2    
   242  122  242 1    
   243  122  243 1    
   244  124  125 1    
   245  124  244 1    
   246  124  245 1    
   247  125  126 1    
   248  126  246 1    
   249  126  247 1    
@<TRIPOS>SUBSTRUCTURE
     1 UNK         1 GROUP             0       ****    0 ROOT    
