@<TRIPOS>MOLECULE
3R540
247   249    1
SMALL
USER_CHARGES


@<TRIPOS>ATOM
      1 CA          6.3968  -10.7632  -46.4593 C.3       0 UNK        -0.1800 
      2 C           4.9664  -11.2535  -46.2970 C.2       0 UNK         0.5000 
      3 O           4.1330  -10.5486  -45.7246 O.2       0 UNK        -0.5000 
      4 N           4.6581  -12.4494  -46.8170 N.am      1 UNK        -0.5000 
      5 CA          3.3364  -13.0819  -46.7108 C.3       1 UNK         0.1400 
      6 C6          3.3906  -14.6191  -46.8178 C.3       23 UNK        -0.0398 
      7 S7          3.9036  -15.2672  -48.4383 S.3       23 UNK        -0.2404 
      8 C8          4.0442  -17.0298  -47.9868 C.3       23 UNK        -0.0205 
      9 C9          3.9153  -18.0360  -49.1285 C.ar      23 UNK        -0.0193 
     10 C10         3.5792  -17.6780  -50.4411 C.ar      23 UNK        -0.1150 
     11 C11         3.4500  -18.6493  -51.4417 C.ar      23 UNK        -0.0193 
     12 C12         3.6802  -19.9906  -51.1204 C.ar      23 UNK        -0.1150 
     13 C13         4.0209  -20.3633  -49.8175 C.ar      23 UNK        -0.0193 
     14 C14         4.1286  -19.3833  -48.8296 C.ar      23 UNK        -0.1150 
     15 C15         4.2912  -21.8209  -49.4751 C.3       23 UNK        -0.0205 
     16 S16         2.7649  -22.8068  -49.4146 S.3       23 UNK        -0.2404 
     17 C17         1.8224  -21.9687  -48.0915 C.3       23 UNK        -0.0398 
     18 CA          0.8278  -22.9047  -47.3623 C.3       11 UNK         0.1400 
     19 N           0.2202  -22.2531  -46.1975 N.am      11 UNK        -0.5000 
     20 C          -0.5638  -22.8735  -45.3029 C.2       10 UNK         0.5000 
     21 O          -0.7978  -24.0828  -45.3200 O.2       10 UNK        -0.5000 
     22 CA         -1.2395  -21.9897  -44.2392 C.3       10 UNK         0.1400 
     23 CB         -0.2653  -21.6800  -43.0932 C.3       10 UNK        -0.1800 
     24 N          -1.7741  -20.7425  -44.7914 N.am      10 UNK        -0.5000 
     25 C          -2.7627  -20.6761  -45.6959 C.2       9 UNK         0.5000 
     26 O          -3.3565  -21.6615  -46.1262 O.2       9 UNK        -0.5000 
     27 CA         -3.1237  -19.2888  -46.2547 C.3       9 UNK         0.1400 
     28 CB         -4.0608  -18.5411  -45.2961 C.3       9 UNK        -0.1800 
     29 N          -1.9497  -18.4673  -46.5429 N.am      9 UNK        -0.5000 
     30 C          -0.9874  -18.7876  -47.4205 C.2       8 UNK         0.5000 
     31 O          -0.9906  -19.8127  -48.1015 O.2       8 UNK        -0.5000 
     32 CA          0.2220  -17.8397  -47.4827 C.3       8 UNK         0.1400 
     33 CB         -0.0971  -16.5722  -48.2899 C.3       8 UNK        -0.1800 
     34 N           0.6787  -17.4748  -46.1412 N.am      8 UNK        -0.5000 
     35 C           1.2469  -18.3341  -45.2831 C.2       7 UNK         0.5000 
     36 O           1.5083  -19.5056  -45.5607 O.2       7 UNK        -0.5000 
     37 CA          1.5330  -17.8037  -43.8668 C.3       7 UNK         0.1400 
     38 CB          2.8827  -17.0745  -43.8136 C.3       7 UNK        -0.1800 
     39 N           0.4761  -16.9139  -43.3811 N.am      7 UNK        -0.5000 
     40 C          -0.7423  -17.3392  -43.0139 C.2       6 UNK         0.5000 
     41 O          -1.0838  -18.5203  -43.0398 O.2       6 UNK        -0.5000 
     42 CA         -1.7678  -16.2727  -42.5821 C.3       6 UNK         0.1400 
     43 CB         -1.6413  -15.9840  -41.0791 C.3       6 UNK        -0.1800 
     44 N          -1.6525  -15.0173  -43.3234 N.am      6 UNK        -0.5000 
     45 C          -1.7659  -14.8937  -44.6527 C.2       5 UNK         0.5000 
     46 O          -2.0404  -15.8309  -45.4016 O.2       5 UNK        -0.5000 
     47 CA         -1.4843  -13.5062  -45.2573 C.3       5 UNK         0.1400 
     48 CB         -2.8003  -12.7711  -45.5489 C.3       5 UNK        -0.1800 
     49 N          -0.6221  -12.6340  -44.4514 N.am      5 UNK        -0.5000 
     50 C           0.6171  -12.9086  -44.0226 C.2       4 UNK         0.5000 
     51 O           1.1643  -14.0049  -44.1655 O.2       4 UNK        -0.5000 
     52 CA          1.3644  -11.7428  -43.3422 C.3       4 UNK         0.1400 
     53 CB          2.7157  -12.1664  -42.7379 C.3       4 UNK        -0.1800 
     54 N           1.5817  -10.6341  -44.2757 N.am      4 UNK        -0.5000 
     55 C           0.6681   -9.7063  -44.5986 C.2       3 UNK         0.5000 
     56 O          -0.4722   -9.6859  -44.1328 O.2       3 UNK        -0.5000 
     57 CA          1.0827   -8.6560  -45.6412 C.3       3 UNK         0.1400 
     58 CB          2.1182   -7.6795  -45.0606 C.3       3 UNK        -0.1800 
     59 N           1.6383   -9.3148  -46.8206 N.am      3 UNK        -0.5000 
     60 C           0.9473   -9.6056  -47.9336 C.2       2 UNK         0.5000 
     61 O          -0.2104   -9.2396  -48.1382 O.2       2 UNK        -0.5000 
     62 CA          1.6628  -10.4765  -48.9893 C.3       2 UNK         0.1400 
     63 CB          2.4129   -9.5965  -50.0004 C.3       2 UNK        -0.1800 
     64 N           2.6041  -11.4146  -48.3775 N.am      2 UNK        -0.5000 
     65 C           2.2414  -12.4377  -47.5910 C.2       1 UNK         0.5000 
     66 O           1.0804  -12.8312  -47.4947 O.2       1 UNK        -0.5000 
     67 C          -0.2546  -23.4594  -48.3130 C.2       11 UNK         0.5000 
     68 O          -0.1961  -24.6297  -48.6911 O.2       11 UNK        -0.5000 
     69 N          -1.2516  -22.6266  -48.6370 N.am      12 UNK        -0.5000 
     70 CA         -2.3896  -22.9942  -49.4730 C.3       12 UNK         0.1400 
     71 CB         -3.2110  -21.7430  -49.7857 C.3       12 UNK        -0.1800 
     72 C          -3.2688  -24.0974  -48.8612 C.2       12 UNK         0.5000 
     73 O          -3.7431  -24.9580  -49.5981 O.2       12 UNK        -0.5000 
     74 N          -3.4582  -24.0803  -47.5358 N.am      13 UNK        -0.5000 
     75 CA         -4.1699  -25.1168  -46.7882 C.3       13 UNK         0.1400 
     76 CB         -4.3848  -24.6650  -45.3361 C.3       13 UNK        -0.1800 
     77 C          -3.4406  -26.4700  -46.8394 C.2       13 UNK         0.5000 
     78 O          -4.0823  -27.4913  -47.0851 O.2       13 UNK        -0.5000 
     79 N          -2.1108  -26.4481  -46.6650 N.am      14 UNK        -0.5000 
     80 CA         -1.2374  -27.6185  -46.7887 C.3       14 UNK         0.1400 
     81 CB          0.1744  -27.2587  -46.3017 C.3       14 UNK        -0.1800 
     82 C          -1.1984  -28.1886  -48.2209 C.2       14 UNK         0.5000 
     83 O          -1.1605  -29.4076  -48.3905 O.2       14 UNK        -0.5000 
     84 N          -1.2489  -27.2997  -49.2219 N.am      15 UNK        -0.5000 
     85 CA         -1.3386  -27.6318  -50.6458 C.3       15 UNK         0.1400 
     86 CB         -0.9092  -26.4030  -51.4639 C.3       15 UNK        -0.1800 
     87 C          -2.7400  -28.1048  -51.0905 C.2       15 UNK         0.5000 
     88 O          -2.8766  -28.5748  -52.2208 O.2       15 UNK        -0.5000 
     89 N          -3.7486  -27.9564  -50.2173 N.am      16 UNK        -0.5000 
     90 CA         -5.1747  -28.2218  -50.4387 C.3       16 UNK         0.1400 
     91 CB         -5.4311  -29.7215  -50.6948 C.3       16 UNK        -0.1800 
     92 C          -5.7975  -27.3029  -51.5134 C.2       16 UNK         0.5000 
     93 O          -6.6975  -27.7178  -52.2451 O.2       16 UNK        -0.5000 
     94 N          -5.3217  -26.0535  -51.5675 N.am      17 UNK        -0.5000 
     95 CA         -5.7438  -24.9964  -52.4834 C.3       17 UNK         0.1400 
     96 CB         -4.4880  -24.3060  -53.0416 C.3       17 UNK        -0.1800 
     97 C          -6.6935  -24.0139  -51.7692 C.2       17 UNK         0.5000 
     98 O          -6.5136  -22.7949  -51.8492 O.2       17 UNK        -0.5000 
     99 N          -7.6709  -24.5773  -51.0410 N.am      18 UNK        -0.5000 
    100 CA        -8.7879  -23.9202  -50.3437 C.3       18 UNK         0.1400 
    101 CB        -9.7573  -23.3120  -51.3784 C.3       18 UNK        -0.1800 
    102 C         -8.3863  -22.8846  -49.2686 C.2       18 UNK         0.5000 
    103 O         -9.2354  -22.1022  -48.8399 O.2       18 UNK        -0.5000 
    104 N         -7.1022  -22.8740  -48.8771 N.am      19 UNK        -0.5000 
    105 CA        -6.4364  -21.8538  -48.0561 C.3       19 UNK         0.1400 
    106 CB        -6.9959  -21.8459  -46.6188 C.3       19 UNK        -0.1800 
    107 C         -6.4398  -20.4481  -48.7076 C.2       19 UNK         0.5000 
    108 O         -6.3148  -19.4506  -47.9962 O.2       19 UNK        -0.5000 
    109 N         -6.6001  -20.3902  -50.0391 N.am      20 UNK        -0.5000 
    110 CA        -6.8468  -19.1601  -50.7933 C.3       20 UNK         0.1400 
    111 CB        -8.1155  -19.3639  -51.6372 C.3       20 UNK        -0.1800 
    112 C         -5.6744  -18.7544  -51.7022 C.2       20 UNK         0.5000 
    113 O         -5.5479  -17.5692  -52.0169 O.2       20 UNK        -0.5000 
    114 N         -4.8577  -19.7245  -52.1374 N.am      21 UNK        -0.5000 
    115 CA        -3.7302  -19.5037  -53.0471 C.3       21 UNK         0.1400 
    116 CB        -3.1666  -20.8570  -53.5054 C.3       21 UNK        -0.1800 
    117 C         -2.6204  -18.6199  -52.4426 C.2       21 UNK         0.5000 
    118 O         -2.3779  -18.6620  -51.2362 O.2       21 UNK        -0.5000 
    119 N         -1.9618  -17.8409  -53.3082 N.am      22 UNK        -0.5000 
    120 CA        -0.8750  -16.9019  -52.9763 C.3       22 UNK         0.1400 
    121 C         -1.2978  -15.6645  -52.1193 C.2       22 UNK         0.5000 
    122 N         -2.5817  -15.4265  -51.8768 N.am      22 UNK        -0.7600 
    123 O         -0.4547  -14.8787  -51.6980 O.2       22 UNK        -0.5000 
    124 C124        0.3918  -17.6268  -52.4283 C.3       23 UNK        -0.0398 
    125 S125        1.9379  -16.8859  -53.0542 S.3       23 UNK        -0.2404 
    126 C126        3.1154  -18.2713  -52.8841 C.3       23 UNK        -0.0205 
    127 H127        6.4103   -9.8226  -47.0097 H         1 UNK         0.0600 
    128 H128        7.0131  -11.4833  -46.9980 H         1 UNK         0.0600 
    129 H129        6.8465  -10.5936  -45.4810 H         1 UNK         0.0600 
    130 H130        5.3631  -12.9855  -47.3042 H         1 UNK         0.3000 
    131 H131        3.0010  -12.8865  -45.6946 H         1 UNK         0.0600 
    132 H132        4.0809  -15.0014  -46.0648 H         1 UNK         0.0800 
    133 H133        2.4153  -15.0421  -46.5703 H         1 UNK         0.0800 
    134 H134        5.0033  -17.1764  -47.4878 H         1 UNK         0.0800 
    135 H135        3.2765  -17.2695  -47.2520 H         1 UNK         0.0800 
    136 H136        3.4147  -16.6423  -50.6961 H         1 UNK         0.1150 
    137 H137        3.6001  -20.7504  -51.8854 H         1 UNK         0.1150 
    138 H138        4.3848  -19.6701  -47.8190 H         1 UNK         0.1150 
    139 H139        4.9579  -22.2486  -50.2251 H         1 UNK         0.0800 
    140 H140        4.8129  -21.9067  -48.5205 H         1 UNK         0.0800 
    141 H141        1.3089  -21.1079  -48.5224 H         1 UNK         0.0800 
    142 H142        2.5305  -21.5646  -47.3667 H         1 UNK         0.0800 
    143 H143        1.3937  -23.7592  -46.9849 H         1 UNK         0.0600 
    144 H144        0.3807  -21.2571  -46.0978 H         1 UNK         0.3000 
    145 H145       -2.0774  -22.5545  -43.8256 H         1 UNK         0.0600 
    146 H146       -0.7669  -21.1507  -42.2831 H         1 UNK         0.0600 
    147 H147        0.1488  -22.5974  -42.6729 H         1 UNK         0.0600 
    148 H148        0.5701  -21.0651  -43.4287 H         1 UNK         0.0600 
    149 H149       -1.3805  -19.8802  -44.4275 H         1 UNK         0.3000 
    150 H150       -3.6534  -19.4381  -47.1970 H         1 UNK         0.0600 
    151 H151       -4.9691  -19.1168  -45.1139 H         1 UNK         0.0600 
    152 H152       -4.3641  -17.5799  -45.7115 H         1 UNK         0.0600 
    153 H153       -3.5878  -18.3569  -44.3318 H         1 UNK         0.0600 
    154 H154       -1.8837  -17.5817  -46.0468 H         1 UNK         0.3000 
    155 H155        1.0312  -18.3680  -47.9917 H         1 UNK         0.0600 
    156 H156       -0.4877  -16.8276  -49.2752 H         1 UNK         0.0600 
    157 H157        0.7951  -15.9648  -48.4421 H         1 UNK         0.0600 
    158 H158       -0.8448  -15.9508  -47.7976 H         1 UNK         0.0600 
    159 H159        0.4462  -16.5483  -45.8150 H         1 UNK         0.3000 
    160 H160        1.5924  -18.6663  -43.1996 H         1 UNK         0.0600 
    161 H161        3.6836  -17.6967  -44.2153 H         1 UNK         0.0600 
    162 H162        3.1501  -16.8208  -42.7877 H         1 UNK         0.0600 
    163 H163        2.8615  -16.1497  -44.3874 H         1 UNK         0.0600 
    164 H164        0.6735  -15.9190  -43.3879 H         1 UNK         0.3000 
    165 H165       -2.7643  -16.6764  -42.7696 H         1 UNK         0.0600 
    166 H166       -2.4179  -15.2972  -40.7421 H         1 UNK         0.0600 
    167 H167       -1.7441  -16.9002  -40.4959 H         1 UNK         0.0600 
    168 H168       -0.6735  -15.5450  -40.8335 H         1 UNK         0.0600 
    169 H169       -1.4179  -14.1937  -42.7900 H         1 UNK         0.3000 
    170 H170       -0.9779  -13.6796  -46.2071 H         1 UNK         0.0600 
    171 H171       -3.4593  -13.3785  -46.1710 H         1 UNK         0.0600 
    172 H172       -3.3395  -12.5339  -44.6310 H         1 UNK         0.0600 
    173 H173       -2.6196  -11.8384  -46.0840 H         1 UNK         0.0600 
    174 H174       -0.9562  -11.6874  -44.3058 H         1 UNK         0.3000 
    175 H175        0.7367  -11.3964  -42.5184 H         1 UNK         0.0600 
    176 H176        3.4234  -12.4972  -43.4972 H         1 UNK         0.0600 
    177 H177        3.1763  -11.3410  -42.1949 H         1 UNK         0.0600 
    178 H178        2.5872  -12.9866  -42.0305 H         1 UNK         0.0600 
    179 H179        2.4964  -10.5887  -44.7157 H         1 UNK         0.3000 
    180 H180        0.1957   -8.0797  -45.9126 H         1 UNK         0.0600 
    181 H181        3.0408   -8.1842  -44.7719 H         1 UNK         0.0600 
    182 H182        1.7268   -7.1783  -44.1745 H         1 UNK         0.0600 
    183 H183        2.3750   -6.9060  -45.7845 H         1 UNK         0.0600 
    184 H184        2.5773   -9.6827  -46.7189 H         1 UNK         0.3000 
    185 H185        0.9031  -11.0491  -49.5257 H         1 UNK         0.0600 
    186 H186        1.7319   -8.8992  -50.4901 H         1 UNK         0.0600 
    187 H187        3.1962   -9.0083  -49.5206 H         1 UNK         0.0600 
    188 H188        2.8757  -10.2001  -50.7813 H         1 UNK         0.0600 
    189 H189        3.5826  -11.1705  -48.4165 H         1 UNK         0.3000 
    190 H190       -1.2171  -21.6627  -48.3111 H         1 UNK         0.3000 
    191 H191       -1.9967  -23.3780  -50.4162 H         1 UNK         0.0600 
    192 H192       -2.6197  -21.0434  -50.3713 H         1 UNK         0.0600 
    193 H193       -4.1042  -21.9871  -50.3609 H         1 UNK         0.0600 
    194 H194       -3.5156  -21.2219  -48.8799 H         1 UNK         0.0600 
    195 H195       -3.1138  -23.2880  -46.9988 H         1 UNK         0.3000 
    196 H196       -5.1511  -25.2471  -47.2496 H         1 UNK         0.0600 
    197 H197       -4.9430  -25.4140  -44.7732 H         1 UNK         0.0600 
    198 H198       -4.9516  -23.7358  -45.2904 H         1 UNK         0.0600 
    199 H199       -3.4393  -24.5029  -44.8189 H         1 UNK         0.0600 
    200 H200       -1.6606  -25.5658  -46.4413 H         1 UNK         0.3000 
    201 H201       -1.6321  -28.3984  -46.1342 H         1 UNK         0.0600 
    202 H202        0.1587  -26.9194  -45.2658 H         1 UNK         0.0600 
    203 H203        0.6207  -26.4673  -46.9042 H         1 UNK         0.0600 
    204 H204        0.8371  -28.1234  -46.3518 H         1 UNK         0.0600 
    205 H205       -1.1901  -26.3121  -48.9909 H         1 UNK         0.3000 
    206 H206       -0.6380  -28.4425  -50.8552 H         1 UNK         0.0600 
    207 H207        0.0886  -26.0669  -51.1809 H         1 UNK         0.0600 
    208 H208       -0.8852  -26.6301  -52.5303 H         1 UNK         0.0600 
    209 H209       -1.5970  -25.5693  -51.3234 H         1 UNK         0.0600 
    210 H210       -3.5256  -27.5446  -49.3203 H         1 UNK         0.3000 
    211 H211       -5.6720  -27.9630  -49.5029 H         1 UNK         0.0600 
    212 H212       -5.0294  -30.0456  -51.6550 H         1 UNK         0.0600 
    213 H213       -6.4997  -29.9393  -50.6992 H         1 UNK         0.0600 
    214 H214       -4.9792  -30.3363  -49.9164 H         1 UNK         0.0600 
    215 H215       -4.6299  -25.7742  -50.8717 H         1 UNK         0.3000 
    216 H216       -6.2931  -25.4241  -53.3242 H         1 UNK         0.0600 
    217 H217       -4.7580  -23.5733  -53.8016 H         1 UNK         0.0600 
    218 H218       -3.8182  -25.0267  -53.5109 H         1 UNK         0.0600 
    219 H219       -3.9284  -23.7904  -52.2607 H         1 UNK         0.0600 
    220 H220       -7.6950  -25.5876  -51.0245 H         1 UNK         0.3000 
    221 H221       -9.3212  -24.7099  -49.8129 H         1 UNK         0.0600 
    222 H222       -9.3057  -22.4729  -51.9087 H         1 UNK         0.0600 
    223 H223      -10.0597  -24.0525  -52.1188 H         1 UNK         0.0600 
    224 H224      -10.6672  -22.9456  -50.9017 H         1 UNK         0.0600 
    225 H225       -6.4949  -23.5614  -49.2995 H         1 UNK         0.3000 
    226 H226       -5.3952  -22.1571  -47.9843 H         1 UNK         0.0600 
    227 H227       -7.0392  -22.8533  -46.2058 H         1 UNK         0.0600 
    228 H228       -6.3611  -21.2527  -45.9596 H         1 UNK         0.0600 
    229 H229       -7.9992  -21.4218  -46.5748 H         1 UNK         0.0600 
    230 H230       -6.6808  -21.2583  -50.5595 H         1 UNK         0.3000 
    231 H231       -7.0300  -18.3255  -50.1134 H         1 UNK         0.0600 
    232 H232       -7.9970  -20.1812  -52.3500 H         1 UNK         0.0600 
    233 H233       -8.3595  -18.4644  -52.2039 H         1 UNK         0.0600 
    234 H234       -8.9744  -19.5940  -51.0061 H         1 UNK         0.0600 
    235 H235       -5.0304  -20.6741  -51.8441 H         1 UNK         0.3000 
    236 H236       -4.1237  -18.9916  -53.9279 H         1 UNK         0.0600 
    237 H237       -3.9187  -21.4229  -54.0534 H         1 UNK         0.0600 
    238 H238       -2.3169  -20.7220  -54.1758 H         1 UNK         0.0600 
    239 H239       -2.8269  -21.4660  -52.6686 H         1 UNK         0.0600 
    240 H240       -2.2335  -17.8575  -54.2810 H         1 UNK         0.3000 
    241 H241       -0.6165  -16.4729  -53.9449 H         1 UNK         0.0600 
    242 H242       -2.8384  -14.6163  -51.3361 H         1 UNK         0.3800 
    243 H243       -3.2957  -16.0659  -52.1911 H         1 UNK         0.3800 
    244 H244        0.4076  -17.6425  -51.3377 H         1 UNK         0.0800 
    245 H245        0.3871  -18.6732  -52.7363 H         1 UNK         0.0800 
    246 H246        2.7206  -19.1333  -53.4241 H         1 UNK         0.0800 
    247 H247        4.0439  -17.9956  -53.3852 H         1 UNK         0.0800 
@<TRIPOS>BOND
     1    1    2 1    
     2    1  127 1    
     3    1  128 1    
     4    1  129 1    
     5    2    3 2    
     6    2    4 am   BACKBONE|DICT|INTERRES
     7    4    5 1    
     8    4  130 1    
     9    5    6 1    
    10    5   65 1    
    11    5  131 1    
    12    6    7 1    
    13    6  132 1    
    14    6  133 1    
    15    7    8 1    
    16    8    9 1    
    17    8  134 1    
    18    8  135 1    
    19    9   10 ar   
    20    9   14 ar   
    21   10   11 ar   
    22   10  136 1    
    23   11   12 ar   
    24   11  126 1    
    25   12   13 ar   
    26   12  137 1    
    27   13   14 ar   
    28   13   15 1    
    29   14  138 1    
    30   15   16 1    
    31   15  139 1    
    32   15  140 1    
    33   16   17 1    
    34   17   18 1    
    35   17  141 1    
    36   17  142 1    
    37   18   19 1    
    38   18   67 1    
    39   18  143 1    
    40   19   20 am   BACKBONE|DICT|INTERRES
    41   19  144 1    
    42   20   21 2    
    43   20   22 1    
    44   22   23 1    
    45   22   24 1    
    46   22  145 1    
    47   23  146 1    
    48   23  147 1    
    49   23  148 1    
    50   24   25 am   BACKBONE|DICT|INTERRES
    51   24  149 1    
    52   25   26 2    
    53   25   27 1    
    54   27   28 1    
    55   27   29 1    
    56   27  150 1    
    57   28  151 1    
    58   28  152 1    
    59   28  153 1    
    60   29   30 am   BACKBONE|DICT|INTERRES
    61   29  154 1    
    62   30   31 2    
    63   30   32 1    
    64   32   33 1    
    65   32   34 1    
    66   32  155 1    
    67   33  156 1    
    68   33  157 1    
    69   33  158 1    
    70   34   35 am   BACKBONE|DICT|INTERRES
    71   34  159 1    
    72   35   36 2    
    73   35   37 1    
    74   37   38 1    
    75   37   39 1    
    76   37  160 1    
    77   38  161 1    
    78   38  162 1    
    79   38  163 1    
    80   39   40 am   BACKBONE|DICT|INTERRES
    81   39  164 1    
    82   40   41 2    
    83   40   42 1    
    84   42   43 1    
    85   42   44 1    
    86   42  165 1    
    87   43  166 1    
    88   43  167 1    
    89   43  168 1    
    90   44   45 am   BACKBONE|DICT|INTERRES
    91   44  169 1    
    92   45   46 2    
    93   45   47 1    
    94   47   48 1    
    95   47   49 1    
    96   47  170 1    
    97   48  171 1    
    98   48  172 1    
    99   48  173 1    
   100   49   50 am   BACKBONE|DICT|INTERRES
   101   49  174 1    
   102   50   51 2    
   103   50   52 1    
   104   52   53 1    
   105   52   54 1    
   106   52  175 1    
   107   53  176 1    
   108   53  177 1    
   109   53  178 1    
   110   54   55 am   BACKBONE|DICT|INTERRES
   111   54  179 1    
   112   55   56 2    
   113   55   57 1    
   114   57   58 1    
   115   57   59 1    
   116   57  180 1    
   117   58  181 1    
   118   58  182 1    
   119   58  183 1    
   120   59   60 am   BACKBONE|DICT|INTERRES
   121   59  184 1    
   122   60   61 2    
   123   60   62 1    
   124   62   63 1    
   125   62   64 1    
   126   62  185 1    
   127   63  186 1    
   128   63  187 1    
   129   63  188 1    
   130   64   65 am   BACKBONE|DICT|INTERRES
   131   64  189 1    
   132   65   66 2    
   133   67   68 2    
   134   67   69 am   BACKBONE|DICT|INTERRES
   135   69   70 1    
   136   69  190 1    
   137   70   71 1    
   138   70   72 1    
   139   70  191 1    
   140   71  192 1    
   141   71  193 1    
   142   71  194 1    
   143   72   73 2    
   144   72   74 am   BACKBONE|DICT|INTERRES
   145   74   75 1    
   146   74  195 1    
   147   75   76 1    
   148   75   77 1    
   149   75  196 1    
   150   76  197 1    
   151   76  198 1    
   152   76  199 1    
   153   77   78 2    
   154   77   79 am   BACKBONE|DICT|INTERRES
   155   79   80 1    
   156   79  200 1    
   157   80   81 1    
   158   80   82 1    
   159   80  201 1    
   160   81  202 1    
   161   81  203 1    
   162   81  204 1    
   163   82   83 2    
   164   82   84 am   BACKBONE|DICT|INTERRES
   165   84   85 1    
   166   84  205 1    
   167   85   86 1    
   168   85   87 1    
   169   85  206 1    
   170   86  207 1    
   171   86  208 1    
   172   86  209 1    
   173   87   88 2    
   174   87   89 am   BACKBONE|DICT|INTERRES
   175   89   90 1    
   176   89  210 1    
   177   90   91 1    
   178   90   92 1    
   179   90  211 1    
   180   91  212 1    
   181   91  213 1    
   182   91  214 1    
   183   92   93 2    
   184   92   94 am   BACKBONE|DICT|INTERRES
   185   94   95 1    
   186   94  215 1    
   187   95   96 1    
   188   95   97 1    
   189   95  216 1    
   190   96  217 1    
   191   96  218 1    
   192   96  219 1    
   193   97   98 2    
   194   97   99 am   BACKBONE|DICT|INTERRES
   195   99  100 1    
   196   99  220 1    
   197  100  101 1    
   198  100  102 1    
   199  100  221 1    
   200  101  222 1    
   201  101  223 1    
   202  101  224 1    
   203  102  103 2    
   204  102  104 am   BACKBONE|DICT|INTERRES
   205  104  105 1    
   206  104  225 1    
   207  105  106 1    
   208  105  107 1    
   209  105  226 1    
   210  106  227 1    
   211  106  228 1    
   212  106  229 1    
   213  107  108 2    
   214  107  109 am   BACKBONE|DICT|INTERRES
   215  109  110 1    
   216  109  230 1    
   217  110  111 1    
   218  110  112 1    
   219  110  231 1    
   220  111  232 1    
   221  111  233 1    
   222  111  234 1    
   223  112  113 2    
   224  112  114 am   BACKBONE|DICT|INTERRES
   225  114  115 1    
   226  114  235 1    
   227  115  116 1    
   228  115  117 1    
   229  115  236 1    
   230  116  237 1    
   231  116  238 1    
   232  116  239 1    
   233  117  118 2    
   234  117  119 am   BACKBONE|DICT|INTERRES
   235  119  120 1    
   236  119  240 1    
   237  120  121 1    
   238  120  124 1    
   239  120  241 1    
   240  121  122 am   BACKBONE|DICT|INTERRES
   241  121  123 2    
   242  122  242 1    
   243  122  243 1    
   244  124  125 1    
   245  124  244 1    
   246  124  245 1    
   247  125  126 1    
   248  126  246 1    
   249  126  247 1    
@<TRIPOS>SUBSTRUCTURE
     1 UNK         1 GROUP             0       ****    0 ROOT    
