@<TRIPOS>MOLECULE
3R540
247   249    1
SMALL
USER_CHARGES


@<TRIPOS>ATOM
      1 CA          0.0121  -13.4210  -43.9817 C.3       0 UNK        -0.1800 
      2 C          -0.7683  -12.8542  -45.1563 C.2       0 UNK         0.5000 
      3 O          -0.3742  -13.0305  -46.3064 O.2       0 UNK        -0.5000 
      4 N          -1.8886  -12.1910  -44.8526 N.am      1 UNK        -0.5000 
      5 CA         -2.8696  -11.6336  -45.7937 C.3       1 UNK         0.1400 
      6 C6         -3.6782  -12.7495  -46.5204 C.3       23 UNK        -0.0398 
      7 S7         -4.4286  -13.9796  -45.3934 S.3       23 UNK        -0.2404 
      8 C8         -3.3613  -15.4373  -45.6502 C.3       23 UNK        -0.0205 
      9 C9         -3.7961  -16.2700  -46.8459 C.ar      23 UNK        -0.0193 
     10 C10        -3.3311  -15.9715  -48.1302 C.ar      23 UNK        -0.1150 
     11 C11        -3.7618  -16.7157  -49.2316 C.ar      23 UNK        -0.0193 
     12 C12        -4.6377  -17.7855  -49.0376 C.ar      23 UNK        -0.1150 
     13 C13        -5.0689  -18.1278  -47.7530 C.ar      23 UNK        -0.0193 
     14 C14        -4.6557  -17.3565  -46.6630 C.ar      23 UNK        -0.1150 
     15 C15        -5.9658  -19.3392  -47.5357 C.3       23 UNK        -0.0205 
     16 S16        -5.1374  -20.9077  -47.9597 S.3       23 UNK        -0.2404 
     17 C17        -3.5451  -20.7410  -47.0812 C.3       23 UNK        -0.0398 
     18 CA         -2.8224  -22.0973  -46.9230 C.3       11 UNK         0.1400 
     19 N          -1.3655  -21.9555  -46.8600 N.am      11 UNK        -0.5000 
     20 C          -0.5105  -22.9784  -47.0012 C.2       10 UNK         0.5000 
     21 O          -0.8672  -24.1315  -47.2370 O.2       10 UNK        -0.5000 
     22 CA          0.9865  -22.6862  -46.8059 C.3       10 UNK         0.1400 
     23 CB          1.6061  -22.1029  -48.0818 C.3       10 UNK        -0.1800 
     24 N           1.2448  -21.7972  -45.6752 N.am      10 UNK        -0.5000 
     25 C           0.9951  -22.1167  -44.3975 C.2       9 UNK         0.5000 
     26 O           0.5456  -23.2063  -44.0418 O.2       9 UNK        -0.5000 
     27 CA          1.2467  -21.0222  -43.3455 C.3       9 UNK         0.1400 
     28 CB          2.7454  -20.8960  -43.0349 C.3       9 UNK        -0.1800 
     29 N           0.7180  -19.7189  -43.7477 N.am      9 UNK        -0.5000 
     30 C          -0.5764  -19.4602  -43.9827 C.2       8 UNK         0.5000 
     31 O          -1.4772  -20.2900  -43.8663 O.2       8 UNK        -0.5000 
     32 CA         -0.9168  -18.0477  -44.4826 C.3       8 UNK         0.1400 
     33 CB         -0.9110  -17.0404  -43.3226 C.3       8 UNK        -0.1800 
     34 N          -0.0077  -17.6029  -45.5380 N.am      8 UNK        -0.5000 
     35 C           0.0981  -18.1898  -46.7393 C.2       7 UNK         0.5000 
     36 O          -0.5795  -19.1527  -47.0970 O.2       7 UNK        -0.5000 
     37 CA          1.1919  -17.6434  -47.6692 C.3       7 UNK         0.1400 
     38 CB          0.7299  -16.3433  -48.3458 C.3       7 UNK        -0.1800 
     39 N           2.4485  -17.4174  -46.9511 N.am      7 UNK        -0.5000 
     40 C           3.2216  -18.4015  -46.4651 C.2       6 UNK         0.5000 
     41 O           2.9604  -19.5967  -46.5932 O.2       6 UNK        -0.5000 
     42 CA          4.4785  -17.9965  -45.6694 C.3       6 UNK         0.1400 
     43 CB          5.6735  -17.8038  -46.6145 C.3       6 UNK        -0.1800 
     44 N           4.3009  -16.7870  -44.8672 N.am      6 UNK        -0.5000 
     45 C           3.3932  -16.6361  -43.8939 C.2       5 UNK         0.5000 
     46 O           2.6398  -17.5349  -43.5184 O.2       5 UNK        -0.5000 
     47 CA          3.2706  -15.2365  -43.2608 C.3       5 UNK         0.1400 
     48 CB          4.1240  -15.1541  -41.9870 C.3       5 UNK        -0.1800 
     49 N           3.6082  -14.1006  -44.1309 N.am      5 UNK        -0.5000 
     50 C           3.1670  -13.8602  -45.3742 C.2       4 UNK         0.5000 
     51 O           2.4893  -14.6589  -46.0217 O.2       4 UNK        -0.5000 
     52 CA          3.5317  -12.4848  -45.9729 C.3       4 UNK         0.1400 
     53 CB          3.1489  -12.3718  -47.4592 C.3       4 UNK        -0.1800 
     54 N           2.8998  -11.3809  -45.2453 N.am      4 UNK        -0.5000 
     55 C           3.2586  -10.9117  -44.0448 C.2       3 UNK         0.5000 
     56 O           4.1979  -11.3790  -43.3985 O.2       3 UNK        -0.5000 
     57 CA          2.4456   -9.7459  -43.4376 C.3       3 UNK         0.1400 
     58 CB          3.1640   -8.4035  -43.6740 C.3       3 UNK        -0.1800 
     59 N           1.0249   -9.6551  -43.8209 N.am      3 UNK        -0.5000 
     60 C           0.4934   -9.3870  -45.0214 C.2       2 UNK         0.5000 
     61 O           1.1560   -9.2620  -46.0540 O.2       2 UNK        -0.5000 
     62 CA         -1.0350   -9.2091  -45.0714 C.3       2 UNK         0.1400 
     63 CB         -1.3964   -7.7362  -44.8250 C.3       2 UNK        -0.1800 
     64 N          -1.5079   -9.5825  -46.4034 N.am      2 UNK        -0.5000 
     65 C          -2.2694  -10.6120  -46.8052 C.2       1 UNK         0.5000 
     66 O          -2.5064  -10.7541  -48.0051 O.2       1 UNK        -0.5000 
     67 C          -3.3786  -22.9190  -45.7432 C.2       11 UNK         0.5000 
     68 O          -4.2433  -23.7650  -45.9588 O.2       11 UNK        -0.5000 
     69 N          -2.8463  -22.7112  -44.5311 N.am      12 UNK        -0.5000 
     70 CA         -3.1911  -23.4987  -43.3451 C.3       12 UNK         0.1400 
     71 CB         -2.5387  -22.8734  -42.1028 C.3       12 UNK        -0.1800 
     72 C          -2.8039  -24.9851  -43.4766 C.2       12 UNK         0.5000 
     73 O          -3.5450  -25.8481  -43.0042 O.2       12 UNK        -0.5000 
     74 N          -1.6618  -25.2539  -44.1222 N.am      13 UNK        -0.5000 
     75 CA         -1.1534  -26.5973  -44.3778 C.3       13 UNK         0.1400 
     76 CB          0.3565  -26.5243  -44.6587 C.3       13 UNK        -0.1800 
     77 C          -1.8915  -27.3109  -45.5256 C.2       13 UNK         0.5000 
     78 O          -2.3764  -28.4264  -45.3296 O.2       13 UNK        -0.5000 
     79 N          -1.9218  -26.6848  -46.7095 N.am      14 UNK        -0.5000 
     80 CA         -2.3037  -27.3354  -47.9652 C.3       14 UNK         0.1400 
     81 CB         -1.3302  -26.8790  -49.0649 C.3       14 UNK        -0.1800 
     82 C          -3.7484  -27.0562  -48.4108 C.2       14 UNK         0.5000 
     83 O          -4.2610  -27.8125  -49.2378 O.2       14 UNK        -0.5000 
     84 N          -4.3670  -25.9809  -47.8985 N.am      15 UNK        -0.5000 
     85 CA         -5.6358  -25.4006  -48.3620 C.3       15 UNK         0.1400 
     86 CB         -6.8128  -26.3698  -48.1113 C.3       15 UNK        -0.1800 
     87 C          -5.5454  -24.9032  -49.8231 C.2       15 UNK         0.5000 
     88 O          -4.4418  -24.6692  -50.3233 O.2       15 UNK        -0.5000 
     89 N          -6.7055  -24.7206  -50.4725 N.am      16 UNK        -0.5000 
     90 CA         -6.8827  -24.4055  -51.8975 C.3       16 UNK         0.1400 
     91 CB         -6.5758  -25.6577  -52.7454 C.3       16 UNK        -0.1800 
     92 C          -6.0972  -23.1636  -52.3733 C.2       16 UNK         0.5000 
     93 O          -5.4808  -23.1971  -53.4382 O.2       16 UNK        -0.5000 
     94 N          -6.1056  -22.1026  -51.5534 N.am      17 UNK        -0.5000 
     95 CA         -5.3688  -20.8467  -51.7441 C.3       17 UNK         0.1400 
     96 CB         -5.9399  -20.0475  -52.9309 C.3       17 UNK        -0.1800 
     97 C          -3.8427  -21.0683  -51.8333 C.2       17 UNK         0.5000 
     98 O          -3.1941  -20.6085  -52.7777 O.2       17 UNK        -0.5000 
     99 N          -3.3249  -21.8204  -50.8498 N.am      18 UNK        -0.5000 
    100 CA        -1.9384  -22.2735  -50.7084 C.3       18 UNK         0.1400 
    101 CB        -0.9929  -21.0743  -50.4872 C.3       18 UNK        -0.1800 
    102 C         -1.5103  -23.1849  -51.8735 C.2       18 UNK         0.5000 
    103 O         -0.4518  -22.9766  -52.4634 O.2       18 UNK        -0.5000 
    104 N         -2.3697  -24.1581  -52.2109 N.am      19 UNK        -0.5000 
    105 CA        -2.2647  -25.0570  -53.3677 C.3       19 UNK         0.1400 
    106 CB        -1.1205  -26.0716  -53.1671 C.3       19 UNK        -0.1800 
    107 C         -2.1626  -24.2802  -54.7000 C.2       19 UNK         0.5000 
    108 O         -1.3131  -24.5810  -55.5405 O.2       19 UNK        -0.5000 
    109 N         -3.0257  -23.2647  -54.8332 N.am      20 UNK        -0.5000 
    110 CA        -3.1412  -22.2986  -55.9260 C.3       20 UNK         0.1400 
    111 CB        -3.5233  -23.0034  -57.2442 C.3       20 UNK        -0.1800 
    112 C         -1.9319  -21.3509  -56.0886 C.2       20 UNK         0.5000 
    113 O         -1.8347  -20.6851  -57.1210 O.2       20 UNK        -0.5000 
    114 N         -1.0474  -21.2619  -55.0828 N.am      21 UNK        -0.5000 
    115 CA         0.1127  -20.3647  -55.0941 C.3       21 UNK         0.1400 
    116 CB         1.1236  -20.7891  -54.0199 C.3       21 UNK        -0.1800 
    117 C         -0.2581  -18.8803  -54.9195 C.2       21 UNK         0.5000 
    118 O          0.4984  -18.0229  -55.3790 O.2       21 UNK        -0.5000 
    119 N         -1.4003  -18.5956  -54.2813 N.am      22 UNK        -0.5000 
    120 CA        -1.9216  -17.2339  -54.0813 C.3       22 UNK         0.1400 
    121 C         -3.4405  -17.0930  -54.3822 C.2       22 UNK         0.5000 
    122 N         -4.0600  -18.0374  -55.0796 N.am      22 UNK        -0.7600 
    123 O         -4.0618  -16.0971  -54.0223 O.2       22 UNK        -0.5000 
    124 C124       -1.4612  -16.6090  -52.7368 C.3       23 UNK        -0.0398 
    125 S125       -2.0160  -17.4916  -51.2361 S.3       23 UNK        -0.2404 
    126 C126       -3.2986  -16.3522  -50.6322 C.3       23 UNK        -0.0205 
    127 H127        0.8569  -12.7787  -43.7402 H         1 UNK         0.0600 
    128 H128        0.3883  -14.4104  -44.2362 H         1 UNK         0.0600 
    129 H129       -0.6099  -13.5169  -43.0916 H         1 UNK         0.0600 
    130 H130       -2.1499  -12.1089  -43.8803 H         1 UNK         0.3000 
    131 H131       -3.5766  -11.0653  -45.1876 H         1 UNK         0.0600 
    132 H132       -4.4900  -12.3077  -47.1005 H         1 UNK         0.0800 
    133 H133       -3.0410  -13.2594  -47.2409 H         1 UNK         0.0800 
    134 H134       -2.3198  -15.1393  -45.7660 H         1 UNK         0.0800 
    135 H135       -3.4034  -16.0468  -44.7471 H         1 UNK         0.0800 
    136 H136       -2.6408  -15.1546  -48.2791 H         1 UNK         0.1150 
    137 H137       -4.9634  -18.3626  -49.8883 H         1 UNK         0.1150 
    138 H138       -4.9982  -17.6049  -45.6683 H         1 UNK         0.1150 
    139 H139       -6.3017  -19.3901  -46.4989 H         1 UNK         0.0800 
    140 H140       -6.8646  -19.2355  -48.1447 H         1 UNK         0.0800 
    141 H141       -2.9372  -20.0640  -47.6823 H         1 UNK         0.0800 
    142 H142       -3.6858  -20.2459  -46.1184 H         1 UNK         0.0800 
    143 H143       -3.0259  -22.6827  -47.8215 H         1 UNK         0.0600 
    144 H144       -1.0018  -21.0180  -46.7107 H         1 UNK         0.3000 
    145 H145        1.4808  -23.6380  -46.6002 H         1 UNK         0.0600 
    146 H146        2.6875  -22.0076  -47.9841 H         1 UNK         0.0600 
    147 H147        1.4147  -22.7481  -48.9401 H         1 UNK         0.0600 
    148 H148        1.2043  -21.1143  -48.3058 H         1 UNK         0.0600 
    149 H149        1.6518  -20.8925  -45.8936 H         1 UNK         0.3000 
    150 H150        0.7329  -21.3188  -42.4288 H         1 UNK         0.0600 
    151 H151        2.9236  -20.1701  -42.2413 H         1 UNK         0.0600 
    152 H152        3.1573  -21.8499  -42.7033 H         1 UNK         0.0600 
    153 H153        3.3124  -20.5791  -43.9104 H         1 UNK         0.0600 
    154 H154        1.3910  -18.9620  -43.8342 H         1 UNK         0.3000 
    155 H155       -1.9241  -18.0815  -44.9027 H         1 UNK         0.0600 
    156 H156        0.0812  -16.9280  -42.8851 H         1 UNK         0.0600 
    157 H157       -1.5845  -17.3610  -42.5268 H         1 UNK         0.0600 
    158 H158       -1.2458  -16.0576  -43.6486 H         1 UNK         0.0600 
    159 H159        0.6257  -16.8488  -45.3165 H         1 UNK         0.3000 
    160 H160        1.3716  -18.3863  -48.4494 H         1 UNK         0.0600 
    161 H161        0.5154  -15.5594  -47.6182 H         1 UNK         0.0600 
    162 H162       -0.1811  -16.5089  -48.9220 H         1 UNK         0.0600 
    163 H163        1.4864  -15.9643  -49.0328 H         1 UNK         0.0600 
    164 H164        2.6805  -16.4508  -46.7383 H         1 UNK         0.3000 
    165 H165        4.7131  -18.8143  -44.9854 H         1 UNK         0.0600 
    166 H166        6.5895  -17.6053  -46.0578 H         1 UNK         0.0600 
    167 H167        5.8459  -18.6993  -47.2131 H         1 UNK         0.0600 
    168 H168        5.5115  -16.9740  -47.3037 H         1 UNK         0.0600 
    169 H169        4.8636  -15.9880  -45.1181 H         1 UNK         0.3000 
    170 H170        2.2273  -15.1156  -42.9678 H         1 UNK         0.0600 
    171 H171        3.8820  -15.9652  -41.2986 H         1 UNK         0.0600 
    172 H172        5.1889  -15.2207  -42.2132 H         1 UNK         0.0600 
    173 H173        3.9515  -14.2174  -41.4563 H         1 UNK         0.0600 
    174 H174        4.1186  -13.3438  -43.6863 H         1 UNK         0.3000 
    175 H175        4.6156  -12.3752  -45.9002 H         1 UNK         0.0600 
    176 H176        2.0700  -12.4481  -47.6027 H         1 UNK         0.0600 
    177 H177        3.4752  -11.4204  -47.8793 H         1 UNK         0.0600 
    178 H178        3.6156  -13.1639  -48.0462 H         1 UNK         0.0600 
    179 H179        2.1437  -10.8995  -45.7213 H         1 UNK         0.3000 
    180 H180        2.4390   -9.9203  -42.3605 H         1 UNK         0.0600 
    181 H181        3.2321   -8.1587  -44.7343 H         1 UNK         0.0600 
    182 H182        4.1815   -8.4318  -43.2820 H         1 UNK         0.0600 
    183 H183        2.6467   -7.5853  -43.1728 H         1 UNK         0.0600 
    184 H184        0.3856   -9.7566  -43.0446 H         1 UNK         0.3000 
    185 H185       -1.5045   -9.7947  -44.2840 H         1 UNK         0.0600 
    186 H186       -1.0642   -7.4105  -43.8384 H         1 UNK         0.0600 
    187 H187       -0.9340   -7.0767  -45.5609 H         1 UNK         0.0600 
    188 H188       -2.4748   -7.5827  -44.8706 H         1 UNK         0.0600 
    189 H189       -1.0948   -9.0208  -47.1337 H         1 UNK         0.3000 
    190 H190       -2.1711  -21.9616  -44.4012 H         1 UNK         0.3000 
    191 H191       -4.2745  -23.4507  -43.2176 H         1 UNK         0.0600 
    192 H192       -2.8778  -21.8482  -41.9539 H         1 UNK         0.0600 
    193 H193       -2.7936  -23.4343  -41.2028 H         1 UNK         0.0600 
    194 H194       -1.4516  -22.8573  -42.1836 H         1 UNK         0.0600 
    195 H195       -1.0811  -24.4798  -44.4250 H         1 UNK         0.3000 
    196 H196       -1.2904  -27.1946  -43.4737 H         1 UNK         0.0600 
    197 H197        0.7669  -27.5156  -44.8552 H         1 UNK         0.0600 
    198 H198        0.8947  -26.1128  -43.8046 H         1 UNK         0.0600 
    199 H199        0.5792  -25.8982  -45.5233 H         1 UNK         0.0600 
    200 H200       -1.5163  -25.7537  -46.7944 H         1 UNK         0.3000 
    201 H201       -2.1989  -28.4179  -47.8655 H         1 UNK         0.0600 
    202 H202       -0.2938  -27.0563  -48.7778 H         1 UNK         0.0600 
    203 H203       -1.4413  -25.8168  -49.2881 H         1 UNK         0.0600 
    204 H204       -1.5092  -27.4270  -49.9902 H         1 UNK         0.0600 
    205 H205       -3.8764  -25.4240  -47.2090 H         1 UNK         0.3000 
    206 H206       -5.8156  -24.5112  -47.7600 H         1 UNK         0.0600 
    207 H207       -6.7794  -26.7714  -47.0984 H         1 UNK         0.0600 
    208 H208       -7.7732  -25.8652  -48.2192 H         1 UNK         0.0600 
    209 H209       -6.8044  -27.2121  -48.8038 H         1 UNK         0.0600 
    210 H210       -7.5598  -24.9014  -49.9643 H         1 UNK         0.3000 
    211 H211       -7.9377  -24.1647  -52.0348 H         1 UNK         0.0600 
    212 H212       -5.5294  -25.9525  -52.6636 H         1 UNK         0.0600 
    213 H213       -6.7876  -25.4827  -53.8009 H         1 UNK         0.0600 
    214 H214       -7.1855  -26.5046  -52.4307 H         1 UNK         0.0600 
    215 H215       -6.6247  -22.1812  -50.6902 H         1 UNK         0.3000 
    216 H216       -5.5464  -20.2594  -50.8456 H         1 UNK         0.0600 
    217 H217       -5.7242  -20.5245  -53.8874 H         1 UNK         0.0600 
    218 H218       -5.5100  -19.0463  -52.9556 H         1 UNK         0.0600 
    219 H219       -7.0204  -19.9327  -52.8477 H         1 UNK         0.0600 
    220 H220       -3.9709  -22.2003  -50.1727 H         1 UNK         0.3000 
    221 H221       -1.8958  -22.8991  -49.8173 H         1 UNK         0.0600 
    222 H222       -1.0099  -20.3812  -51.3276 H         1 UNK         0.0600 
    223 H223       -1.2638  -20.5167  -49.5907 H         1 UNK         0.0600 
    224 H224        0.0380  -21.4035  -50.3703 H         1 UNK         0.0600 
    225 H225       -3.2041  -24.2716  -51.6375 H         1 UNK         0.3000 
    226 H226       -3.1997  -25.6165  -53.4091 H         1 UNK         0.0600 
    227 H227       -1.2417  -26.6204  -52.2343 H         1 UNK         0.0600 
    228 H228       -1.1034  -26.8049  -53.9740 H         1 UNK         0.0600 
    229 H229       -0.1448  -25.5854  -53.1461 H         1 UNK         0.0600 
    230 H230       -3.7204  -23.1413  -54.0997 H         1 UNK         0.3000 
    231 H231       -3.9778  -21.6559  -55.6486 H         1 UNK         0.0600 
    232 H232       -2.7060  -23.6132  -57.6297 H         1 UNK         0.0600 
    233 H233       -3.7809  -22.2784  -58.0170 H         1 UNK         0.0600 
    234 H234       -4.3905  -23.6496  -57.1080 H         1 UNK         0.0600 
    235 H235       -1.1816  -21.8261  -54.2522 H         1 UNK         0.3000 
    236 H236        0.6034  -20.4656  -56.0645 H         1 UNK         0.0600 
    237 H237        1.4146  -21.8329  -54.1395 H         1 UNK         0.0600 
    238 H238        2.0326  -20.1897  -54.0824 H         1 UNK         0.0600 
    239 H239        0.7199  -20.6615  -53.0156 H         1 UNK         0.0600 
    240 H240       -1.9583  -19.3454  -53.8826 H         1 UNK         0.3000 
    241 H241       -1.4881  -16.6012  -54.8577 H         1 UNK         0.0600 
    242 H242       -5.0387  -17.9308  -55.2924 H         1 UNK         0.3800 
    243 H243       -3.5522  -18.8344  -55.4248 H         1 UNK         0.3800 
    244 H244       -0.3711  -16.5888  -52.7119 H         1 UNK         0.0800 
    245 H245       -1.7633  -15.5620  -52.6858 H         1 UNK         0.0800 
    246 H246       -4.1500  -16.3712  -51.3136 H         1 UNK         0.0800 
    247 H247       -2.9157  -15.3307  -50.6436 H         1 UNK         0.0800 
@<TRIPOS>BOND
     1    1    2 1    
     2    1  127 1    
     3    1  128 1    
     4    1  129 1    
     5    2    3 2    
     6    2    4 am   BACKBONE|DICT|INTERRES
     7    4    5 1    
     8    4  130 1    
     9    5    6 1    
    10    5   65 1    
    11    5  131 1    
    12    6    7 1    
    13    6  132 1    
    14    6  133 1    
    15    7    8 1    
    16    8    9 1    
    17    8  134 1    
    18    8  135 1    
    19    9   10 ar   
    20    9   14 ar   
    21   10   11 ar   
    22   10  136 1    
    23   11   12 ar   
    24   11  126 1    
    25   12   13 ar   
    26   12  137 1    
    27   13   14 ar   
    28   13   15 1    
    29   14  138 1    
    30   15   16 1    
    31   15  139 1    
    32   15  140 1    
    33   16   17 1    
    34   17   18 1    
    35   17  141 1    
    36   17  142 1    
    37   18   19 1    
    38   18   67 1    
    39   18  143 1    
    40   19   20 am   BACKBONE|DICT|INTERRES
    41   19  144 1    
    42   20   21 2    
    43   20   22 1    
    44   22   23 1    
    45   22   24 1    
    46   22  145 1    
    47   23  146 1    
    48   23  147 1    
    49   23  148 1    
    50   24   25 am   BACKBONE|DICT|INTERRES
    51   24  149 1    
    52   25   26 2    
    53   25   27 1    
    54   27   28 1    
    55   27   29 1    
    56   27  150 1    
    57   28  151 1    
    58   28  152 1    
    59   28  153 1    
    60   29   30 am   BACKBONE|DICT|INTERRES
    61   29  154 1    
    62   30   31 2    
    63   30   32 1    
    64   32   33 1    
    65   32   34 1    
    66   32  155 1    
    67   33  156 1    
    68   33  157 1    
    69   33  158 1    
    70   34   35 am   BACKBONE|DICT|INTERRES
    71   34  159 1    
    72   35   36 2    
    73   35   37 1    
    74   37   38 1    
    75   37   39 1    
    76   37  160 1    
    77   38  161 1    
    78   38  162 1    
    79   38  163 1    
    80   39   40 am   BACKBONE|DICT|INTERRES
    81   39  164 1    
    82   40   41 2    
    83   40   42 1    
    84   42   43 1    
    85   42   44 1    
    86   42  165 1    
    87   43  166 1    
    88   43  167 1    
    89   43  168 1    
    90   44   45 am   BACKBONE|DICT|INTERRES
    91   44  169 1    
    92   45   46 2    
    93   45   47 1    
    94   47   48 1    
    95   47   49 1    
    96   47  170 1    
    97   48  171 1    
    98   48  172 1    
    99   48  173 1    
   100   49   50 am   BACKBONE|DICT|INTERRES
   101   49  174 1    
   102   50   51 2    
   103   50   52 1    
   104   52   53 1    
   105   52   54 1    
   106   52  175 1    
   107   53  176 1    
   108   53  177 1    
   109   53  178 1    
   110   54   55 am   BACKBONE|DICT|INTERRES
   111   54  179 1    
   112   55   56 2    
   113   55   57 1    
   114   57   58 1    
   115   57   59 1    
   116   57  180 1    
   117   58  181 1    
   118   58  182 1    
   119   58  183 1    
   120   59   60 am   BACKBONE|DICT|INTERRES
   121   59  184 1    
   122   60   61 2    
   123   60   62 1    
   124   62   63 1    
   125   62   64 1    
   126   62  185 1    
   127   63  186 1    
   128   63  187 1    
   129   63  188 1    
   130   64   65 am   BACKBONE|DICT|INTERRES
   131   64  189 1    
   132   65   66 2    
   133   67   68 2    
   134   67   69 am   BACKBONE|DICT|INTERRES
   135   69   70 1    
   136   69  190 1    
   137   70   71 1    
   138   70   72 1    
   139   70  191 1    
   140   71  192 1    
   141   71  193 1    
   142   71  194 1    
   143   72   73 2    
   144   72   74 am   BACKBONE|DICT|INTERRES
   145   74   75 1    
   146   74  195 1    
   147   75   76 1    
   148   75   77 1    
   149   75  196 1    
   150   76  197 1    
   151   76  198 1    
   152   76  199 1    
   153   77   78 2    
   154   77   79 am   BACKBONE|DICT|INTERRES
   155   79   80 1    
   156   79  200 1    
   157   80   81 1    
   158   80   82 1    
   159   80  201 1    
   160   81  202 1    
   161   81  203 1    
   162   81  204 1    
   163   82   83 2    
   164   82   84 am   BACKBONE|DICT|INTERRES
   165   84   85 1    
   166   84  205 1    
   167   85   86 1    
   168   85   87 1    
   169   85  206 1    
   170   86  207 1    
   171   86  208 1    
   172   86  209 1    
   173   87   88 2    
   174   87   89 am   BACKBONE|DICT|INTERRES
   175   89   90 1    
   176   89  210 1    
   177   90   91 1    
   178   90   92 1    
   179   90  211 1    
   180   91  212 1    
   181   91  213 1    
   182   91  214 1    
   183   92   93 2    
   184   92   94 am   BACKBONE|DICT|INTERRES
   185   94   95 1    
   186   94  215 1    
   187   95   96 1    
   188   95   97 1    
   189   95  216 1    
   190   96  217 1    
   191   96  218 1    
   192   96  219 1    
   193   97   98 2    
   194   97   99 am   BACKBONE|DICT|INTERRES
   195   99  100 1    
   196   99  220 1    
   197  100  101 1    
   198  100  102 1    
   199  100  221 1    
   200  101  222 1    
   201  101  223 1    
   202  101  224 1    
   203  102  103 2    
   204  102  104 am   BACKBONE|DICT|INTERRES
   205  104  105 1    
   206  104  225 1    
   207  105  106 1    
   208  105  107 1    
   209  105  226 1    
   210  106  227 1    
   211  106  228 1    
   212  106  229 1    
   213  107  108 2    
   214  107  109 am   BACKBONE|DICT|INTERRES
   215  109  110 1    
   216  109  230 1    
   217  110  111 1    
   218  110  112 1    
   219  110  231 1    
   220  111  232 1    
   221  111  233 1    
   222  111  234 1    
   223  112  113 2    
   224  112  114 am   BACKBONE|DICT|INTERRES
   225  114  115 1    
   226  114  235 1    
   227  115  116 1    
   228  115  117 1    
   229  115  236 1    
   230  116  237 1    
   231  116  238 1    
   232  116  239 1    
   233  117  118 2    
   234  117  119 am   BACKBONE|DICT|INTERRES
   235  119  120 1    
   236  119  240 1    
   237  120  121 1    
   238  120  124 1    
   239  120  241 1    
   240  121  122 am   BACKBONE|DICT|INTERRES
   241  121  123 2    
   242  122  242 1    
   243  122  243 1    
   244  124  125 1    
   245  124  244 1    
   246  124  245 1    
   247  125  126 1    
   248  126  246 1    
   249  126  247 1    
@<TRIPOS>SUBSTRUCTURE
     1 UNK         1 GROUP             0       ****    0 ROOT    
