@<TRIPOS>MOLECULE
3R540
247   249    1
SMALL
USER_CHARGES


@<TRIPOS>ATOM
      1 CA         -5.0881  -14.4016  -46.4859 C.3       0 UNK        -0.1800 
      2 C          -4.3668  -14.1724  -47.8065 C.2       0 UNK         0.5000 
      3 O          -4.0075  -13.0377  -48.1203 O.2       0 UNK        -0.5000 
      4 N          -4.1614  -15.2439  -48.5824 N.am      1 UNK        -0.5000 
      5 CA         -3.4253  -15.2329  -49.8526 C.3       1 UNK         0.1400 
      6 C6         -3.7327  -16.4898  -50.7046 C.3       23 UNK        -0.0398 
      7 S7         -3.4542  -18.0855  -49.8466 S.3       23 UNK        -0.2404 
      8 C8         -2.4469  -19.0079  -51.0499 C.3       23 UNK        -0.0205 
      9 C9         -0.9491  -18.8154  -50.8572 C.ar      23 UNK        -0.0193 
     10 C10        -0.2934  -17.6973  -51.3835 C.ar      23 UNK        -0.1150 
     11 C11         1.0914  -17.5558  -51.2439 C.ar      23 UNK        -0.0193 
     12 C12         1.8205  -18.5412  -50.5698 C.ar      23 UNK        -0.1150 
     13 C13         1.1773  -19.6627  -50.0407 C.ar      23 UNK        -0.0193 
     14 C14        -0.2047  -19.7947  -50.1931 C.ar      23 UNK        -0.1150 
     15 C15         1.9685  -20.7428  -49.3190 C.3       23 UNK        -0.0205 
     16 S16         2.1685  -20.3539  -47.5510 S.3       23 UNK        -0.2404 
     17 C17         2.3923  -22.0264  -46.8405 C.3       23 UNK        -0.0398 
     18 CA          1.1495  -22.7008  -46.1860 C.3       11 UNK         0.1400 
     19 N           1.0006  -22.4152  -44.7529 N.am      11 UNK        -0.5000 
     20 C           0.2364  -23.1529  -43.9295 C.2       10 UNK         0.5000 
     21 O          -0.3938  -24.1437  -44.2975 O.2       10 UNK        -0.5000 
     22 CA          0.1119  -22.7048  -42.4622 C.3       10 UNK         0.1400 
     23 CB          1.3351  -23.1424  -41.6439 C.3       10 UNK        -0.1800 
     24 N          -0.0990  -21.2658  -42.3249 N.am      10 UNK        -0.5000 
     25 C          -1.1759  -20.6127  -42.7861 C.2       9 UNK         0.5000 
     26 O          -2.1351  -21.1670  -43.3231 O.2       9 UNK        -0.5000 
     27 CA         -1.1483  -19.0765  -42.6843 C.3       9 UNK         0.1400 
     28 CB         -1.5742  -18.6078  -41.2854 C.3       9 UNK        -0.1800 
     29 N           0.1666  -18.5228  -43.0061 N.am      9 UNK        -0.5000 
     30 C           0.7843  -18.6667  -44.1855 C.2       8 UNK         0.5000 
     31 O           0.2710  -19.2311  -45.1490 O.2       8 UNK        -0.5000 
     32 CA          2.2356  -18.1602  -44.2746 C.3       8 UNK         0.1400 
     33 CB          2.3036  -16.6332  -44.4217 C.3       8 UNK        -0.1800 
     34 N           3.0098  -18.5577  -43.1021 N.am      8 UNK        -0.5000 
     35 C           3.4043  -19.8095  -42.8380 C.2       7 UNK         0.5000 
     36 O           3.1950  -20.7639  -43.5863 O.2       7 UNK        -0.5000 
     37 CA          4.1307  -20.0321  -41.4976 C.3       7 UNK         0.1400 
     38 CB          5.6444  -19.8365  -41.6676 C.3       7 UNK        -0.1800 
     39 N           3.6456  -19.1435  -40.4384 N.am      7 UNK        -0.5000 
     40 C           2.4331  -19.2346  -39.8737 C.2       6 UNK         0.5000 
     41 O           1.6106  -20.1042  -40.1608 O.2       6 UNK        -0.5000 
     42 CA          2.0586  -18.1307  -38.8642 C.3       6 UNK         0.1400 
     43 CB          2.6421  -18.4415  -37.4778 C.3       6 UNK        -0.1800 
     44 N           2.4820  -16.7890  -39.2855 N.am      6 UNK        -0.5000 
     45 C           2.0665  -16.1881  -40.4088 C.2       5 UNK         0.5000 
     46 O           1.2960  -16.7233  -41.2054 O.2       5 UNK        -0.5000 
     47 CA          2.6560  -14.7965  -40.7176 C.3       5 UNK         0.1400 
     48 CB          4.1262  -14.9279  -41.1489 C.3       5 UNK        -0.1800 
     49 N           1.9363  -14.0796  -41.7747 N.am      5 UNK        -0.5000 
     50 C           0.6605  -13.6802  -41.7399 C.2       4 UNK         0.5000 
     51 O          -0.0688  -13.8427  -40.7599 O.2       4 UNK        -0.5000 
     52 CA          0.0801  -12.9589  -42.9798 C.3       4 UNK         0.1400 
     53 CB          0.0058  -11.4415  -42.7223 C.3       4 UNK        -0.1800 
     54 N           0.6987  -13.2118  -44.2947 N.am      4 UNK        -0.5000 
     55 C           1.9399  -12.9504  -44.7249 C.2       3 UNK         0.5000 
     56 O           2.8612  -12.6355  -43.9705 O.2       3 UNK        -0.5000 
     57 CA          2.1929  -13.0141  -46.2541 C.3       3 UNK         0.1400 
     58 CB          3.6926  -12.9472  -46.5990 C.3       3 UNK        -0.1800 
     59 N           1.6156  -14.1597  -46.9694 N.am      3 UNK        -0.5000 
     60 C           0.3207  -14.3935  -47.2165 C.2       2 UNK         0.5000 
     61 O          -0.5962  -13.7281  -46.7286 O.2       2 UNK        -0.5000 
     62 CA          0.0154  -15.5684  -48.1662 C.3       2 UNK         0.1400 
     63 CB          0.3256  -16.9226  -47.5175 C.3       2 UNK        -0.1800 
     64 N          -1.3918  -15.5802  -48.5408 N.am      2 UNK        -0.5000 
     65 C          -1.9062  -15.0477  -49.6534 C.2       1 UNK         0.5000 
     66 O          -1.2454  -14.4481  -50.5029 O.2       1 UNK        -0.5000 
     67 C          -0.1761  -22.5019  -46.9548 C.2       11 UNK         0.5000 
     68 O          -0.5113  -23.3362  -47.7946 O.2       11 UNK        -0.5000 
     69 N          -0.9299  -21.4445  -46.6179 N.am      12 UNK        -0.5000 
     70 CA         -2.2597  -21.1591  -47.1588 C.3       12 UNK         0.1400 
     71 CB         -2.7330  -19.7844  -46.6657 C.3       12 UNK        -0.1800 
     72 C          -3.2859  -22.2545  -46.8227 C.2       12 UNK         0.5000 
     73 O          -4.0484  -22.6608  -47.7023 O.2       12 UNK        -0.5000 
     74 N          -3.2575  -22.7385  -45.5730 N.am      13 UNK        -0.5000 
     75 CA         -4.0764  -23.8504  -45.0938 C.3       13 UNK         0.1400 
     76 CB         -3.9701  -23.9512  -43.5648 C.3       13 UNK        -0.1800 
     77 C          -3.7061  -25.1876  -45.7598 C.2       13 UNK         0.5000 
     78 O          -4.6042  -25.9193  -46.1756 O.2       13 UNK        -0.5000 
     79 N          -2.4002  -25.4697  -45.8786 N.am      14 UNK        -0.5000 
     80 CA         -1.8598  -26.6707  -46.5218 C.3       14 UNK         0.1400 
     81 CB         -0.3481  -26.7594  -46.2651 C.3       14 UNK        -0.1800 
     82 C          -2.1573  -26.7303  -48.0310 C.2       14 UNK         0.5000 
     83 O          -2.4903  -27.7996  -48.5433 O.2       14 UNK        -0.5000 
     84 N          -2.0624  -25.5777  -48.7076 N.am      15 UNK        -0.5000 
     85 CA         -2.4251  -25.4040  -50.1149 C.3       15 UNK         0.1400 
     86 CB         -1.8543  -24.0650  -50.6118 C.3       15 UNK        -0.1800 
     87 C          -3.9462  -25.4495  -50.3586 C.2       15 UNK         0.5000 
     88 O          -4.3641  -25.6942  -51.4902 O.2       15 UNK        -0.5000 
     89 N          -4.7359  -25.1859  -49.3054 N.am      16 UNK        -0.5000 
     90 CA         -6.1869  -24.9765  -49.3064 C.3       16 UNK         0.1400 
     91 CB         -6.9373  -26.2769  -49.6599 C.3       16 UNK        -0.1800 
     92 C          -6.5662  -23.7815  -50.2035 C.2       16 UNK         0.5000 
     93 O          -7.4324  -23.8967  -51.0726 O.2       16 UNK        -0.5000 
     94 N          -5.8364  -22.6727  -50.0144 N.am      17 UNK        -0.5000 
     95 CA         -5.8327  -21.4182  -50.7771 C.3       17 UNK         0.1400 
     96 CB         -7.2078  -20.7265  -50.7456 C.3       17 UNK        -0.1800 
     97 C          -5.3051  -21.5333  -52.2225 C.2       17 UNK         0.5000 
     98 O          -4.6667  -20.5910  -52.6851 O.2       17 UNK        -0.5000 
     99 N          -5.5697  -22.6541  -52.9108 N.am      18 UNK        -0.5000 
    100 CA        -5.1041  -23.0119  -54.2589 C.3       18 UNK         0.1400 
    101 CB        -3.6147  -23.4078  -54.2175 C.3       18 UNK        -0.1800 
    102 C         -5.4042  -21.9279  -55.3168 C.2       18 UNK         0.5000 
    103 O         -4.5027  -21.4840  -56.0310 O.2       18 UNK        -0.5000 
    104 N         -6.6681  -21.4766  -55.3489 N.am      19 UNK        -0.5000 
    105 CA        -7.1908  -20.3862  -56.1879 C.3       19 UNK         0.1400 
    106 CB        -7.1816  -20.7886  -57.6777 C.3       19 UNK        -0.1800 
    107 C         -6.4924  -19.0311  -55.9259 C.2       19 UNK         0.5000 
    108 O         -6.3474  -18.2188  -56.8400 O.2       19 UNK        -0.5000 
    109 N         -6.0597  -18.8379  -54.6719 N.am      20 UNK        -0.5000 
    110 CA        -5.2892  -17.7196  -54.1228 C.3       20 UNK         0.1400 
    111 CB        -5.9929  -16.3654  -54.3472 C.3       20 UNK        -0.1800 
    112 C         -3.8064  -17.6943  -54.5479 C.2       20 UNK         0.5000 
    113 O         -3.1238  -16.7328  -54.1952 O.2       20 UNK        -0.5000 
    114 N         -3.3318  -18.7445  -55.2406 N.am      21 UNK        -0.5000 
    115 CA        -1.9584  -19.0422  -55.6723 C.3       21 UNK         0.1400 
    116 CB        -1.2011  -19.7722  -54.5467 C.3       21 UNK        -0.1800 
    117 C         -1.1765  -17.8309  -56.2238 C.2       21 UNK         0.5000 
    118 O         -1.2081  -17.5856  -57.4306 O.2       21 UNK        -0.5000 
    119 N         -0.5018  -17.1018  -55.3249 N.am      22 UNK        -0.5000 
    120 CA         0.1877  -15.8262  -55.5701 C.3       22 UNK         0.1400 
    121 C         -0.7201  -14.6906  -56.1302 C.2       22 UNK         0.5000 
    122 N         -2.0176  -14.6873  -55.8505 N.am      22 UNK        -0.7600 
    123 O         -0.2352  -13.7993  -56.8218 O.2       22 UNK        -0.5000 
    124 C124        0.8992  -15.3156  -54.2904 C.3       23 UNK        -0.0398 
    125 S125        2.1129  -16.4918  -53.5964 S.3       23 UNK        -0.2404 
    126 C126        1.8057  -16.3360  -51.8056 C.3       23 UNK        -0.0205 
    127 H127       -5.3550  -15.4495  -46.3456 H         1 UNK         0.0600 
    128 H128       -6.0027  -13.8097  -46.4494 H         1 UNK         0.0600 
    129 H129       -4.4510  -14.0992  -45.6546 H         1 UNK         0.0600 
    130 H130       -4.4910  -16.1511  -48.2832 H         1 UNK         0.3000 
    131 H131       -3.7693  -14.3675  -50.4234 H         1 UNK         0.0600 
    132 H132       -4.7786  -16.4640  -51.0120 H         1 UNK         0.0800 
    133 H133       -3.1598  -16.4575  -51.6305 H         1 UNK         0.0800 
    134 H134       -2.7371  -18.7358  -52.0630 H         1 UNK         0.0800 
    135 H135       -2.6894  -20.0666  -50.9508 H         1 UNK         0.0800 
    136 H136       -0.8570  -16.9399  -51.9087 H         1 UNK         0.1150 
    137 H137        2.8903  -18.4373  -50.4555 H         1 UNK         0.1150 
    138 H138       -0.6958  -20.6729  -49.8030 H         1 UNK         0.1150 
    139 H139        1.4599  -21.7013  -49.4344 H         1 UNK         0.0800 
    140 H140        2.9519  -20.8603  -49.7764 H         1 UNK         0.0800 
    141 H141        2.7688  -22.6760  -47.6319 H         1 UNK         0.0800 
    142 H142        3.2062  -21.9746  -46.1162 H         1 UNK         0.0800 
    143 H143        1.3533  -23.7726  -46.2378 H         1 UNK         0.0600 
    144 H144        1.5187  -21.6242  -44.3850 H         1 UNK         0.3000 
    145 H145       -0.7636  -23.2033  -42.0408 H         1 UNK         0.0600 
    146 H146        1.2208  -22.8800  -40.5920 H         1 UNK         0.0600 
    147 H147        2.2524  -22.6809  -42.0065 H         1 UNK         0.0600 
    148 H148        1.4708  -24.2233  -41.6964 H         1 UNK         0.0600 
    149 H149        0.6213  -20.7407  -41.8411 H         1 UNK         0.3000 
    150 H150       -1.8617  -18.6810  -43.4099 H         1 UNK         0.0600 
    151 H151       -2.5673  -18.9819  -41.0339 H         1 UNK         0.0600 
    152 H152       -1.6104  -17.5196  -41.2293 H         1 UNK         0.0600 
    153 H153       -0.8855  -18.9578  -40.5161 H         1 UNK         0.0600 
    154 H154        0.6331  -17.9921  -42.2721 H         1 UNK         0.3000 
    155 H155        2.6973  -18.6062  -45.1574 H         1 UNK         0.0600 
    156 H156        1.8255  -16.3087  -45.3384 H         1 UNK         0.0600 
    157 H157        3.3342  -16.2797  -44.4536 H         1 UNK         0.0600 
    158 H158        1.7953  -16.1194  -43.6098 H         1 UNK         0.0600 
    159 H159        3.1688  -17.8473  -42.4047 H         1 UNK         0.3000 
    160 H160        3.9526  -21.0641  -41.1884 H         1 UNK         0.0600 
    161 H161        5.8895  -18.8143  -41.9587 H         1 UNK         0.0600 
    162 H162        6.0392  -20.5008  -42.4375 H         1 UNK         0.0600 
    163 H163        6.1772  -20.0599  -40.7431 H         1 UNK         0.0600 
    164 H164        4.2620  -18.4004  -40.1444 H         1 UNK         0.3000 
    165 H165        0.9698  -18.1219  -38.7794 H         1 UNK         0.0600 
    166 H166        2.3019  -17.7189  -36.7358 H         1 UNK         0.0600 
    167 H167        2.3289  -19.4287  -37.1352 H         1 UNK         0.0600 
    168 H168        3.7327  -18.4273  -37.4856 H         1 UNK         0.0600 
    169 H169        3.1230  -16.3040  -38.6741 H         1 UNK         0.3000 
    170 H170        2.6030  -14.1957  -39.8077 H         1 UNK         0.0600 
    171 H171        4.2263  -15.5189  -42.0601 H         1 UNK         0.0600 
    172 H172        4.5689  -13.9495  -41.3377 H         1 UNK         0.0600 
    173 H173        4.7279  -15.4082  -40.3766 H         1 UNK         0.0600 
    174 H174        2.4691  -13.8204  -42.5996 H         1 UNK         0.3000 
    175 H175       -0.9444  -13.3215  -43.0765 H         1 UNK         0.0600 
    176 H176        0.9980  -10.9999  -42.6236 H         1 UNK         0.0600 
    177 H177       -0.5112  -10.9286  -43.5333 H         1 UNK         0.0600 
    178 H178       -0.5402  -11.2250  -41.8032 H         1 UNK         0.0600 
    179 H179        0.0405  -13.4763  -45.0249 H         1 UNK         0.3000 
    180 H180        1.7294  -12.1151  -46.6653 H         1 UNK         0.0600 
    181 H181        4.2312  -13.8122  -46.2099 H         1 UNK         0.0600 
    182 H182        4.1568  -12.0536  -46.1796 H         1 UNK         0.0600 
    183 H183        3.8500  -12.9097  -47.6772 H         1 UNK         0.0600 
    184 H184        2.2919  -14.7838  -47.3842 H         1 UNK         0.3000 
    185 H185        0.6335  -15.4618  -49.0595 H         1 UNK         0.0600 
    186 H186       -0.1418  -17.0088  -46.5369 H         1 UNK         0.0600 
    187 H187       -0.0424  -17.7481  -48.1262 H         1 UNK         0.0600 
    188 H188        1.3987  -17.0751  -47.4066 H         1 UNK         0.0600 
    189 H189       -2.0258  -16.0038  -47.8808 H         1 UNK         0.3000 
    190 H190       -0.5485  -20.7671  -45.9614 H         1 UNK         0.3000 
    191 H191       -2.1831  -21.1175  -48.2449 H         1 UNK         0.0600 
    192 H192       -2.0549  -18.9968  -46.9950 H         1 UNK         0.0600 
    193 H193       -2.7906  -19.7425  -45.5782 H         1 UNK         0.0600 
    194 H194       -3.7226  -19.5477  -47.0581 H         1 UNK         0.0600 
    195 H195       -2.6320  -22.3103  -44.8972 H         1 UNK         0.3000 
    196 H196       -5.1162  -23.6312  -45.3455 H         1 UNK         0.0600 
    197 H197       -4.3118  -23.0335  -43.0858 H         1 UNK         0.0600 
    198 H198       -2.9448  -24.1333  -43.2419 H         1 UNK         0.0600 
    199 H199       -4.5855  -24.7666  -43.1828 H         1 UNK         0.0600 
    200 H200       -1.7218  -24.8366  -45.4620 H         1 UNK         0.3000 
    201 H201       -2.3333  -27.5378  -46.0568 H         1 UNK         0.0600 
    202 H202       -0.1311  -26.7992  -45.1976 H         1 UNK         0.0600 
    203 H203        0.1809  -25.9027  -46.6831 H         1 UNK         0.0600 
    204 H204        0.0733  -27.6585  -46.7163 H         1 UNK         0.0600 
    205 H205       -1.7035  -24.7544  -48.2298 H         1 UNK         0.3000 
    206 H206       -1.9695  -26.2103  -50.6932 H         1 UNK         0.0600 
    207 H207       -0.7709  -24.0302  -50.4963 H         1 UNK         0.0600 
    208 H208       -2.2764  -23.2207  -50.0648 H         1 UNK         0.0600 
    209 H209       -2.0706  -23.9112  -51.6686 H         1 UNK         0.0600 
    210 H210       -4.2775  -24.9908  -48.4253 H         1 UNK         0.3000 
    211 H211       -6.4607  -24.7009  -48.2869 H         1 UNK         0.0600 
    212 H212       -6.7492  -26.5924  -50.6864 H         1 UNK         0.0600 
    213 H213       -8.0143  -26.1448  -49.5519 H         1 UNK         0.0600 
    214 H214       -6.6415  -27.0917  -48.9990 H         1 UNK         0.0600 
    215 H215       -5.1456  -22.7094  -49.2674 H         1 UNK         0.3000 
    216 H216       -5.1330  -20.7687  -50.2488 H         1 UNK         0.0600 
    217 H217       -7.1552  -19.7401  -51.2085 H         1 UNK         0.0600 
    218 H218       -7.5541  -20.5859  -49.7218 H         1 UNK         0.0600 
    219 H219       -7.9662  -21.2969  -51.2823 H         1 UNK         0.0600 
    220 H220       -6.1527  -23.3433  -52.4456 H         1 UNK         0.3000 
    221 H221       -5.6694  -23.8947  -54.5606 H         1 UNK         0.0600 
    222 H222       -2.9918  -22.5981  -53.8389 H         1 UNK         0.0600 
    223 H223       -3.4606  -24.2761  -53.5790 H         1 UNK         0.0600 
    224 H224       -3.2464  -23.6735  -55.2091 H         1 UNK         0.0600 
    225 H225       -7.3306  -21.8900  -54.7070 H         1 UNK         0.3000 
    226 H226       -8.2319  -20.2474  -55.8932 H         1 UNK         0.0600 
    227 H227       -7.6858  -21.7426  -57.8315 H         1 UNK         0.0600 
    228 H228       -7.7008  -20.0475  -58.2863 H         1 UNK         0.0600 
    229 H229       -6.1675  -20.8781  -58.0682 H         1 UNK         0.0600 
    230 H230       -6.1573  -19.6151  -54.0317 H         1 UNK         0.3000 
    231 H231       -5.2729  -17.8932  -53.0462 H         1 UNK         0.0600 
    232 H232       -5.5142  -15.5768  -53.7656 H         1 UNK         0.0600 
    233 H233       -7.0371  -16.4058  -54.0374 H         1 UNK         0.0600 
    234 H234       -5.9616  -16.0583  -55.3927 H         1 UNK         0.0600 
    235 H235       -3.9943  -19.4785  -55.4627 H         1 UNK         0.3000 
    236 H236       -2.0566  -19.7463  -56.5000 H         1 UNK         0.0600 
    237 H237       -1.0882  -19.1524  -53.6610 H         1 UNK         0.0600 
    238 H238       -1.7241  -20.6795  -54.2479 H         1 UNK         0.0600 
    239 H239       -0.2019  -20.0645  -54.8717 H         1 UNK         0.0600 
    240 H240       -0.5589  -17.3818  -54.3577 H         1 UNK         0.3000 
    241 H241        0.9494  -16.0201  -56.3272 H         1 UNK         0.0600 
    242 H242       -2.6062  -13.9541  -56.2112 H         1 UNK         0.3800 
    243 H243       -2.4149  -15.4166  -55.2609 H         1 UNK         0.3800 
    244 H244        0.1518  -15.0723  -53.5328 H         1 UNK         0.0800 
    245 H245        1.4334  -14.3863  -54.4968 H         1 UNK         0.0800 
    246 H246        1.2342  -15.4347  -51.5807 H         1 UNK         0.0800 
    247 H247        2.7661  -16.2051  -51.3048 H         1 UNK         0.0800 
@<TRIPOS>BOND
     1    1    2 1    
     2    1  127 1    
     3    1  128 1    
     4    1  129 1    
     5    2    3 2    
     6    2    4 am   BACKBONE|DICT|INTERRES
     7    4    5 1    
     8    4  130 1    
     9    5    6 1    
    10    5   65 1    
    11    5  131 1    
    12    6    7 1    
    13    6  132 1    
    14    6  133 1    
    15    7    8 1    
    16    8    9 1    
    17    8  134 1    
    18    8  135 1    
    19    9   10 ar   
    20    9   14 ar   
    21   10   11 ar   
    22   10  136 1    
    23   11   12 ar   
    24   11  126 1    
    25   12   13 ar   
    26   12  137 1    
    27   13   14 ar   
    28   13   15 1    
    29   14  138 1    
    30   15   16 1    
    31   15  139 1    
    32   15  140 1    
    33   16   17 1    
    34   17   18 1    
    35   17  141 1    
    36   17  142 1    
    37   18   19 1    
    38   18   67 1    
    39   18  143 1    
    40   19   20 am   BACKBONE|DICT|INTERRES
    41   19  144 1    
    42   20   21 2    
    43   20   22 1    
    44   22   23 1    
    45   22   24 1    
    46   22  145 1    
    47   23  146 1    
    48   23  147 1    
    49   23  148 1    
    50   24   25 am   BACKBONE|DICT|INTERRES
    51   24  149 1    
    52   25   26 2    
    53   25   27 1    
    54   27   28 1    
    55   27   29 1    
    56   27  150 1    
    57   28  151 1    
    58   28  152 1    
    59   28  153 1    
    60   29   30 am   BACKBONE|DICT|INTERRES
    61   29  154 1    
    62   30   31 2    
    63   30   32 1    
    64   32   33 1    
    65   32   34 1    
    66   32  155 1    
    67   33  156 1    
    68   33  157 1    
    69   33  158 1    
    70   34   35 am   BACKBONE|DICT|INTERRES
    71   34  159 1    
    72   35   36 2    
    73   35   37 1    
    74   37   38 1    
    75   37   39 1    
    76   37  160 1    
    77   38  161 1    
    78   38  162 1    
    79   38  163 1    
    80   39   40 am   BACKBONE|DICT|INTERRES
    81   39  164 1    
    82   40   41 2    
    83   40   42 1    
    84   42   43 1    
    85   42   44 1    
    86   42  165 1    
    87   43  166 1    
    88   43  167 1    
    89   43  168 1    
    90   44   45 am   BACKBONE|DICT|INTERRES
    91   44  169 1    
    92   45   46 2    
    93   45   47 1    
    94   47   48 1    
    95   47   49 1    
    96   47  170 1    
    97   48  171 1    
    98   48  172 1    
    99   48  173 1    
   100   49   50 am   BACKBONE|DICT|INTERRES
   101   49  174 1    
   102   50   51 2    
   103   50   52 1    
   104   52   53 1    
   105   52   54 1    
   106   52  175 1    
   107   53  176 1    
   108   53  177 1    
   109   53  178 1    
   110   54   55 am   BACKBONE|DICT|INTERRES
   111   54  179 1    
   112   55   56 2    
   113   55   57 1    
   114   57   58 1    
   115   57   59 1    
   116   57  180 1    
   117   58  181 1    
   118   58  182 1    
   119   58  183 1    
   120   59   60 am   BACKBONE|DICT|INTERRES
   121   59  184 1    
   122   60   61 2    
   123   60   62 1    
   124   62   63 1    
   125   62   64 1    
   126   62  185 1    
   127   63  186 1    
   128   63  187 1    
   129   63  188 1    
   130   64   65 am   BACKBONE|DICT|INTERRES
   131   64  189 1    
   132   65   66 2    
   133   67   68 2    
   134   67   69 am   BACKBONE|DICT|INTERRES
   135   69   70 1    
   136   69  190 1    
   137   70   71 1    
   138   70   72 1    
   139   70  191 1    
   140   71  192 1    
   141   71  193 1    
   142   71  194 1    
   143   72   73 2    
   144   72   74 am   BACKBONE|DICT|INTERRES
   145   74   75 1    
   146   74  195 1    
   147   75   76 1    
   148   75   77 1    
   149   75  196 1    
   150   76  197 1    
   151   76  198 1    
   152   76  199 1    
   153   77   78 2    
   154   77   79 am   BACKBONE|DICT|INTERRES
   155   79   80 1    
   156   79  200 1    
   157   80   81 1    
   158   80   82 1    
   159   80  201 1    
   160   81  202 1    
   161   81  203 1    
   162   81  204 1    
   163   82   83 2    
   164   82   84 am   BACKBONE|DICT|INTERRES
   165   84   85 1    
   166   84  205 1    
   167   85   86 1    
   168   85   87 1    
   169   85  206 1    
   170   86  207 1    
   171   86  208 1    
   172   86  209 1    
   173   87   88 2    
   174   87   89 am   BACKBONE|DICT|INTERRES
   175   89   90 1    
   176   89  210 1    
   177   90   91 1    
   178   90   92 1    
   179   90  211 1    
   180   91  212 1    
   181   91  213 1    
   182   91  214 1    
   183   92   93 2    
   184   92   94 am   BACKBONE|DICT|INTERRES
   185   94   95 1    
   186   94  215 1    
   187   95   96 1    
   188   95   97 1    
   189   95  216 1    
   190   96  217 1    
   191   96  218 1    
   192   96  219 1    
   193   97   98 2    
   194   97   99 am   BACKBONE|DICT|INTERRES
   195   99  100 1    
   196   99  220 1    
   197  100  101 1    
   198  100  102 1    
   199  100  221 1    
   200  101  222 1    
   201  101  223 1    
   202  101  224 1    
   203  102  103 2    
   204  102  104 am   BACKBONE|DICT|INTERRES
   205  104  105 1    
   206  104  225 1    
   207  105  106 1    
   208  105  107 1    
   209  105  226 1    
   210  106  227 1    
   211  106  228 1    
   212  106  229 1    
   213  107  108 2    
   214  107  109 am   BACKBONE|DICT|INTERRES
   215  109  110 1    
   216  109  230 1    
   217  110  111 1    
   218  110  112 1    
   219  110  231 1    
   220  111  232 1    
   221  111  233 1    
   222  111  234 1    
   223  112  113 2    
   224  112  114 am   BACKBONE|DICT|INTERRES
   225  114  115 1    
   226  114  235 1    
   227  115  116 1    
   228  115  117 1    
   229  115  236 1    
   230  116  237 1    
   231  116  238 1    
   232  116  239 1    
   233  117  118 2    
   234  117  119 am   BACKBONE|DICT|INTERRES
   235  119  120 1    
   236  119  240 1    
   237  120  121 1    
   238  120  124 1    
   239  120  241 1    
   240  121  122 am   BACKBONE|DICT|INTERRES
   241  121  123 2    
   242  122  242 1    
   243  122  243 1    
   244  124  125 1    
   245  124  244 1    
   246  124  245 1    
   247  125  126 1    
   248  126  246 1    
   249  126  247 1    
@<TRIPOS>SUBSTRUCTURE
     1 UNK         1 GROUP             0       ****    0 ROOT    
