@<TRIPOS>MOLECULE
3R540
247   249    1
SMALL
USER_CHARGES


@<TRIPOS>ATOM
      1 CA          3.6481  -12.7846  -49.3028 C.3       0 UNK        -0.1800 
      2 C           2.3866  -13.3973  -48.7137 C.2       0 UNK         0.5000 
      3 O           2.4663  -14.1603  -47.7550 O.2       0 UNK        -0.5000 
      4 N           1.2183  -13.0527  -49.2665 N.am      1 UNK        -0.5000 
      5 CA         -0.1099  -13.5598  -48.8866 C.3       1 UNK         0.1400 
      6 C6         -1.0628  -13.5306  -50.1161 C.3       23 UNK        -0.0398 
      7 S7         -2.1810  -14.9717  -50.2127 S.3       23 UNK        -0.2404 
      8 C8         -1.5394  -15.8616  -51.6714 C.3       23 UNK        -0.0205 
      9 C9         -0.5834  -16.9832  -51.2902 C.ar      23 UNK        -0.0193 
     10 C10        -0.9987  -18.3134  -51.3898 C.ar      23 UNK        -0.1150 
     11 C11        -0.1448  -19.3658  -51.0484 C.ar      23 UNK        -0.0193 
     12 C12         1.1535  -19.0649  -50.6193 C.ar      23 UNK        -0.1150 
     13 C13         1.5722  -17.7402  -50.4736 C.ar      23 UNK        -0.0193 
     14 C14         0.7071  -16.7019  -50.8330 C.ar      23 UNK        -0.1150 
     15 C15         2.9364  -17.4371  -49.8641 C.3       23 UNK        -0.0205 
     16 S16         3.0894  -18.0674  -48.1520 S.3       23 UNK        -0.2404 
     17 C17         1.5983  -17.3627  -47.3721 C.3       23 UNK        -0.0398 
     18 CA          0.4892  -18.4267  -47.1646 C.3       11 UNK         0.1400 
     19 N           0.7969  -19.3257  -46.0453 N.am      11 UNK        -0.5000 
     20 C           0.3539  -20.5827  -45.8986 C.2       10 UNK         0.5000 
     21 O          -0.3967  -21.1268  -46.7095 O.2       10 UNK        -0.5000 
     22 CA          0.7768  -21.3365  -44.6180 C.3       10 UNK         0.1400 
     23 CB          0.8397  -22.8644  -44.8160 C.3       10 UNK        -0.1800 
     24 N           2.0130  -20.8224  -44.0172 N.am      10 UNK        -0.5000 
     25 C           3.2454  -20.8414  -44.5472 C.2       9 UNK         0.5000 
     26 O           3.5256  -21.3989  -45.6087 O.2       9 UNK        -0.5000 
     27 CA          4.3519  -20.0947  -43.7785 C.3       9 UNK         0.1400 
     28 CB          4.9822  -19.0023  -44.6614 C.3       9 UNK        -0.1800 
     29 N           3.8585  -19.4630  -42.5496 N.am      9 UNK        -0.5000 
     30 C           4.3459  -19.6857  -41.3233 C.2       8 UNK         0.5000 
     31 O           5.2111  -20.5259  -41.0728 O.2       8 UNK        -0.5000 
     32 CA          3.8056  -18.8070  -40.1798 C.3       8 UNK         0.1400 
     33 CB          4.6009  -17.4950  -40.0949 C.3       8 UNK        -0.1800 
     34 N           2.3780  -18.4940  -40.2689 N.am      8 UNK        -0.5000 
     35 C           1.3969  -19.3677  -40.0016 C.2       7 UNK         0.5000 
     36 O           1.5854  -20.5683  -39.8052 O.2       7 UNK        -0.5000 
     37 CA         -0.0318  -18.8027  -39.9222 C.3       7 UNK         0.1400 
     38 CB         -0.2270  -17.9769  -38.6404 C.3       7 UNK        -0.1800 
     39 N          -0.3299  -17.9724  -41.0851 N.am      7 UNK        -0.5000 
     40 C          -0.9108  -18.4264  -42.2029 C.2       6 UNK         0.5000 
     41 O          -1.3558  -19.5669  -42.3273 O.2       6 UNK        -0.5000 
     42 CA         -0.9768  -17.4671  -43.4054 C.3       6 UNK         0.1400 
     43 CB         -2.3516  -16.7919  -43.5062 C.3       6 UNK        -0.1800 
     44 N           0.0743  -16.4488  -43.4055 N.am      6 UNK        -0.5000 
     45 C           1.3872  -16.6976  -43.4874 C.2       5 UNK         0.5000 
     46 O           1.8496  -17.8220  -43.6710 O.2       5 UNK        -0.5000 
     47 CA          2.3491  -15.5159  -43.2685 C.3       5 UNK         0.1400 
     48 CB          2.7648  -14.8819  -44.6000 C.3       5 UNK        -0.1800 
     49 N           1.7913  -14.4851  -42.3933 N.am      5 UNK        -0.5000 
     50 C           1.5468  -14.6446  -41.0856 C.2       4 UNK         0.5000 
     51 O           1.7626  -15.6922  -40.4756 O.2       4 UNK        -0.5000 
     52 CA          0.9093  -13.4472  -40.3596 C.3       4 UNK         0.1400 
     53 CB          1.9726  -12.3960  -40.0080 C.3       4 UNK        -0.1800 
     54 N          -0.1448  -12.8273  -41.1651 N.am      4 UNK        -0.5000 
     55 C          -1.3443  -13.3848  -41.3834 C.2       3 UNK         0.5000 
     56 O          -1.7140  -14.4320  -40.8528 O.2       3 UNK        -0.5000 
     57 CA         -2.2740  -12.6722  -42.3862 C.3       3 UNK         0.1400 
     58 CB         -3.1602  -11.6464  -41.6639 C.3       3 UNK        -0.1800 
     59 N          -1.5618  -12.0086  -43.4846 N.am      3 UNK        -0.5000 
     60 C          -0.8230  -12.6434  -44.4046 C.2       2 UNK         0.5000 
     61 O          -0.6306  -13.8592  -44.3975 O.2       2 UNK        -0.5000 
     62 CA         -0.1311  -11.7608  -45.4575 C.3       2 UNK         0.1400 
     63 CB          1.1730  -11.1785  -44.8893 C.3       2 UNK        -0.1800 
     64 N           0.1869  -12.5027  -46.6771 N.am      2 UNK        -0.5000 
     65 C          -0.6836  -12.8290  -47.6412 C.2       1 UNK         0.5000 
     66 O          -1.8767  -12.5230  -47.5914 O.2       1 UNK        -0.5000 
     67 C          -0.9206  -17.8064  -47.0363 C.2       11 UNK         0.5000 
     68 O          -1.0771  -16.5863  -47.0795 O.2       11 UNK        -0.5000 
     69 N          -1.9284  -18.6680  -46.8631 N.am      12 UNK        -0.5000 
     70 CA         -3.3410  -18.3311  -46.9954 C.3       12 UNK         0.1400 
     71 CB         -4.1680  -19.3664  -46.2190 C.3       12 UNK        -0.1800 
     72 C          -3.7179  -18.3441  -48.4853 C.2       12 UNK         0.5000 
     73 O          -3.1010  -19.0813  -49.2577 O.2       12 UNK        -0.5000 
     74 N          -4.7421  -17.5688  -48.8635 N.am      13 UNK        -0.5000 
     75 CA         -5.2067  -17.3548  -50.2417 C.3       13 UNK         0.1400 
     76 CB         -6.0846  -16.0911  -50.2721 C.3       13 UNK        -0.1800 
     77 C          -5.9001  -18.5780  -50.8917 C.2       13 UNK         0.5000 
     78 O          -6.9539  -18.4429  -51.5150 O.2       13 UNK        -0.5000 
     79 N          -5.2804  -19.7526  -50.7512 N.am      14 UNK        -0.5000 
     80 CA         -5.7171  -21.0428  -51.2781 C.3       14 UNK         0.1400 
     81 CB         -5.3755  -22.1254  -50.2469 C.3       14 UNK        -0.1800 
     82 C          -5.0734  -21.3708  -52.6381 C.2       14 UNK         0.5000 
     83 O          -5.2588  -22.4807  -53.1386 O.2       14 UNK        -0.5000 
     84 N          -4.3322  -20.4200  -53.2269 N.am      15 UNK        -0.5000 
     85 CA         -3.7005  -20.5295  -54.5464 C.3       15 UNK         0.1400 
     86 CB         -2.8929  -19.2553  -54.8325 C.3       15 UNK        -0.1800 
     87 C          -4.7123  -20.8046  -55.6762 C.2       15 UNK         0.5000 
     88 O          -4.4366  -21.6180  -56.5581 O.2       15 UNK        -0.5000 
     89 N          -5.8958  -20.1824  -55.5772 N.am      16 UNK        -0.5000 
     90 CA         -7.0400  -20.3878  -56.4703 C.3       16 UNK         0.1400 
     91 CB         -8.0806  -19.2911  -56.1970 C.3       16 UNK        -0.1800 
     92 C          -7.6850  -21.7849  -56.3449 C.2       16 UNK         0.5000 
     93 O          -8.3775  -22.2139  -57.2679 O.2       16 UNK        -0.5000 
     94 N          -7.4318  -22.4750  -55.2249 N.am      17 UNK        -0.5000 
     95 CA         -7.8620  -23.8449  -54.9434 C.3       17 UNK         0.1400 
     96 CB         -8.3726  -23.9118  -53.4924 C.3       17 UNK        -0.1800 
     97 C          -6.7278  -24.8595  -55.2061 C.2       17 UNK         0.5000 
     98 O          -6.7651  -25.9631  -54.6627 O.2       17 UNK        -0.5000 
     99 N          -5.7434  -24.4704  -56.0315 N.am      18 UNK        -0.5000 
    100 CA        -4.5506  -25.2279  -56.4211 C.3       18 UNK         0.1400 
    101 CB        -4.9215  -26.5319  -57.1601 C.3       18 UNK        -0.1800 
    102 C         -3.5730  -25.4378  -55.2475 C.2       18 UNK         0.5000 
    103 O         -3.0538  -26.5395  -55.0599 O.2       18 UNK        -0.5000 
    104 N         -3.3291  -24.3517  -54.4987 N.am      19 UNK        -0.5000 
    105 CA        -2.3749  -24.2283  -53.3901 C.3       19 UNK         0.1400 
    106 CB        -0.9299  -24.4713  -53.8769 C.3       19 UNK        -0.1800 
    107 C         -2.7527  -25.0823  -52.1648 C.2       19 UNK         0.5000 
    108 O         -1.8722  -25.6158  -51.4854 O.2       19 UNK        -0.5000 
    109 N         -4.0582  -25.1681  -51.8736 N.am      20 UNK        -0.5000 
    110 CA        -4.6621  -25.9791  -50.8072 C.3       20 UNK         0.1400 
    111 CB        -6.1549  -26.1794  -51.1235 C.3       20 UNK        -0.1800 
    112 C         -4.4258  -25.4436  -49.3725 C.2       20 UNK         0.5000 
    113 O         -5.3279  -25.4925  -48.5347 O.2       20 UNK        -0.5000 
    114 N         -3.2127  -24.9521  -49.1129 N.am      21 UNK        -0.5000 
    115 CA        -2.7076  -24.5092  -47.8192 C.3       21 UNK         0.1400 
    116 CB        -3.2326  -23.1060  -47.4578 C.3       21 UNK        -0.1800 
    117 C         -1.1761  -24.5454  -47.8599 C.2       21 UNK         0.5000 
    118 O         -0.5605  -25.2242  -47.0378 O.2       21 UNK        -0.5000 
    119 N         -0.5969  -23.8344  -48.8361 N.am      22 UNK        -0.5000 
    120 CA         0.8552  -23.7118  -49.0238 C.3       22 UNK         0.1400 
    121 C          1.5386  -24.9217  -49.7257 C.2       22 UNK         0.5000 
    122 N          0.8169  -25.8007  -50.4111 N.am      22 UNK        -0.7600 
    123 O          2.7531  -25.0764  -49.6298 O.2       22 UNK        -0.5000 
    124 C124        1.2335  -22.3597  -49.6790 C.3       23 UNK        -0.0398 
    125 S125        0.5435  -22.1077  -51.3564 S.3       23 UNK        -0.2404 
    126 C126       -0.6941  -20.7936  -51.0861 C.3       23 UNK        -0.0205 
    127 H127        3.4259  -12.1258  -50.1426 H         1 UNK         0.0600 
    128 H128        4.1726  -12.2047  -48.5435 H         1 UNK         0.0600 
    129 H129        4.3158  -13.5712  -49.6543 H         1 UNK         0.0600 
    130 H130        1.2214  -12.3753  -50.0158 H         1 UNK         0.3000 
    131 H131        0.0183  -14.6012  -48.5875 H         1 UNK         0.0600 
    132 H132       -0.4818  -13.4967  -51.0377 H         1 UNK         0.0800 
    133 H133       -1.6622  -12.6191  -50.1453 H         1 UNK         0.0800 
    134 H134       -1.0504  -15.1805  -52.3683 H         1 UNK         0.0800 
    135 H135       -2.3913  -16.2691  -52.2174 H         1 UNK         0.0800 
    136 H136       -2.0075  -18.5323  -51.7083 H         1 UNK         0.1150 
    137 H137        1.8355  -19.8494  -50.3330 H         1 UNK         0.1150 
    138 H138        1.0253  -15.6746  -50.7300 H         1 UNK         0.1150 
    139 H139        3.7144  -17.8877  -50.4814 H         1 UNK         0.0800 
    140 H140        3.1276  -16.3629  -49.8598 H         1 UNK         0.0800 
    141 H141        1.2557  -16.5395  -47.9983 H         1 UNK         0.0800 
    142 H142        1.8731  -16.9089  -46.4227 H         1 UNK         0.0800 
    143 H143        0.4404  -19.0362  -48.0663 H         1 UNK         0.0600 
    144 H144        1.3696  -18.9339  -45.3056 H         1 UNK         0.3000 
    145 H145       -0.0101  -21.1450  -43.8898 H         1 UNK         0.0600 
    146 H146        1.1506  -23.3696  -43.9018 H         1 UNK         0.0600 
    147 H147       -0.1396  -23.2604  -45.0861 H         1 UNK         0.0600 
    148 H148        1.5325  -23.1456  -45.6090 H         1 UNK         0.0600 
    149 H149        1.8992  -20.3280  -43.1441 H         1 UNK         0.3000 
    150 H150        5.1216  -20.8344  -43.5507 H         1 UNK         0.0600 
    151 H151        5.4057  -19.4266  -45.5725 H         1 UNK         0.0600 
    152 H152        5.7891  -18.4894  -44.1380 H         1 UNK         0.0600 
    153 H153        4.2481  -18.2534  -44.9614 H         1 UNK         0.0600 
    154 H154        3.1378  -18.7590  -42.6831 H         1 UNK         0.3000 
    155 H155        3.9694  -19.3522  -39.2476 H         1 UNK         0.0600 
    156 H156        4.4742  -16.8879  -40.9911 H         1 UNK         0.0600 
    157 H157        5.6677  -17.6904  -39.9791 H         1 UNK         0.0600 
    158 H158        4.2854  -16.8971  -39.2396 H         1 UNK         0.0600 
    159 H159        2.1401  -17.5125  -40.3896 H         1 UNK         0.3000 
    160 H160       -0.7244  -19.6461  -39.8774 H         1 UNK         0.0600 
    161 H161       -1.2529  -17.6176  -38.5587 H         1 UNK         0.0600 
    162 H162        0.4323  -17.1093  -38.6066 H         1 UNK         0.0600 
    163 H163       -0.0218  -18.5791  -37.7544 H         1 UNK         0.0600 
    164 H164        0.0230  -17.0245  -41.0694 H         1 UNK         0.3000 
    165 H165       -0.8425  -18.0824  -44.2908 H         1 UNK         0.0600 
    166 H166       -2.5613  -16.1717  -42.6358 H         1 UNK         0.0600 
    167 H167       -2.4151  -16.1609  -44.3933 H         1 UNK         0.0600 
    168 H168       -3.1464  -17.5349  -43.5781 H         1 UNK         0.0600 
    169 H169       -0.2287  -15.4797  -43.3861 H         1 UNK         0.3000 
    170 H170        3.2482  -15.9088  -42.7910 H         1 UNK         0.0600 
    171 H171        3.3184  -15.5924  -45.2142 H         1 UNK         0.0600 
    172 H172        1.8983  -14.5518  -45.1731 H         1 UNK         0.0600 
    173 H173        3.4158  -14.0214  -44.4462 H         1 UNK         0.0600 
    174 H174        1.5351  -13.6135  -42.8298 H         1 UNK         0.3000 
    175 H175        0.4710  -13.8135  -39.4286 H         1 UNK         0.0600 
    176 H176        1.5398  -11.5754  -39.4354 H         1 UNK         0.0600 
    177 H177        2.7655  -12.8329  -39.3994 H         1 UNK         0.0600 
    178 H178        2.4377  -11.9741  -40.8998 H         1 UNK         0.0600 
    179 H179        0.0740  -11.9546  -41.6218 H         1 UNK         0.3000 
    180 H180       -2.9230  -13.4334  -42.8246 H         1 UNK         0.0600 
    181 H181       -2.5701  -10.8391  -41.2285 H         1 UNK         0.0600 
    182 H182       -3.7212  -12.1162  -40.8547 H         1 UNK         0.0600 
    183 H183       -3.8865  -11.2030  -42.3453 H         1 UNK         0.0600 
    184 H184       -1.6627  -11.0053  -43.5429 H         1 UNK         0.3000 
    185 H185       -0.7999  -10.9367  -45.7142 H         1 UNK         0.0600 
    186 H186        1.8847  -11.9612  -44.6255 H         1 UNK         0.0600 
    187 H187        1.6560  -10.5198  -45.6115 H         1 UNK         0.0600 
    188 H188        0.9850  -10.5883  -43.9915 H         1 UNK         0.0600 
    189 H189        1.1309  -12.8583  -46.7662 H         1 UNK         0.3000 
    190 H190       -1.6979  -19.6564  -46.8874 H         1 UNK         0.3000 
    191 H191       -3.5254  -17.3379  -46.5805 H         1 UNK         0.0600 
    192 H192       -3.8793  -19.3950  -45.1682 H         1 UNK         0.0600 
    193 H193       -4.0417  -20.3698  -46.6271 H         1 UNK         0.0600 
    194 H194       -5.2313  -19.1275  -46.2588 H         1 UNK         0.0600 
    195 H195       -5.2239  -17.0335  -48.1561 H         1 UNK         0.3000 
    196 H196       -4.3264  -17.1504  -50.8534 H         1 UNK         0.0600 
    197 H197       -6.3869  -15.8447  -51.2908 H         1 UNK         0.0600 
    198 H198       -5.5451  -15.2275  -49.8822 H         1 UNK         0.0600 
    199 H199       -6.9915  -16.2179  -49.6797 H         1 UNK         0.0600 
    200 H200       -4.4064  -19.7456  -50.2255 H         1 UNK         0.3000 
    201 H201       -6.7994  -21.0345  -51.4207 H         1 UNK         0.0600 
    202 H202       -5.7641  -21.8742  -49.2600 H         1 UNK         0.0600 
    203 H203       -4.2983  -22.2690  -50.1596 H         1 UNK         0.0600 
    204 H204       -5.8158  -23.0799  -50.5317 H         1 UNK         0.0600 
    205 H205       -4.2284  -19.5410  -52.7441 H         1 UNK         0.3000 
    206 H206       -3.0038  -21.3684  -54.5175 H         1 UNK         0.0600 
    207 H207       -2.0916  -19.1249  -54.1055 H         1 UNK         0.0600 
    208 H208       -2.4270  -19.3012  -55.8179 H         1 UNK         0.0600 
    209 H209       -3.5203  -18.3635  -54.8070 H         1 UNK         0.0600 
    210 H210       -6.0367  -19.5436  -54.8081 H         1 UNK         0.3000 
    211 H211       -6.6902  -20.2809  -57.4992 H         1 UNK         0.0600 
    212 H212       -8.4531  -19.3365  -55.1727 H         1 UNK         0.0600 
    213 H213       -8.9387  -19.3903  -56.8633 H         1 UNK         0.0600 
    214 H214       -7.6598  -18.2984  -56.3583 H         1 UNK         0.0600 
    215 H215       -6.8015  -22.0760  -54.5411 H         1 UNK         0.3000 
    216 H216       -8.6895  -24.1195  -55.6003 H         1 UNK         0.0600 
    217 H217       -8.7622  -24.9026  -53.2556 H         1 UNK         0.0600 
    218 H218       -9.1817  -23.2002  -53.3278 H         1 UNK         0.0600 
    219 H219       -7.5829  -23.6901  -52.7753 H         1 UNK         0.0600 
    220 H220       -5.7909  -23.5300  -56.4012 H         1 UNK         0.3000 
    221 H221       -4.0211  -24.5966  -57.1364 H         1 UNK         0.0600 
    222 H222       -5.3917  -27.2591  -56.4979 H         1 UNK         0.0600 
    223 H223       -5.6059  -26.3367  -57.9856 H         1 UNK         0.0600 
    224 H224       -4.0335  -27.0049  -57.5808 H         1 UNK         0.0600 
    225 H225       -3.8868  -23.5287  -54.6826 H         1 UNK         0.3000 
    226 H226       -2.4294  -23.1941  -53.0493 H         1 UNK         0.0600 
    227 H227       -0.6712  -23.7975  -54.6935 H         1 UNK         0.0600 
    228 H228       -0.7809  -25.4938  -54.2235 H         1 UNK         0.0600 
    229 H229       -0.2087  -24.3019  -53.0783 H         1 UNK         0.0600 
    230 H230       -4.7003  -24.6454  -52.4556 H         1 UNK         0.3000 
    231 H231       -4.1919  -26.9639  -50.8409 H         1 UNK         0.0600 
    232 H232       -6.2911  -26.6284  -52.1068 H         1 UNK         0.0600 
    233 H233       -6.7018  -25.2371  -51.1052 H         1 UNK         0.0600 
    234 H234       -6.6263  -26.8474  -50.4017 H         1 UNK         0.0600 
    235 H235       -2.5229  -25.0435  -49.8540 H         1 UNK         0.3000 
    236 H236       -3.0390  -25.2151  -47.0546 H         1 UNK         0.0600 
    237 H237       -2.8439  -22.7869  -46.4900 H         1 UNK         0.0600 
    238 H238       -2.9324  -22.3549  -48.1890 H         1 UNK         0.0600 
    239 H239       -4.3201  -23.0927  -47.3902 H         1 UNK         0.0600 
    240 H240       -1.1694  -23.3034  -49.4730 H         1 UNK         0.3000 
    241 H241        1.2972  -23.6856  -48.0257 H         1 UNK         0.0600 
    242 H242        1.2833  -26.5799  -50.8460 H         1 UNK         0.3800 
    243 H243       -0.1753  -25.6671  -50.5751 H         1 UNK         0.3800 
    244 H244        0.9056  -21.5484  -49.0286 H         1 UNK         0.0800 
    245 H245        2.3187  -22.2604  -49.7379 H         1 UNK         0.0800 
    246 H246       -1.2346  -20.9850  -50.1579 H         1 UNK         0.0800 
    247 H247       -1.4297  -20.8715  -51.8881 H         1 UNK         0.0800 
@<TRIPOS>BOND
     1    1    2 1    
     2    1  127 1    
     3    1  128 1    
     4    1  129 1    
     5    2    3 2    
     6    2    4 am   BACKBONE|DICT|INTERRES
     7    4    5 1    
     8    4  130 1    
     9    5    6 1    
    10    5   65 1    
    11    5  131 1    
    12    6    7 1    
    13    6  132 1    
    14    6  133 1    
    15    7    8 1    
    16    8    9 1    
    17    8  134 1    
    18    8  135 1    
    19    9   10 ar   
    20    9   14 ar   
    21   10   11 ar   
    22   10  136 1    
    23   11   12 ar   
    24   11  126 1    
    25   12   13 ar   
    26   12  137 1    
    27   13   14 ar   
    28   13   15 1    
    29   14  138 1    
    30   15   16 1    
    31   15  139 1    
    32   15  140 1    
    33   16   17 1    
    34   17   18 1    
    35   17  141 1    
    36   17  142 1    
    37   18   19 1    
    38   18   67 1    
    39   18  143 1    
    40   19   20 am   BACKBONE|DICT|INTERRES
    41   19  144 1    
    42   20   21 2    
    43   20   22 1    
    44   22   23 1    
    45   22   24 1    
    46   22  145 1    
    47   23  146 1    
    48   23  147 1    
    49   23  148 1    
    50   24   25 am   BACKBONE|DICT|INTERRES
    51   24  149 1    
    52   25   26 2    
    53   25   27 1    
    54   27   28 1    
    55   27   29 1    
    56   27  150 1    
    57   28  151 1    
    58   28  152 1    
    59   28  153 1    
    60   29   30 am   BACKBONE|DICT|INTERRES
    61   29  154 1    
    62   30   31 2    
    63   30   32 1    
    64   32   33 1    
    65   32   34 1    
    66   32  155 1    
    67   33  156 1    
    68   33  157 1    
    69   33  158 1    
    70   34   35 am   BACKBONE|DICT|INTERRES
    71   34  159 1    
    72   35   36 2    
    73   35   37 1    
    74   37   38 1    
    75   37   39 1    
    76   37  160 1    
    77   38  161 1    
    78   38  162 1    
    79   38  163 1    
    80   39   40 am   BACKBONE|DICT|INTERRES
    81   39  164 1    
    82   40   41 2    
    83   40   42 1    
    84   42   43 1    
    85   42   44 1    
    86   42  165 1    
    87   43  166 1    
    88   43  167 1    
    89   43  168 1    
    90   44   45 am   BACKBONE|DICT|INTERRES
    91   44  169 1    
    92   45   46 2    
    93   45   47 1    
    94   47   48 1    
    95   47   49 1    
    96   47  170 1    
    97   48  171 1    
    98   48  172 1    
    99   48  173 1    
   100   49   50 am   BACKBONE|DICT|INTERRES
   101   49  174 1    
   102   50   51 2    
   103   50   52 1    
   104   52   53 1    
   105   52   54 1    
   106   52  175 1    
   107   53  176 1    
   108   53  177 1    
   109   53  178 1    
   110   54   55 am   BACKBONE|DICT|INTERRES
   111   54  179 1    
   112   55   56 2    
   113   55   57 1    
   114   57   58 1    
   115   57   59 1    
   116   57  180 1    
   117   58  181 1    
   118   58  182 1    
   119   58  183 1    
   120   59   60 am   BACKBONE|DICT|INTERRES
   121   59  184 1    
   122   60   61 2    
   123   60   62 1    
   124   62   63 1    
   125   62   64 1    
   126   62  185 1    
   127   63  186 1    
   128   63  187 1    
   129   63  188 1    
   130   64   65 am   BACKBONE|DICT|INTERRES
   131   64  189 1    
   132   65   66 2    
   133   67   68 2    
   134   67   69 am   BACKBONE|DICT|INTERRES
   135   69   70 1    
   136   69  190 1    
   137   70   71 1    
   138   70   72 1    
   139   70  191 1    
   140   71  192 1    
   141   71  193 1    
   142   71  194 1    
   143   72   73 2    
   144   72   74 am   BACKBONE|DICT|INTERRES
   145   74   75 1    
   146   74  195 1    
   147   75   76 1    
   148   75   77 1    
   149   75  196 1    
   150   76  197 1    
   151   76  198 1    
   152   76  199 1    
   153   77   78 2    
   154   77   79 am   BACKBONE|DICT|INTERRES
   155   79   80 1    
   156   79  200 1    
   157   80   81 1    
   158   80   82 1    
   159   80  201 1    
   160   81  202 1    
   161   81  203 1    
   162   81  204 1    
   163   82   83 2    
   164   82   84 am   BACKBONE|DICT|INTERRES
   165   84   85 1    
   166   84  205 1    
   167   85   86 1    
   168   85   87 1    
   169   85  206 1    
   170   86  207 1    
   171   86  208 1    
   172   86  209 1    
   173   87   88 2    
   174   87   89 am   BACKBONE|DICT|INTERRES
   175   89   90 1    
   176   89  210 1    
   177   90   91 1    
   178   90   92 1    
   179   90  211 1    
   180   91  212 1    
   181   91  213 1    
   182   91  214 1    
   183   92   93 2    
   184   92   94 am   BACKBONE|DICT|INTERRES
   185   94   95 1    
   186   94  215 1    
   187   95   96 1    
   188   95   97 1    
   189   95  216 1    
   190   96  217 1    
   191   96  218 1    
   192   96  219 1    
   193   97   98 2    
   194   97   99 am   BACKBONE|DICT|INTERRES
   195   99  100 1    
   196   99  220 1    
   197  100  101 1    
   198  100  102 1    
   199  100  221 1    
   200  101  222 1    
   201  101  223 1    
   202  101  224 1    
   203  102  103 2    
   204  102  104 am   BACKBONE|DICT|INTERRES
   205  104  105 1    
   206  104  225 1    
   207  105  106 1    
   208  105  107 1    
   209  105  226 1    
   210  106  227 1    
   211  106  228 1    
   212  106  229 1    
   213  107  108 2    
   214  107  109 am   BACKBONE|DICT|INTERRES
   215  109  110 1    
   216  109  230 1    
   217  110  111 1    
   218  110  112 1    
   219  110  231 1    
   220  111  232 1    
   221  111  233 1    
   222  111  234 1    
   223  112  113 2    
   224  112  114 am   BACKBONE|DICT|INTERRES
   225  114  115 1    
   226  114  235 1    
   227  115  116 1    
   228  115  117 1    
   229  115  236 1    
   230  116  237 1    
   231  116  238 1    
   232  116  239 1    
   233  117  118 2    
   234  117  119 am   BACKBONE|DICT|INTERRES
   235  119  120 1    
   236  119  240 1    
   237  120  121 1    
   238  120  124 1    
   239  120  241 1    
   240  121  122 am   BACKBONE|DICT|INTERRES
   241  121  123 2    
   242  122  242 1    
   243  122  243 1    
   244  124  125 1    
   245  124  244 1    
   246  124  245 1    
   247  125  126 1    
   248  126  246 1    
   249  126  247 1    
@<TRIPOS>SUBSTRUCTURE
     1 UNK         1 GROUP             0       ****    0 ROOT    
