@<TRIPOS>MOLECULE
3R540
247   249    1
SMALL
USER_CHARGES


@<TRIPOS>ATOM
      1 CA          5.4020  -13.8814  -52.4922 C.3       0 UNK        -0.1800 
      2 C           4.1515  -14.0552  -51.6410 C.2       0 UNK         0.5000 
      3 O           3.1981  -14.6851  -52.0954 O.2       0 UNK        -0.5000 
      4 N           4.1798  -13.5108  -50.4163 N.am      1 UNK        -0.5000 
      5 CA          3.1170  -13.4818  -49.4009 C.3       1 UNK         0.1400 
      6 C6          2.5303  -14.8707  -49.0239 C.3       23 UNK        -0.0398 
      7 S7          3.7347  -16.0192  -48.2754 S.3       23 UNK        -0.2404 
      8 C8          3.9100  -17.3049  -49.5559 C.3       23 UNK        -0.0205 
      9 C9          2.6420  -18.1263  -49.7561 C.ar      23 UNK        -0.0193 
     10 C10         1.7812  -17.8359  -50.8166 C.ar      23 UNK        -0.1150 
     11 C11         0.6190  -18.5822  -51.0170 C.ar      23 UNK        -0.0193 
     12 C12         0.3448  -19.6636  -50.1757 C.ar      23 UNK        -0.1150 
     13 C13         1.2085  -19.9919  -49.1259 C.ar      23 UNK        -0.0193 
     14 C14         2.3449  -19.1982  -48.9081 C.ar      23 UNK        -0.1150 
     15 C15         0.8773  -21.1995  -48.2482 C.3       23 UNK        -0.0205 
     16 S16         2.3486  -22.0826  -47.6238 S.3       23 UNK        -0.2404 
     17 C17         1.8734  -23.8381  -47.7904 C.3       23 UNK        -0.0398 
     18 CA          1.1376  -24.4427  -46.5659 C.3       11 UNK         0.1400 
     19 N           1.7398  -24.0387  -45.2927 N.am      11 UNK        -0.5000 
     20 C           1.4559  -24.5519  -44.0893 C.2       10 UNK         0.5000 
     21 O           0.6820  -25.4938  -43.9165 O.2       10 UNK        -0.5000 
     22 CA          2.1058  -23.8636  -42.8725 C.3       10 UNK         0.1400 
     23 CB          3.3672  -24.6252  -42.4389 C.3       10 UNK        -0.1800 
     24 N           2.4473  -22.4491  -43.0783 N.am      10 UNK        -0.5000 
     25 C           1.5744  -21.4763  -43.3778 C.2       9 UNK         0.5000 
     26 O           0.3840  -21.6818  -43.6206 O.2       9 UNK        -0.5000 
     27 CA          2.1429  -20.0453  -43.4496 C.3       9 UNK         0.1400 
     28 CB          2.5557  -19.6965  -44.8872 C.3       9 UNK        -0.1800 
     29 N           1.1927  -19.0402  -42.9763 N.am      9 UNK        -0.5000 
     30 C           0.7144  -18.9506  -41.7283 C.2       8 UNK         0.5000 
     31 O           1.0651  -19.6877  -40.8052 O.2       8 UNK        -0.5000 
     32 CA         -0.3168  -17.8400  -41.4542 C.3       8 UNK         0.1400 
     33 CB          0.3859  -16.5516  -40.9995 C.3       8 UNK        -0.1800 
     34 N          -1.1674  -17.5453  -42.6081 N.am      8 UNK        -0.5000 
     35 C          -2.1617  -18.3346  -43.0384 C.2       7 UNK         0.5000 
     36 O          -2.4843  -19.3874  -42.4884 O.2       7 UNK        -0.5000 
     37 CA         -2.9502  -17.8527  -44.2713 C.3       7 UNK         0.1400 
     38 CB         -4.0650  -16.8895  -43.8313 C.3       7 UNK        -0.1800 
     39 N          -2.1022  -17.1978  -45.2687 N.am      7 UNK        -0.5000 
     40 C          -1.1914  -17.8293  -46.0251 C.2       6 UNK         0.5000 
     41 O          -1.0356  -19.0470  -46.0304 O.2       6 UNK        -0.5000 
     42 CA         -0.2691  -16.9554  -46.8932 C.3       6 UNK         0.1400 
     43 CB         -0.9113  -16.6587  -48.2532 C.3       6 UNK        -0.1800 
     44 N           0.0842  -15.6955  -46.2459 N.am      6 UNK        -0.5000 
     45 C           0.8010  -15.5825  -45.1211 C.2       5 UNK         0.5000 
     46 O           1.2864  -16.5369  -44.5169 O.2       5 UNK        -0.5000 
     47 CA          0.9436  -14.1648  -44.5439 C.3       5 UNK         0.1400 
     48 CB          2.0731  -13.3950  -45.2444 C.3       5 UNK        -0.1800 
     49 N          -0.3090  -13.4130  -44.6446 N.am      5 UNK        -0.5000 
     50 C          -1.3986  -13.6690  -43.9073 C.2       4 UNK         0.5000 
     51 O          -1.4416  -14.5403  -43.0396 O.2       4 UNK        -0.5000 
     52 CA         -2.6575  -12.8338  -44.2071 C.3       4 UNK         0.1400 
     53 CB         -2.6137  -11.4999  -43.4472 C.3       4 UNK        -0.1800 
     54 N          -2.8403  -12.5709  -45.6355 N.am      4 UNK        -0.5000 
     55 C          -3.1645  -13.5044  -46.5417 C.2       3 UNK         0.5000 
     56 O          -3.3625  -14.6862  -46.2631 O.2       3 UNK        -0.5000 
     57 CA         -3.2214  -13.0463  -48.0140 C.3       3 UNK         0.1400 
     58 CB         -4.5948  -12.4357  -48.3305 C.3       3 UNK        -0.1800 
     59 N          -2.1633  -12.0948  -48.3856 N.am      3 UNK        -0.5000 
     60 C          -0.8529  -12.3366  -48.2473 C.2       2 UNK         0.5000 
     61 O          -0.4121  -13.3675  -47.7351 O.2       2 UNK        -0.5000 
     62 CA          0.1316  -11.2379  -48.6950 C.3       2 UNK         0.1400 
     63 CB          0.1190  -10.0682  -47.6978 C.3       2 UNK        -0.1800 
     64 N           1.4831  -11.7989  -48.7367 N.am      2 UNK        -0.5000 
     65 C           1.9683  -12.5117  -49.7601 C.2       1 UNK         0.5000 
     66 O           1.5003  -12.4658  -50.8991 O.2       1 UNK        -0.5000 
     67 C          -0.3895  -24.2163  -46.6391 C.2       11 UNK         0.5000 
     68 O          -1.0379  -24.8669  -47.4572 O.2       11 UNK        -0.5000 
     69 N          -0.9560  -23.3662  -45.7660 N.am      12 UNK        -0.5000 
     70 CA         -2.4008  -23.1463  -45.6409 C.3       12 UNK         0.1400 
     71 CB         -2.6611  -21.9581  -44.7065 C.3       12 UNK        -0.1800 
     72 C          -3.1910  -24.3771  -45.1517 C.2       12 UNK         0.5000 
     73 O          -4.4100  -24.4136  -45.3209 O.2       12 UNK        -0.5000 
     74 N          -2.4982  -25.3651  -44.5656 N.am      13 UNK        -0.5000 
     75 CA         -3.0622  -26.6625  -44.1879 C.3       13 UNK         0.1400 
     76 CB         -2.0979  -27.3558  -43.2131 C.3       13 UNK        -0.1800 
     77 C          -3.3539  -27.5749  -45.3993 C.2       13 UNK         0.5000 
     78 O          -4.0717  -28.5642  -45.2454 O.2       13 UNK        -0.5000 
     79 N          -2.7939  -27.2397  -46.5679 N.am      14 UNK        -0.5000 
     80 CA         -2.9825  -27.9276  -47.8395 C.3       14 UNK         0.1400 
     81 CB         -1.5969  -28.3617  -48.3527 C.3       14 UNK        -0.1800 
     82 C          -3.6710  -26.9889  -48.8467 C.2       14 UNK         0.5000 
     83 O          -3.9099  -25.8156  -48.5548 O.2       14 UNK        -0.5000 
     84 N          -3.9476  -27.5193  -50.0440 N.am      15 UNK        -0.5000 
     85 CA         -4.4688  -26.7697  -51.1927 C.3       15 UNK         0.1400 
     86 CB         -5.2115  -27.7480  -52.1178 C.3       15 UNK        -0.1800 
     87 C          -3.3722  -26.0042  -51.9682 C.2       15 UNK         0.5000 
     88 O          -3.6793  -25.3808  -52.9858 O.2       15 UNK        -0.5000 
     89 N          -2.1189  -26.0837  -51.4952 N.am      16 UNK        -0.5000 
     90 CA         -0.9128  -25.4711  -52.0519 C.3       16 UNK         0.1400 
     91 CB          0.2555  -25.7282  -51.0881 C.3       16 UNK        -0.1800 
     92 C          -1.0805  -23.9654  -52.3268 C.2       16 UNK         0.5000 
     93 O          -1.2984  -23.1909  -51.3921 O.2       16 UNK        -0.5000 
     94 N          -1.0331  -23.6036  -53.6175 N.am      17 UNK        -0.5000 
     95 CA         -1.2313  -22.2585  -54.1737 C.3       17 UNK         0.1400 
     96 CB         -0.0414  -21.3509  -53.8036 C.3       17 UNK        -0.1800 
     97 C          -2.6012  -21.6278  -53.8273 C.2       17 UNK         0.5000 
     98 O          -2.7284  -20.4034  -53.8310 O.2       17 UNK        -0.5000 
     99 N          -3.5958  -22.4808  -53.5331 N.am      18 UNK        -0.5000 
    100 CA        -4.9410  -22.1575  -53.0491 C.3       18 UNK         0.1400 
    101 CB        -5.7352  -21.3528  -54.0990 C.3       18 UNK        -0.1800 
    102 C         -4.9555  -21.5121  -51.6449 C.2       18 UNK         0.5000 
    103 O         -5.9248  -20.8341  -51.2983 O.2       18 UNK        -0.5000 
    104 N         -3.9026  -21.7558  -50.8470 N.am      19 UNK        -0.5000 
    105 CA        -3.7001  -21.2513  -49.4868 C.3       19 UNK         0.1400 
    106 CB        -4.6854  -21.9341  -48.5093 C.3       19 UNK        -0.1800 
    107 C         -3.7284  -19.7078  -49.4432 C.2       19 UNK         0.5000 
    108 O         -2.9747  -19.0738  -50.1779 O.2       19 UNK        -0.5000 
    109 N         -4.5984  -19.1278  -48.6068 N.am      20 UNK        -0.5000 
    110 CA        -4.7472  -17.6848  -48.4049 C.3       20 UNK         0.1400 
    111 CB        -5.6768  -17.4626  -47.2042 C.3       20 UNK        -0.1800 
    112 C         -5.2802  -16.9127  -49.6296 C.2       20 UNK         0.5000 
    113 O         -5.1266  -15.6909  -49.6821 O.2       20 UNK        -0.5000 
    114 N         -5.9076  -17.6185  -50.5838 N.am      21 UNK        -0.5000 
    115 CA        -6.5929  -17.0433  -51.7457 C.3       21 UNK         0.1400 
    116 CB        -7.3712  -18.1462  -52.4764 C.3       21 UNK        -0.1800 
    117 C         -5.6829  -16.2811  -52.7294 C.2       21 UNK         0.5000 
    118 O         -6.2008  -15.5073  -53.5364 O.2       21 UNK        -0.5000 
    119 N         -4.3607  -16.4817  -52.6441 N.am      22 UNK        -0.5000 
    120 CA        -3.3630  -15.6708  -53.3580 C.3       22 UNK         0.1400 
    121 C         -3.2214  -14.2063  -52.8380 C.2       22 UNK         0.5000 
    122 N         -3.7536  -13.8539  -51.6721 N.am      22 UNK        -0.7600 
    123 O         -2.6355  -13.3690  -53.5190 O.2       22 UNK        -0.5000 
    124 C124       -1.9953  -16.3907  -53.4628 C.3       23 UNK        -0.0398 
    125 S125       -1.1521  -16.6306  -51.8613 S.3       23 UNK        -0.2404 
    126 C126       -0.3251  -18.2228  -52.1532 C.3       23 UNK        -0.0205 
    127 H127        5.1577  -13.3527  -53.4136 H         1 UNK         0.0600 
    128 H128        5.8138  -14.8556  -52.7561 H         1 UNK         0.0600 
    129 H129        6.1751  -13.3161  -51.9710 H         1 UNK         0.0600 
    130 H130        5.0153  -13.0107  -50.1473 H         1 UNK         0.3000 
    131 H131        3.6011  -13.0842  -48.5072 H         1 UNK         0.0600 
    132 H132        1.7410  -14.7518  -48.2831 H         1 UNK         0.0800 
    133 H133        2.0423  -15.3269  -49.8824 H         1 UNK         0.0800 
    134 H134        4.2159  -16.8415  -50.4945 H         1 UNK         0.0800 
    135 H135        4.7262  -17.9699  -49.2705 H         1 UNK         0.0800 
    136 H136        2.0036  -17.0142  -51.4829 H         1 UNK         0.1150 
    137 H137       -0.5459  -20.2534  -50.3426 H         1 UNK         0.1150 
    138 H138        3.0133  -19.4193  -48.0886 H         1 UNK         0.1150 
    139 H139        0.2798  -20.8694  -47.3985 H         1 UNK         0.0800 
    140 H140        0.2517  -21.8944  -48.8108 H         1 UNK         0.0800 
    141 H141        1.3130  -23.9819  -48.7147 H         1 UNK         0.0800 
    142 H142        2.8014  -24.3915  -47.9389 H         1 UNK         0.0800 
    143 H143        1.2635  -25.5258  -46.6297 H         1 UNK         0.0600 
    144 H144        2.3672  -23.2487  -45.3400 H         1 UNK         0.3000 
    145 H145        1.3823  -23.9086  -42.0560 H         1 UNK         0.0600 
    146 H146        3.7803  -24.2140  -41.5176 H         1 UNK         0.0600 
    147 H147        3.1445  -25.6766  -42.2515 H         1 UNK         0.0600 
    148 H148        4.1437  -24.5854  -43.2039 H         1 UNK         0.0600 
    149 H149        3.4121  -22.2000  -42.9140 H         1 UNK         0.3000 
    150 H150        3.0271  -19.9885  -42.8118 H         1 UNK         0.0600 
    151 H151        3.2959  -20.4020  -45.2652 H         1 UNK         0.0600 
    152 H152        3.0003  -18.7027  -44.9424 H         1 UNK         0.0600 
    153 H153        1.7012  -19.7163  -45.5649 H         1 UNK         0.0600 
    154 H154        0.8897  -18.3515  -43.6559 H         1 UNK         0.3000 
    155 H155       -0.9565  -18.1793  -40.6368 H         1 UNK         0.0600 
    156 H156        1.0044  -16.7334  -40.1198 H         1 UNK         0.0600 
    157 H157       -0.3375  -15.7803  -40.7344 H         1 UNK         0.0600 
    158 H158        1.0336  -16.1498  -41.7789 H         1 UNK         0.0600 
    159 H159       -1.0073  -16.6622  -43.0776 H         1 UNK         0.3000 
    160 H160       -3.4124  -18.7240  -44.7398 H         1 UNK         0.0600 
    161 H161       -3.6661  -16.0267  -43.2981 H         1 UNK         0.0600 
    162 H162       -4.7680  -17.3889  -43.1637 H         1 UNK         0.0600 
    163 H163       -4.6337  -16.5133  -44.6796 H         1 UNK         0.0600 
    164 H164       -2.2265  -16.1987  -45.3873 H         1 UNK         0.3000 
    165 H165        0.6527  -17.5151  -47.0660 H         1 UNK         0.0600 
    166 H166       -0.2069  -16.1644  -48.9211 H         1 UNK         0.0600 
    167 H167       -1.2279  -17.5785  -48.7447 H         1 UNK         0.0600 
    168 H168       -1.7845  -16.0145  -48.1579 H         1 UNK         0.0600 
    169 H169       -0.2453  -14.8461  -46.7002 H         1 UNK         0.3000 
    170 H170        1.2044  -14.2577  -43.4875 H         1 UNK         0.0600 
    171 H171        3.0205  -13.9278  -45.1528 H         1 UNK         0.0600 
    172 H172        1.8743  -13.2661  -46.3065 H         1 UNK         0.0600 
    173 H173        2.2101  -12.4073  -44.8041 H         1 UNK         0.0600 
    174 H174       -0.3738  -12.7301  -45.3842 H         1 UNK         0.3000 
    175 H175       -3.5219  -13.3993  -43.8521 H         1 UNK         0.0600 
    176 H176       -1.7829  -10.8743  -43.7760 H         1 UNK         0.0600 
    177 H177       -3.5357  -10.9356  -43.5881 H         1 UNK         0.0600 
    178 H178       -2.4960  -11.6656  -42.3754 H         1 UNK         0.0600 
    179 H179       -2.6895  -11.6245  -45.9515 H         1 UNK         0.3000 
    180 H180       -3.0937  -13.9348  -48.6357 H         1 UNK         0.0600 
    181 H181       -4.7780  -11.5304  -47.7507 H         1 UNK         0.0600 
    182 H182       -5.3945  -13.1418  -48.1014 H         1 UNK         0.0600 
    183 H183       -4.6839  -12.1820  -49.3863 H         1 UNK         0.0600 
    184 H184       -2.4633  -11.2200  -48.7909 H         1 UNK         0.3000 
    185 H185       -0.1608  -10.8760  -49.6829 H         1 UNK         0.0600 
    186 H186       -0.8624   -9.5942  -47.6575 H         1 UNK         0.0600 
    187 H187        0.3685  -10.3942  -46.6871 H         1 UNK         0.0600 
    188 H188        0.8357   -9.2991  -47.9866 H         1 UNK         0.0600 
    189 H189        1.9284  -11.8971  -47.8370 H         1 UNK         0.3000 
    190 H190       -0.3701  -22.8622  -45.1067 H         1 UNK         0.3000 
    191 H191       -2.7733  -22.8945  -46.6337 H         1 UNK         0.0600 
    192 H192       -2.3400  -22.1708  -43.6861 H         1 UNK         0.0600 
    193 H193       -3.7218  -21.7069  -44.6721 H         1 UNK         0.0600 
    194 H194       -2.1293  -21.0708  -45.0400 H         1 UNK         0.0600 
    195 H195       -1.4983  -25.2564  -44.4452 H         1 UNK         0.3000 
    196 H196       -4.0076  -26.4912  -43.6691 H         1 UNK         0.0600 
    197 H197       -2.5134  -28.2988  -42.8559 H         1 UNK         0.0600 
    198 H198       -1.9040  -26.7343  -42.3387 H         1 UNK         0.0600 
    199 H199       -1.1404  -27.5776  -43.6860 H         1 UNK         0.0600 
    200 H200       -2.2892  -26.3624  -46.6347 H         1 UNK         0.3000 
    201 H201       -3.6119  -28.8111  -47.7167 H         1 UNK         0.0600 
    202 H202       -1.0937  -28.9995  -47.6257 H         1 UNK         0.0600 
    203 H203       -0.9506  -27.5036  -48.5429 H         1 UNK         0.0600 
    204 H204       -1.6714  -28.9319  -49.2791 H         1 UNK         0.0600 
    205 H205       -3.7298  -28.4916  -50.2114 H         1 UNK         0.3000 
    206 H206       -5.1879  -26.0280  -50.8384 H         1 UNK         0.0600 
    207 H207       -6.0126  -28.2621  -51.5864 H         1 UNK         0.0600 
    208 H208       -5.6681  -27.2250  -52.9591 H         1 UNK         0.0600 
    209 H209       -4.5397  -28.5037  -52.5267 H         1 UNK         0.0600 
    210 H210       -1.9900  -26.5954  -50.6369 H         1 UNK         0.3000 
    211 H211       -0.6929  -25.9791  -52.9928 H         1 UNK         0.0600 
    212 H212        1.1679  -25.2405  -51.4337 H         1 UNK         0.0600 
    213 H213        0.4683  -26.7937  -51.0004 H         1 UNK         0.0600 
    214 H214        0.0341  -25.3496  -50.0901 H         1 UNK         0.0600 
    215 H215       -0.8895  -24.3301  -54.3054 H         1 UNK         0.3000 
    216 H216       -1.2278  -22.3749  -55.2583 H         1 UNK         0.0600 
    217 H217       -0.1126  -20.3843  -54.3030 H         1 UNK         0.0600 
    218 H218        0.9046  -21.7993  -54.1062 H         1 UNK         0.0600 
    219 H219        0.0059  -21.1684  -52.7303 H         1 UNK         0.0600 
    220 H220       -3.3860  -23.4748  -53.5436 H         1 UNK         0.3000 
    221 H221       -5.4472  -23.1163  -52.9309 H         1 UNK         0.0600 
    222 H222       -6.7790  -21.2452  -53.8023 H         1 UNK         0.0600 
    223 H223       -5.7261  -21.8534  -55.0671 H         1 UNK         0.0600 
    224 H224       -5.3291  -20.3508  -54.2365 H         1 UNK         0.0600 
    225 H225       -3.1227  -22.2836  -51.2260 H         1 UNK         0.3000 
    226 H226       -2.6896  -21.5439  -49.1971 H         1 UNK         0.0600 
    227 H227       -4.5533  -23.0165  -48.5216 H         1 UNK         0.0600 
    228 H228       -4.5227  -21.6055  -47.4825 H         1 UNK         0.0600 
    229 H229       -5.7265  -21.7292  -48.7600 H         1 UNK         0.0600 
    230 H230       -5.2090  -19.7214  -48.0652 H         1 UNK         0.3000 
    231 H231       -3.7662  -17.2779  -48.1577 H         1 UNK         0.0600 
    232 H232       -5.7186  -16.4058  -46.9360 H         1 UNK         0.0600 
    233 H233       -5.3286  -18.0102  -46.3294 H         1 UNK         0.0600 
    234 H234       -6.6954  -17.7893  -47.4177 H         1 UNK         0.0600 
    235 H235       -5.9466  -18.6263  -50.4941 H         1 UNK         0.3000 
    236 H236       -7.3173  -16.3216  -51.3629 H         1 UNK         0.0600 
    237 H237       -8.0335  -18.6849  -51.7987 H         1 UNK         0.0600 
    238 H238       -7.9888  -17.7280  -53.2721 H         1 UNK         0.0600 
    239 H239       -6.6964  -18.8676  -52.9339 H         1 UNK         0.0600 
    240 H240       -4.0033  -17.1254  -51.9510 H         1 UNK         0.3000 
    241 H241       -3.7255  -15.5704  -54.3829 H         1 UNK         0.0600 
    242 H242       -3.6635  -12.9007  -51.3643 H         1 UNK         0.3800 
    243 H243       -4.2328  -14.5321  -51.0893 H         1 UNK         0.3800 
    244 H244       -2.1395  -17.3619  -53.9390 H         1 UNK         0.0800 
    245 H245       -1.3246  -15.8357  -54.1207 H         1 UNK         0.0800 
    246 H246       -1.0884  -18.9919  -52.2748 H         1 UNK         0.0800 
    247 H247        0.2361  -18.1788  -53.0873 H         1 UNK         0.0800 
@<TRIPOS>BOND
     1    1    2 1    
     2    1  127 1    
     3    1  128 1    
     4    1  129 1    
     5    2    3 2    
     6    2    4 am   BACKBONE|DICT|INTERRES
     7    4    5 1    
     8    4  130 1    
     9    5    6 1    
    10    5   65 1    
    11    5  131 1    
    12    6    7 1    
    13    6  132 1    
    14    6  133 1    
    15    7    8 1    
    16    8    9 1    
    17    8  134 1    
    18    8  135 1    
    19    9   10 ar   
    20    9   14 ar   
    21   10   11 ar   
    22   10  136 1    
    23   11   12 ar   
    24   11  126 1    
    25   12   13 ar   
    26   12  137 1    
    27   13   14 ar   
    28   13   15 1    
    29   14  138 1    
    30   15   16 1    
    31   15  139 1    
    32   15  140 1    
    33   16   17 1    
    34   17   18 1    
    35   17  141 1    
    36   17  142 1    
    37   18   19 1    
    38   18   67 1    
    39   18  143 1    
    40   19   20 am   BACKBONE|DICT|INTERRES
    41   19  144 1    
    42   20   21 2    
    43   20   22 1    
    44   22   23 1    
    45   22   24 1    
    46   22  145 1    
    47   23  146 1    
    48   23  147 1    
    49   23  148 1    
    50   24   25 am   BACKBONE|DICT|INTERRES
    51   24  149 1    
    52   25   26 2    
    53   25   27 1    
    54   27   28 1    
    55   27   29 1    
    56   27  150 1    
    57   28  151 1    
    58   28  152 1    
    59   28  153 1    
    60   29   30 am   BACKBONE|DICT|INTERRES
    61   29  154 1    
    62   30   31 2    
    63   30   32 1    
    64   32   33 1    
    65   32   34 1    
    66   32  155 1    
    67   33  156 1    
    68   33  157 1    
    69   33  158 1    
    70   34   35 am   BACKBONE|DICT|INTERRES
    71   34  159 1    
    72   35   36 2    
    73   35   37 1    
    74   37   38 1    
    75   37   39 1    
    76   37  160 1    
    77   38  161 1    
    78   38  162 1    
    79   38  163 1    
    80   39   40 am   BACKBONE|DICT|INTERRES
    81   39  164 1    
    82   40   41 2    
    83   40   42 1    
    84   42   43 1    
    85   42   44 1    
    86   42  165 1    
    87   43  166 1    
    88   43  167 1    
    89   43  168 1    
    90   44   45 am   BACKBONE|DICT|INTERRES
    91   44  169 1    
    92   45   46 2    
    93   45   47 1    
    94   47   48 1    
    95   47   49 1    
    96   47  170 1    
    97   48  171 1    
    98   48  172 1    
    99   48  173 1    
   100   49   50 am   BACKBONE|DICT|INTERRES
   101   49  174 1    
   102   50   51 2    
   103   50   52 1    
   104   52   53 1    
   105   52   54 1    
   106   52  175 1    
   107   53  176 1    
   108   53  177 1    
   109   53  178 1    
   110   54   55 am   BACKBONE|DICT|INTERRES
   111   54  179 1    
   112   55   56 2    
   113   55   57 1    
   114   57   58 1    
   115   57   59 1    
   116   57  180 1    
   117   58  181 1    
   118   58  182 1    
   119   58  183 1    
   120   59   60 am   BACKBONE|DICT|INTERRES
   121   59  184 1    
   122   60   61 2    
   123   60   62 1    
   124   62   63 1    
   125   62   64 1    
   126   62  185 1    
   127   63  186 1    
   128   63  187 1    
   129   63  188 1    
   130   64   65 am   BACKBONE|DICT|INTERRES
   131   64  189 1    
   132   65   66 2    
   133   67   68 2    
   134   67   69 am   BACKBONE|DICT|INTERRES
   135   69   70 1    
   136   69  190 1    
   137   70   71 1    
   138   70   72 1    
   139   70  191 1    
   140   71  192 1    
   141   71  193 1    
   142   71  194 1    
   143   72   73 2    
   144   72   74 am   BACKBONE|DICT|INTERRES
   145   74   75 1    
   146   74  195 1    
   147   75   76 1    
   148   75   77 1    
   149   75  196 1    
   150   76  197 1    
   151   76  198 1    
   152   76  199 1    
   153   77   78 2    
   154   77   79 am   BACKBONE|DICT|INTERRES
   155   79   80 1    
   156   79  200 1    
   157   80   81 1    
   158   80   82 1    
   159   80  201 1    
   160   81  202 1    
   161   81  203 1    
   162   81  204 1    
   163   82   83 2    
   164   82   84 am   BACKBONE|DICT|INTERRES
   165   84   85 1    
   166   84  205 1    
   167   85   86 1    
   168   85   87 1    
   169   85  206 1    
   170   86  207 1    
   171   86  208 1    
   172   86  209 1    
   173   87   88 2    
   174   87   89 am   BACKBONE|DICT|INTERRES
   175   89   90 1    
   176   89  210 1    
   177   90   91 1    
   178   90   92 1    
   179   90  211 1    
   180   91  212 1    
   181   91  213 1    
   182   91  214 1    
   183   92   93 2    
   184   92   94 am   BACKBONE|DICT|INTERRES
   185   94   95 1    
   186   94  215 1    
   187   95   96 1    
   188   95   97 1    
   189   95  216 1    
   190   96  217 1    
   191   96  218 1    
   192   96  219 1    
   193   97   98 2    
   194   97   99 am   BACKBONE|DICT|INTERRES
   195   99  100 1    
   196   99  220 1    
   197  100  101 1    
   198  100  102 1    
   199  100  221 1    
   200  101  222 1    
   201  101  223 1    
   202  101  224 1    
   203  102  103 2    
   204  102  104 am   BACKBONE|DICT|INTERRES
   205  104  105 1    
   206  104  225 1    
   207  105  106 1    
   208  105  107 1    
   209  105  226 1    
   210  106  227 1    
   211  106  228 1    
   212  106  229 1    
   213  107  108 2    
   214  107  109 am   BACKBONE|DICT|INTERRES
   215  109  110 1    
   216  109  230 1    
   217  110  111 1    
   218  110  112 1    
   219  110  231 1    
   220  111  232 1    
   221  111  233 1    
   222  111  234 1    
   223  112  113 2    
   224  112  114 am   BACKBONE|DICT|INTERRES
   225  114  115 1    
   226  114  235 1    
   227  115  116 1    
   228  115  117 1    
   229  115  236 1    
   230  116  237 1    
   231  116  238 1    
   232  116  239 1    
   233  117  118 2    
   234  117  119 am   BACKBONE|DICT|INTERRES
   235  119  120 1    
   236  119  240 1    
   237  120  121 1    
   238  120  124 1    
   239  120  241 1    
   240  121  122 am   BACKBONE|DICT|INTERRES
   241  121  123 2    
   242  122  242 1    
   243  122  243 1    
   244  124  125 1    
   245  124  244 1    
   246  124  245 1    
   247  125  126 1    
   248  126  246 1    
   249  126  247 1    
@<TRIPOS>SUBSTRUCTURE
     1 UNK         1 GROUP             0       ****    0 ROOT    
