@<TRIPOS>MOLECULE
3R540
247   249    1
SMALL
USER_CHARGES


@<TRIPOS>ATOM
      1 CA         -0.3432  -15.4528  -53.1671 C.3       0 UNK        -0.1800 
      2 C          -0.3271  -15.5244  -51.6466 C.2       0 UNK         0.5000 
      3 O          -1.1629  -16.2075  -51.0561 O.2       0 UNK        -0.5000 
      4 N           0.6331  -14.8262  -51.0270 N.am      1 UNK        -0.5000 
      5 CA          0.8537  -14.7122  -49.5804 C.3       1 UNK         0.1400 
      6 C6          1.0933  -16.0850  -48.8812 C.3       23 UNK        -0.0398 
      7 S7          2.6294  -16.1016  -47.9000 S.3       23 UNK        -0.2404 
      8 C8          3.8692  -16.4389  -49.1926 C.3       23 UNK        -0.0205 
      9 C9          3.6844  -17.8119  -49.8206 C.ar      23 UNK        -0.0193 
     10 C10         3.1251  -17.9406  -51.0961 C.ar      23 UNK        -0.1150 
     11 C11         2.9335  -19.2037  -51.6632 C.ar      23 UNK        -0.0193 
     12 C12         3.3221  -20.3427  -50.9503 C.ar      23 UNK        -0.1150 
     13 C13         3.8845  -20.2249  -49.6746 C.ar      23 UNK        -0.0193 
     14 C14         4.0679  -18.9563  -49.1187 C.ar      23 UNK        -0.1150 
     15 C15         4.3079  -21.4635  -48.8988 C.3       23 UNK        -0.0205 
     16 S16         2.8908  -22.4289  -48.2857 S.3       23 UNK        -0.2404 
     17 C17         2.1286  -21.3022  -47.0634 C.3       23 UNK        -0.0398 
     18 CA          0.5781  -21.3319  -47.1293 C.3       11 UNK         0.1400 
     19 N          -0.0283  -21.2016  -45.8010 N.am      11 UNK        -0.5000 
     20 C          -1.2148  -21.7189  -45.4576 C.2       10 UNK         0.5000 
     21 O          -1.9450  -22.3220  -46.2421 O.2       10 UNK        -0.5000 
     22 CA         -1.6761  -21.5013  -44.0067 C.3       10 UNK         0.1400 
     23 CB         -0.9697  -22.4796  -43.0565 C.3       10 UNK        -0.1800 
     24 N          -1.4598  -20.1283  -43.5522 N.am      10 UNK        -0.5000 
     25 C          -2.1137  -19.0628  -44.0365 C.2       9 UNK         0.5000 
     26 O          -2.9999  -19.1345  -44.8864 O.2       9 UNK        -0.5000 
     27 CA         -1.6924  -17.6851  -43.4952 C.3       9 UNK         0.1400 
     28 CB         -2.3282  -17.4397  -42.1164 C.3       9 UNK        -0.1800 
     29 N          -0.2393  -17.5456  -43.4001 N.am      9 UNK        -0.5000 
     30 C           0.6076  -17.5748  -44.4405 C.2       8 UNK         0.5000 
     31 O           0.2490  -17.6601  -45.6126 O.2       8 UNK        -0.5000 
     32 CA          2.1115  -17.5765  -44.1101 C.3       8 UNK         0.1400 
     33 CB          2.6459  -16.1527  -43.8967 C.3       8 UNK        -0.1800 
     34 N           2.4125  -18.3894  -42.9314 N.am      8 UNK        -0.5000 
     35 C           2.3145  -19.7252  -42.8896 C.2       7 UNK         0.5000 
     36 O           1.9753  -20.4155  -43.8496 O.2       7 UNK        -0.5000 
     37 CA          2.6061  -20.3957  -41.5354 C.3       7 UNK         0.1400 
     38 CB          4.1178  -20.5766  -41.3334 C.3       7 UNK        -0.1800 
     39 N           2.0510  -19.6415  -40.4108 N.am      7 UNK        -0.5000 
     40 C           0.7394  -19.4989  -40.1741 C.2       6 UNK         0.5000 
     41 O          -0.1389  -20.0232  -40.8590 O.2       6 UNK        -0.5000 
     42 CA          0.3471  -18.5701  -39.0085 C.3       6 UNK         0.1400 
     43 CB          0.3695  -19.3338  -37.6762 C.3       6 UNK        -0.1800 
     44 N           1.1964  -17.3772  -38.9034 N.am      6 UNK        -0.5000 
     45 C           1.3050  -16.4467  -39.8596 C.2       5 UNK         0.5000 
     46 O           0.7127  -16.5118  -40.9411 O.2       5 UNK        -0.5000 
     47 CA          2.2523  -15.2688  -39.5910 C.3       5 UNK         0.1400 
     48 CB          3.7243  -15.7040  -39.7025 C.3       5 UNK        -0.1800 
     49 N           1.9602  -14.2555  -40.5937 N.am      5 UNK        -0.5000 
     50 C           2.2115  -12.9454  -40.5372 C.2       4 UNK         0.5000 
     51 O           2.8032  -12.3985  -39.6059 O.2       4 UNK        -0.5000 
     52 CA          1.7057  -12.1046  -41.7283 C.3       4 UNK         0.1400 
     53 CB          2.8534  -11.8191  -42.7090 C.3       4 UNK        -0.1800 
     54 N           0.6173  -12.7575  -42.4620 N.am      4 UNK        -0.5000 
     55 C          -0.6454  -12.8761  -42.0345 C.2       3 UNK         0.5000 
     56 O          -1.0576  -12.3617  -40.9936 O.2       3 UNK        -0.5000 
     57 CA         -1.5918  -13.7170  -42.9208 C.3       3 UNK         0.1400 
     58 CB         -3.0312  -13.7710  -42.3784 C.3       3 UNK        -0.1800 
     59 N          -1.6299  -13.2701  -44.3158 N.am      3 UNK        -0.5000 
     60 C          -0.6808  -13.5105  -45.2265 C.2       2 UNK         0.5000 
     61 O           0.3705  -14.1032  -44.9712 O.2       2 UNK        -0.5000 
     62 CA         -0.9255  -12.9751  -46.6421 C.3       2 UNK         0.1400 
     63 CB         -0.6256  -11.4671  -46.7198 C.3       2 UNK        -0.1800 
     64 N          -0.0510  -13.7071  -47.5487 N.am      2 UNK        -0.5000 
     65 C          -0.2130  -13.8495  -48.8665 C.2       1 UNK         0.5000 
     66 O          -1.1239  -13.3102  -49.5004 O.2       1 UNK        -0.5000 
     67 C          -0.0027  -20.3492  -48.1746 C.2       11 UNK         0.5000 
     68 O           0.4227  -20.3886  -49.3281 O.2       11 UNK        -0.5000 
     69 N          -0.9918  -19.5203  -47.8025 N.am      12 UNK        -0.5000 
     70 CA         -1.7301  -18.6203  -48.6950 C.3       12 UNK         0.1400 
     71 CB         -2.4557  -17.5468  -47.8633 C.3       12 UNK        -0.1800 
     72 C          -2.6967  -19.3894  -49.6202 C.2       12 UNK         0.5000 
     73 O          -3.9105  -19.1817  -49.5839 O.2       12 UNK        -0.5000 
     74 N          -2.1434  -20.2969  -50.4299 N.am      13 UNK        -0.5000 
     75 CA         -2.8643  -21.2189  -51.3016 C.3       13 UNK         0.1400 
     76 CB         -1.8792  -22.2527  -51.8519 C.3       13 UNK        -0.1800 
     77 C          -3.6645  -20.5309  -52.4224 C.2       13 UNK         0.5000 
     78 O          -4.6141  -21.1223  -52.9285 O.2       13 UNK        -0.5000 
     79 N          -3.3428  -19.2691  -52.7411 N.am      14 UNK        -0.5000 
     80 CA         -4.1553  -18.4040  -53.6025 C.3       14 UNK         0.1400 
     81 CB         -3.4018  -17.0927  -53.8563 C.3       14 UNK        -0.1800 
     82 C          -5.5636  -18.1134  -53.0360 C.2       14 UNK         0.5000 
     83 O          -6.4771  -17.8356  -53.8130 O.2       14 UNK        -0.5000 
     84 N          -5.7238  -18.2134  -51.7080 N.am      15 UNK        -0.5000 
     85 CA         -7.0021  -18.1218  -51.0005 C.3       15 UNK         0.1400 
     86 CB         -6.7810  -17.3635  -49.6796 C.3       15 UNK        -0.1800 
     87 C          -7.6340  -19.5100  -50.7517 C.2       15 UNK         0.5000 
     88 O          -8.6102  -19.5955  -50.0056 O.2       15 UNK        -0.5000 
     89 N          -7.0759  -20.5662  -51.3663 N.am      16 UNK        -0.5000 
     90 CA         -7.4650  -21.9760  -51.2568 C.3       16 UNK         0.1400 
     91 CB         -8.8729  -22.2129  -51.8424 C.3       16 UNK        -0.1800 
     92 C          -7.2876  -22.5349  -49.8280 C.2       16 UNK         0.5000 
     93 O          -8.1701  -23.2299  -49.3208 O.2       16 UNK        -0.5000 
     94 N          -6.1550  -22.1885  -49.1996 N.am      17 UNK        -0.5000 
     95 CA         -5.7521  -22.6193  -47.8615 C.3       17 UNK         0.1400 
     96 CB         -4.8103  -21.5550  -47.2727 C.3       17 UNK        -0.1800 
     97 C          -5.1647  -24.0507  -47.8858 C.2       17 UNK         0.5000 
     98 O          -5.9145  -24.9995  -48.1194 O.2       17 UNK        -0.5000 
     99 N          -3.8541  -24.2106  -47.6330 N.am      18 UNK        -0.5000 
    100 CA        -3.1651  -25.5114  -47.5948 C.3       18 UNK         0.1400 
    101 CB        -1.7449  -25.3281  -47.0370 C.3       18 UNK        -0.1800 
    102 C         -3.1107  -26.2589  -48.9446 C.2       18 UNK         0.5000 
    103 O         -2.9252  -27.4769  -48.9529 O.2       18 UNK        -0.5000 
    104 N         -3.2826  -25.5307  -50.0506 N.am      19 UNK        -0.5000 
    105 CA        -3.4413  -26.0515  -51.4026 C.3       19 UNK         0.1400 
    106 CB        -2.0768  -26.0973  -52.1118 C.3       19 UNK        -0.1800 
    107 C         -4.4496  -25.1576  -52.1380 C.2       19 UNK         0.5000 
    108 O         -4.7563  -24.0641  -51.6584 O.2       19 UNK        -0.5000 
    109 N         -4.9597  -25.6427  -53.2758 N.am      20 UNK        -0.5000 
    110 CA        -6.0109  -24.9864  -54.0592 C.3       20 UNK         0.1400 
    111 CB        -6.6496  -26.0261  -54.9936 C.3       20 UNK        -0.1800 
    112 C         -5.5377  -23.7608  -54.8664 C.2       20 UNK         0.5000 
    113 O         -6.3753  -22.9456  -55.2553 O.2       20 UNK        -0.5000 
    114 N         -4.2287  -23.6576  -55.1235 N.am      21 UNK        -0.5000 
    115 CA        -3.5945  -22.5507  -55.8319 C.3       21 UNK         0.1400 
    116 CB        -3.7372  -22.7451  -57.3522 C.3       21 UNK        -0.1800 
    117 C         -2.1173  -22.4807  -55.4245 C.2       21 UNK         0.5000 
    118 O         -1.5356  -23.5088  -55.0687 O.2       21 UNK        -0.5000 
    119 N         -1.5379  -21.2763  -55.4989 N.am      22 UNK        -0.5000 
    120 CA        -0.1187  -21.0041  -55.1995 C.3       22 UNK         0.1400 
    121 C          0.8724  -21.4100  -56.3326 C.2       22 UNK         0.5000 
    122 N          0.4150  -21.8169  -57.5106 N.am      22 UNK        -0.7600 
    123 O          2.0833  -21.3607  -56.1362 O.2       22 UNK        -0.5000 
    124 C124        0.0960  -19.5269  -54.7465 C.3       23 UNK        -0.0398 
    125 S125        0.4978  -19.3772  -52.9727 S.3       23 UNK        -0.2404 
    126 C126        2.3162  -19.3330  -53.0475 C.3       23 UNK        -0.0205 
    127 H127       -1.2730  -15.0015  -53.5122 H         1 UNK         0.0600 
    128 H128       -0.2664  -16.4538  -53.5901 H         1 UNK         0.0600 
    129 H129        0.4853  -14.8599  -53.5551 H         1 UNK         0.0600 
    130 H130        1.2540  -14.2637  -51.5909 H         1 UNK         0.3000 
    131 H131        1.7685  -14.1217  -49.5124 H         1 UNK         0.0600 
    132 H132        0.2726  -16.3548  -48.2159 H         1 UNK         0.0800 
    133 H133        1.1296  -16.9011  -49.6008 H         1 UNK         0.0800 
    134 H134        3.8235  -15.6578  -49.9528 H         1 UNK         0.0800 
    135 H135        4.8647  -16.3755  -48.7510 H         1 UNK         0.0800 
    136 H136        2.8210  -17.0587  -51.6421 H         1 UNK         0.1150 
    137 H137        3.1723  -21.3231  -51.3798 H         1 UNK         0.1150 
    138 H138        4.4984  -18.8558  -48.1323 H         1 UNK         0.1150 
    139 H139        4.9100  -22.0999  -49.5487 H         1 UNK         0.0800 
    140 H140        4.9489  -21.1960  -48.0573 H         1 UNK         0.0800 
    141 H141        2.5101  -20.2854  -47.1637 H         1 UNK         0.0800 
    142 H142        2.4729  -21.6506  -46.0894 H         1 UNK         0.0800 
    143 H143        0.2946  -22.3232  -47.4903 H         1 UNK         0.0600 
    144 H144        0.5341  -20.7392  -45.0916 H         1 UNK         0.3000 
    145 H145       -2.7481  -21.7057  -43.9659 H         1 UNK         0.0600 
    146 H146       -1.3517  -22.3851  -42.0399 H         1 UNK         0.0600 
    147 H147       -1.1291  -23.5121  -43.3701 H         1 UNK         0.0600 
    148 H148        0.1065  -22.3074  -43.0252 H         1 UNK         0.0600 
    149 H149       -0.7841  -19.9934  -42.8075 H         1 UNK         0.3000 
    150 H150       -2.0549  -16.9209  -44.1860 H         1 UNK         0.0600 
    151 H151       -3.4159  -17.4137  -42.1912 H         1 UNK         0.0600 
    152 H152       -2.0089  -16.4939  -41.6827 H         1 UNK         0.0600 
    153 H153       -2.0694  -18.2251  -41.4066 H         1 UNK         0.0600 
    154 H154        0.1440  -17.4130  -42.4681 H         1 UNK         0.3000 
    155 H155        2.6395  -18.0097  -44.9627 H         1 UNK         0.0600 
    156 H156        2.0927  -15.6231  -43.1223 H         1 UNK         0.0600 
    157 H157        2.5621  -15.5703  -44.8142 H         1 UNK         0.0600 
    158 H158        3.6990  -16.1596  -43.6159 H         1 UNK         0.0600 
    159 H159        2.6479  -17.8944  -42.0854 H         1 UNK         0.3000 
    160 H160        2.1424  -21.3845  -41.5463 H         1 UNK         0.0600 
    161 H161        4.6379  -19.6189  -41.2876 H         1 UNK         0.0600 
    162 H162        4.5546  -21.1488  -42.1531 H         1 UNK         0.0600 
    163 H163        4.3299  -21.1184  -40.4115 H         1 UNK         0.0600 
    164 H164        2.7061  -19.1783  -39.7986 H         1 UNK         0.3000 
    165 H165       -0.6759  -18.2336  -39.1896 H         1 UNK         0.0600 
    166 H166        0.0024  -18.7124  -36.8592 H         1 UNK         0.0600 
    167 H167       -0.2686  -20.2175  -37.7223 H         1 UNK         0.0600 
    168 H168        1.3753  -19.6681  -37.4189 H         1 UNK         0.0600 
    169 H169        1.7137  -17.2643  -38.0433 H         1 UNK         0.3000 
    170 H170        2.0475  -14.8702  -38.5955 H         1 UNK         0.0600 
    171 H171        3.9666  -16.4714  -38.9666 H         1 UNK         0.0600 
    172 H172        3.9500  -16.1093  -40.6898 H         1 UNK         0.0600 
    173 H173        4.3980  -14.8654  -39.5259 H         1 UNK         0.0600 
    174 H174        1.4131  -14.6120  -41.3669 H         1 UNK         0.3000 
    175 H175        1.3415  -11.1534  -41.3348 H         1 UNK         0.0600 
    176 H176        3.2480  -12.7386  -43.1439 H         1 UNK         0.0600 
    177 H177        2.5233  -11.1769  -43.5258 H         1 UNK         0.0600 
    178 H178        3.6786  -11.3106  -42.2088 H         1 UNK         0.0600 
    179 H179        0.8538  -13.2022  -43.3449 H         1 UNK         0.3000 
    180 H180       -1.1952  -14.7330  -42.9050 H         1 UNK         0.0600 
    181 H181       -3.4984  -12.7855  -42.3782 H         1 UNK         0.0600 
    182 H182       -3.0519  -14.1458  -41.3542 H         1 UNK         0.0600 
    183 H183       -3.6522  -14.4382  -42.9765 H         1 UNK         0.0600 
    184 H184       -2.4424  -12.7352  -44.5872 H         1 UNK         0.3000 
    185 H185       -1.9668  -13.1643  -46.9111 H         1 UNK         0.0600 
    186 H186       -0.8053  -11.0773  -47.7218 H         1 UNK         0.0600 
    187 H187       -1.2615  -10.9035  -46.0363 H         1 UNK         0.0600 
    188 H188        0.4111  -11.2513  -46.4581 H         1 UNK         0.0600 
    189 H189        0.6977  -14.1984  -47.0721 H         1 UNK         0.3000 
    190 H190       -1.2928  -19.5377  -46.8381 H         1 UNK         0.3000 
    191 H191       -1.0056  -18.1184  -49.3356 H         1 UNK         0.0600 
    192 H192       -2.9172  -16.8030  -48.5140 H         1 UNK         0.0600 
    193 H193       -1.7726  -17.0166  -47.2014 H         1 UNK         0.0600 
    194 H194       -3.2462  -17.9798  -47.2501 H         1 UNK         0.0600 
    195 H195       -1.1330  -20.4094  -50.3736 H         1 UNK         0.3000 
    196 H196       -3.5882  -21.7512  -50.6826 H         1 UNK         0.0600 
    197 H197       -1.0710  -21.7836  -52.4083 H         1 UNK         0.0600 
    198 H198       -1.4349  -22.8399  -51.0481 H         1 UNK         0.0600 
    199 H199       -2.3844  -22.9456  -52.5226 H         1 UNK         0.0600 
    200 H200       -2.5546  -18.8425  -52.2743 H         1 UNK         0.3000 
    201 H201       -4.2872  -18.9139  -54.5590 H         1 UNK         0.0600 
    202 H202       -2.4444  -17.2757  -54.3417 H         1 UNK         0.0600 
    203 H203       -3.2153  -16.5545  -52.9265 H         1 UNK         0.0600 
    204 H204       -3.9732  -16.4316  -54.5091 H         1 UNK         0.0600 
    205 H205       -4.9277  -18.4654  -51.1292 H         1 UNK         0.3000 
    206 H206       -7.7136  -17.5484  -51.5977 H         1 UNK         0.0600 
    207 H207       -6.3037  -16.3988  -49.8524 H         1 UNK         0.0600 
    208 H208       -7.7285  -17.1694  -49.1759 H         1 UNK         0.0600 
    209 H209       -6.1548  -17.9285  -48.9886 H         1 UNK         0.0600 
    210 H210       -6.2748  -20.4019  -51.9657 H         1 UNK         0.3000 
    211 H211       -6.7678  -22.5238  -51.8888 H         1 UNK         0.0600 
    212 H212       -9.1017  -23.2783  -51.8840 H         1 UNK         0.0600 
    213 H213       -8.9447  -21.8276  -52.8595 H         1 UNK         0.0600 
    214 H214       -9.6498  -21.7352  -51.2451 H         1 UNK         0.0600 
    215 H215       -5.5052  -21.5952  -49.6921 H         1 UNK         0.3000 
    216 H216       -6.6395  -22.6535  -47.2263 H         1 UNK         0.0600 
    217 H217       -3.8905  -21.4585  -47.8492 H         1 UNK         0.0600 
    218 H218       -4.5430  -21.7943  -46.2430 H         1 UNK         0.0600 
    219 H219       -5.2872  -20.5745  -47.2556 H         1 UNK         0.0600 
    220 H220       -3.2924  -23.4038  -47.3782 H         1 UNK         0.3000 
    221 H221       -3.7140  -26.1531  -46.9027 H         1 UNK         0.0600 
    222 H222       -1.7698  -24.9631  -46.0104 H         1 UNK         0.0600 
    223 H223       -1.1662  -24.6231  -47.6350 H         1 UNK         0.0600 
    224 H224       -1.1999  -26.2730  -47.0251 H         1 UNK         0.0600 
    225 H225       -3.5157  -24.5508  -49.9573 H         1 UNK         0.3000 
    226 H226       -3.8624  -27.0584  -51.3623 H         1 UNK         0.0600 
    227 H227       -1.6035  -25.1173  -52.1511 H         1 UNK         0.0600 
    228 H228       -1.3931  -26.7730  -51.5979 H         1 UNK         0.0600 
    229 H229       -2.1747  -26.4555  -53.1371 H         1 UNK         0.0600 
    230 H230       -4.6517  -26.5454  -53.6078 H         1 UNK         0.3000 
    231 H231       -6.7818  -24.6374  -53.3687 H         1 UNK         0.0600 
    232 H232       -5.9250  -26.4279  -55.7030 H         1 UNK         0.0600 
    233 H233       -7.4641  -25.5861  -55.5707 H         1 UNK         0.0600 
    234 H234       -7.0679  -26.8601  -54.4298 H         1 UNK         0.0600 
    235 H235       -3.5861  -24.3426  -54.7480 H         1 UNK         0.3000 
    236 H236       -4.0769  -21.6155  -55.5399 H         1 UNK         0.0600 
    237 H237       -4.7848  -22.7688  -57.6526 H         1 UNK         0.0600 
    238 H238       -3.2643  -21.9287  -57.8991 H         1 UNK         0.0600 
    239 H239       -3.2740  -23.6760  -57.6819 H         1 UNK         0.0600 
    240 H240       -2.0796  -20.4909  -55.8278 H         1 UNK         0.3000 
    241 H241        0.1614  -21.6589  -54.3727 H         1 UNK         0.0600 
    242 H242        1.0697  -22.0798  -58.2308 H         1 UNK         0.3800 
    243 H243       -0.5739  -21.8693  -57.6907 H         1 UNK         0.3800 
    244 H244       -0.7995  -18.9323  -54.9266 H         1 UNK         0.0800 
    245 H245        0.8757  -19.0225  -55.3207 H         1 UNK         0.0800 
    246 H246        2.6344  -18.4966  -53.6717 H         1 UNK         0.0800 
    247 H247        2.6792  -20.2386  -53.5361 H         1 UNK         0.0800 
@<TRIPOS>BOND
     1    1    2 1    
     2    1  127 1    
     3    1  128 1    
     4    1  129 1    
     5    2    3 2    
     6    2    4 am   BACKBONE|DICT|INTERRES
     7    4    5 1    
     8    4  130 1    
     9    5    6 1    
    10    5   65 1    
    11    5  131 1    
    12    6    7 1    
    13    6  132 1    
    14    6  133 1    
    15    7    8 1    
    16    8    9 1    
    17    8  134 1    
    18    8  135 1    
    19    9   10 ar   
    20    9   14 ar   
    21   10   11 ar   
    22   10  136 1    
    23   11   12 ar   
    24   11  126 1    
    25   12   13 ar   
    26   12  137 1    
    27   13   14 ar   
    28   13   15 1    
    29   14  138 1    
    30   15   16 1    
    31   15  139 1    
    32   15  140 1    
    33   16   17 1    
    34   17   18 1    
    35   17  141 1    
    36   17  142 1    
    37   18   19 1    
    38   18   67 1    
    39   18  143 1    
    40   19   20 am   BACKBONE|DICT|INTERRES
    41   19  144 1    
    42   20   21 2    
    43   20   22 1    
    44   22   23 1    
    45   22   24 1    
    46   22  145 1    
    47   23  146 1    
    48   23  147 1    
    49   23  148 1    
    50   24   25 am   BACKBONE|DICT|INTERRES
    51   24  149 1    
    52   25   26 2    
    53   25   27 1    
    54   27   28 1    
    55   27   29 1    
    56   27  150 1    
    57   28  151 1    
    58   28  152 1    
    59   28  153 1    
    60   29   30 am   BACKBONE|DICT|INTERRES
    61   29  154 1    
    62   30   31 2    
    63   30   32 1    
    64   32   33 1    
    65   32   34 1    
    66   32  155 1    
    67   33  156 1    
    68   33  157 1    
    69   33  158 1    
    70   34   35 am   BACKBONE|DICT|INTERRES
    71   34  159 1    
    72   35   36 2    
    73   35   37 1    
    74   37   38 1    
    75   37   39 1    
    76   37  160 1    
    77   38  161 1    
    78   38  162 1    
    79   38  163 1    
    80   39   40 am   BACKBONE|DICT|INTERRES
    81   39  164 1    
    82   40   41 2    
    83   40   42 1    
    84   42   43 1    
    85   42   44 1    
    86   42  165 1    
    87   43  166 1    
    88   43  167 1    
    89   43  168 1    
    90   44   45 am   BACKBONE|DICT|INTERRES
    91   44  169 1    
    92   45   46 2    
    93   45   47 1    
    94   47   48 1    
    95   47   49 1    
    96   47  170 1    
    97   48  171 1    
    98   48  172 1    
    99   48  173 1    
   100   49   50 am   BACKBONE|DICT|INTERRES
   101   49  174 1    
   102   50   51 2    
   103   50   52 1    
   104   52   53 1    
   105   52   54 1    
   106   52  175 1    
   107   53  176 1    
   108   53  177 1    
   109   53  178 1    
   110   54   55 am   BACKBONE|DICT|INTERRES
   111   54  179 1    
   112   55   56 2    
   113   55   57 1    
   114   57   58 1    
   115   57   59 1    
   116   57  180 1    
   117   58  181 1    
   118   58  182 1    
   119   58  183 1    
   120   59   60 am   BACKBONE|DICT|INTERRES
   121   59  184 1    
   122   60   61 2    
   123   60   62 1    
   124   62   63 1    
   125   62   64 1    
   126   62  185 1    
   127   63  186 1    
   128   63  187 1    
   129   63  188 1    
   130   64   65 am   BACKBONE|DICT|INTERRES
   131   64  189 1    
   132   65   66 2    
   133   67   68 2    
   134   67   69 am   BACKBONE|DICT|INTERRES
   135   69   70 1    
   136   69  190 1    
   137   70   71 1    
   138   70   72 1    
   139   70  191 1    
   140   71  192 1    
   141   71  193 1    
   142   71  194 1    
   143   72   73 2    
   144   72   74 am   BACKBONE|DICT|INTERRES
   145   74   75 1    
   146   74  195 1    
   147   75   76 1    
   148   75   77 1    
   149   75  196 1    
   150   76  197 1    
   151   76  198 1    
   152   76  199 1    
   153   77   78 2    
   154   77   79 am   BACKBONE|DICT|INTERRES
   155   79   80 1    
   156   79  200 1    
   157   80   81 1    
   158   80   82 1    
   159   80  201 1    
   160   81  202 1    
   161   81  203 1    
   162   81  204 1    
   163   82   83 2    
   164   82   84 am   BACKBONE|DICT|INTERRES
   165   84   85 1    
   166   84  205 1    
   167   85   86 1    
   168   85   87 1    
   169   85  206 1    
   170   86  207 1    
   171   86  208 1    
   172   86  209 1    
   173   87   88 2    
   174   87   89 am   BACKBONE|DICT|INTERRES
   175   89   90 1    
   176   89  210 1    
   177   90   91 1    
   178   90   92 1    
   179   90  211 1    
   180   91  212 1    
   181   91  213 1    
   182   91  214 1    
   183   92   93 2    
   184   92   94 am   BACKBONE|DICT|INTERRES
   185   94   95 1    
   186   94  215 1    
   187   95   96 1    
   188   95   97 1    
   189   95  216 1    
   190   96  217 1    
   191   96  218 1    
   192   96  219 1    
   193   97   98 2    
   194   97   99 am   BACKBONE|DICT|INTERRES
   195   99  100 1    
   196   99  220 1    
   197  100  101 1    
   198  100  102 1    
   199  100  221 1    
   200  101  222 1    
   201  101  223 1    
   202  101  224 1    
   203  102  103 2    
   204  102  104 am   BACKBONE|DICT|INTERRES
   205  104  105 1    
   206  104  225 1    
   207  105  106 1    
   208  105  107 1    
   209  105  226 1    
   210  106  227 1    
   211  106  228 1    
   212  106  229 1    
   213  107  108 2    
   214  107  109 am   BACKBONE|DICT|INTERRES
   215  109  110 1    
   216  109  230 1    
   217  110  111 1    
   218  110  112 1    
   219  110  231 1    
   220  111  232 1    
   221  111  233 1    
   222  111  234 1    
   223  112  113 2    
   224  112  114 am   BACKBONE|DICT|INTERRES
   225  114  115 1    
   226  114  235 1    
   227  115  116 1    
   228  115  117 1    
   229  115  236 1    
   230  116  237 1    
   231  116  238 1    
   232  116  239 1    
   233  117  118 2    
   234  117  119 am   BACKBONE|DICT|INTERRES
   235  119  120 1    
   236  119  240 1    
   237  120  121 1    
   238  120  124 1    
   239  120  241 1    
   240  121  122 am   BACKBONE|DICT|INTERRES
   241  121  123 2    
   242  122  242 1    
   243  122  243 1    
   244  124  125 1    
   245  124  244 1    
   246  124  245 1    
   247  125  126 1    
   248  126  246 1    
   249  126  247 1    
@<TRIPOS>SUBSTRUCTURE
     1 UNK         1 GROUP             0       ****    0 ROOT    
