@<TRIPOS>MOLECULE
3R540
247   249    1
SMALL
USER_CHARGES


@<TRIPOS>ATOM
      1 CA          0.3115   -9.9706  -48.0883 C.3       0 UNK        -0.1800 
      2 C           0.2367  -11.1397  -47.1185 C.2       0 UNK         0.5000 
      3 O           1.0330  -11.2113  -46.1824 O.2       0 UNK        -0.5000 
      4 N          -0.7291  -12.0465  -47.3185 N.am      1 UNK        -0.5000 
      5 CA         -0.9200  -13.2755  -46.5322 C.3       1 UNK         0.1400 
      6 C6         -1.9702  -14.2205  -47.1695 C.3       23 UNK        -0.0398 
      7 S7         -1.4568  -14.7735  -48.8314 S.3       23 UNK        -0.2404 
      8 C8         -1.9674  -16.5237  -48.8400 C.3       23 UNK        -0.0205 
      9 C9         -1.2791  -17.2771  -49.9684 C.ar      23 UNK        -0.0193 
     10 C10        -1.6521  -17.0452  -51.2947 C.ar      23 UNK        -0.1150 
     11 C11        -0.9764  -17.6755  -52.3423 C.ar      23 UNK        -0.0193 
     12 C12         0.0505  -18.5803  -52.0542 C.ar      23 UNK        -0.1150 
     13 C13         0.4285  -18.8313  -50.7304 C.ar      23 UNK        -0.0193 
     14 C14        -0.2397  -18.1714  -49.6935 C.ar      23 UNK        -0.1150 
     15 C15         1.6062  -19.7542  -50.4349 C.3       23 UNK        -0.0205 
     16 S16         1.0936  -21.4337  -49.9464 S.3       23 UNK        -0.2404 
     17 C17         1.0886  -21.2868  -48.1252 C.3       23 UNK        -0.0398 
     18 CA          0.2783  -22.3780  -47.3826 C.3       11 UNK         0.1400 
     19 N           0.4281  -22.2460  -45.9293 N.am      11 UNK        -0.5000 
     20 C          -0.0949  -23.0710  -45.0095 C.2       10 UNK         0.5000 
     21 O          -0.7107  -24.1010  -45.2773 O.2       10 UNK        -0.5000 
     22 CA          0.0295  -22.6320  -43.5404 C.3       10 UNK         0.1400 
     23 CB          1.4245  -22.9442  -42.9783 C.3       10 UNK        -0.1800 
     24 N          -0.2681  -21.2094  -43.3763 N.am      10 UNK        -0.5000 
     25 C          -1.4761  -20.6619  -43.5783 C.2       9 UNK         0.5000 
     26 O          -2.4838  -21.3091  -43.8584 O.2       9 UNK        -0.5000 
     27 CA         -1.5591  -19.1284  -43.5134 C.3       9 UNK         0.1400 
     28 CB         -1.8145  -18.6539  -42.0757 C.3       9 UNK        -0.1800 
     29 N          -0.3524  -18.5007  -44.0598 N.am      9 UNK        -0.5000 
     30 C          -0.0817  -18.4839  -45.3739 C.2       8 UNK         0.5000 
     31 O          -0.8293  -18.9684  -46.2224 O.2       8 UNK        -0.5000 
     32 CA          1.2480  -17.8669  -45.8349 C.3       8 UNK         0.1400 
     33 CB          1.0799  -16.3758  -46.1380 C.3       8 UNK        -0.1800 
     34 N           2.3542  -18.0586  -44.9014 N.am      8 UNK        -0.5000 
     35 C           2.9294  -19.2440  -44.6573 C.2       7 UNK         0.5000 
     36 O           2.4888  -20.3090  -45.0923 O.2       7 UNK        -0.5000 
     37 CA          4.2035  -19.2423  -43.7973 C.3       7 UNK         0.1400 
     38 CB          5.4265  -18.8882  -44.6570 C.3       7 UNK        -0.1800 
     39 N           4.0946  -18.2828  -42.7000 N.am      7 UNK        -0.5000 
     40 C           4.1057  -18.6035  -41.3995 C.2       6 UNK         0.5000 
     41 O           4.3391  -19.7349  -40.9722 O.2       6 UNK        -0.5000 
     42 CA          3.7710  -17.4770  -40.3971 C.3       6 UNK         0.1400 
     43 CB          5.0598  -16.8230  -39.8766 C.3       6 UNK        -0.1800 
     44 N           2.8907  -16.4320  -40.9300 N.am      6 UNK        -0.5000 
     45 C           1.6797  -16.6345  -41.4677 C.2       5 UNK         0.5000 
     46 O           1.1483  -17.7395  -41.5607 O.2       5 UNK        -0.5000 
     47 CA          0.9585  -15.4155  -42.0673 C.3       5 UNK         0.1400 
     48 CB          0.0444  -14.7710  -41.0151 C.3       5 UNK        -0.1800 
     49 N           1.8174  -14.3806  -42.6535 N.am      5 UNK        -0.5000 
     50 C           2.8343  -14.5377  -43.5147 C.2       4 UNK         0.5000 
     51 O           3.2947  -15.6370  -43.8316 O.2       4 UNK        -0.5000 
     52 CA          3.4230  -13.2609  -44.1524 C.3       4 UNK         0.1400 
     53 CB          3.6219  -13.4385  -45.6673 C.3       4 UNK        -0.1800 
     54 N           2.5947  -12.0719  -43.9374 N.am      4 UNK        -0.5000 
     55 C           2.6229  -11.2827  -42.8560 C.2       3 UNK         0.5000 
     56 O           3.3562  -11.4767  -41.8869 O.2       3 UNK        -0.5000 
     57 CA          1.6344  -10.1061  -42.8450 C.3       3 UNK         0.1400 
     58 CB          2.1744   -8.9358  -43.6819 C.3       3 UNK        -0.1800 
     59 N           0.3269  -10.5102  -43.3649 N.am      3 UNK        -0.5000 
     60 C          -0.6768  -10.9854  -42.6143 C.2       2 UNK         0.5000 
     61 O          -0.6078  -11.1216  -41.3928 O.2       2 UNK        -0.5000 
     62 CA         -1.9803  -11.3726  -43.3422 C.3       2 UNK         0.1400 
     63 CB         -2.9564  -10.1865  -43.3600 C.3       2 UNK        -0.1800 
     64 N          -1.7524  -11.8220  -44.7161 N.am      2 UNK        -0.5000 
     65 C          -1.2479  -13.0194  -45.0448 C.2       1 UNK         0.5000 
     66 O          -1.0165  -13.9037  -44.2228 O.2       1 UNK        -0.5000 
     67 C          -1.2087  -22.3834  -47.7959 C.2       11 UNK         0.5000 
     68 O          -1.6471  -23.3133  -48.4752 O.2       11 UNK        -0.5000 
     69 N          -1.9637  -21.3743  -47.3357 N.am      12 UNK        -0.5000 
     70 CA         -3.3927  -21.2279  -47.6006 C.3       12 UNK         0.1400 
     71 CB         -3.8963  -19.8871  -47.0496 C.3       12 UNK        -0.1800 
     72 C          -4.2355  -22.3980  -47.0654 C.2       12 UNK         0.5000 
     73 O          -5.1349  -22.8567  -47.7706 O.2       12 UNK        -0.5000 
     74 N          -3.9159  -22.8754  -45.8551 N.am      13 UNK        -0.5000 
     75 CA         -4.5482  -24.0346  -45.2285 C.3       13 UNK         0.1400 
     76 CB         -4.1234  -24.1270  -43.7552 C.3       13 UNK        -0.1800 
     77 C          -4.2425  -25.3476  -45.9691 C.2       13 UNK         0.5000 
     78 O          -5.1699  -26.1046  -46.2559 O.2       13 UNK        -0.5000 
     79 N          -2.9616  -25.5836  -46.2893 N.am      14 UNK        -0.5000 
     80 CA         -2.4824  -26.7814  -46.9853 C.3       14 UNK         0.1400 
     81 CB         -0.9464  -26.7921  -46.9972 C.3       14 UNK        -0.1800 
     82 C          -3.0310  -26.9137  -48.4165 C.2       14 UNK         0.5000 
     83 O          -3.3549  -28.0223  -48.8439 O.2       14 UNK        -0.5000 
     84 N          -3.1503  -25.7799  -49.1185 N.am      15 UNK        -0.5000 
     85 CA         -3.7226  -25.6929  -50.4623 C.3       15 UNK         0.1400 
     86 CB         -3.1934  -24.4186  -51.1302 C.3       15 UNK        -0.1800 
     87 C          -5.2661  -25.7380  -50.4821 C.2       15 UNK         0.5000 
     88 O          -5.8390  -25.8867  -51.5611 O.2       15 UNK        -0.5000 
     89 N          -5.8984  -25.6396  -49.3019 N.am      16 UNK        -0.5000 
     90 CA         -7.3400  -25.6248  -49.0440 C.3       16 UNK         0.1400 
     91 CB         -8.0226  -26.9188  -49.5366 C.3       16 UNK        -0.1800 
     92 C          -7.9989  -24.3399  -49.5800 C.2       16 UNK         0.5000 
     93 O          -8.7072  -24.3714  -50.5877 O.2       16 UNK        -0.5000 
     94 N          -7.7386  -23.2367  -48.8655 N.am      17 UNK        -0.5000 
     95 CA         -8.1694  -21.8600  -49.1278 C.3       17 UNK         0.1400 
     96 CB         -9.7035  -21.7380  -49.2551 C.3       17 UNK        -0.1800 
     97 C          -7.3901  -21.2310  -50.2976 C.2       17 UNK         0.5000 
     98 O          -7.9840  -20.6182  -51.1871 O.2       17 UNK        -0.5000 
     99 N          -6.0593  -21.3868  -50.2439 N.am      18 UNK        -0.5000 
    100 CA        -5.0722  -20.9021  -51.2139 C.3       18 UNK         0.1400 
    101 CB        -5.0218  -19.3574  -51.2352 C.3       18 UNK        -0.1800 
    102 C         -5.2349  -21.5595  -52.6005 C.2       18 UNK         0.5000 
    103 O         -5.6341  -22.7217  -52.6708 O.2       18 UNK        -0.5000 
    104 N         -4.8587  -20.8371  -53.6659 N.am      19 UNK        -0.5000 
    105 CA        -4.7219  -21.3181  -55.0479 C.3       19 UNK         0.1400 
    106 CB        -6.0738  -21.7868  -55.6269 C.3       19 UNK        -0.1800 
    107 C         -3.5918  -22.3626  -55.1981 C.2       19 UNK         0.5000 
    108 O         -3.6958  -23.2721  -56.0222 O.2       19 UNK        -0.5000 
    109 N         -2.5265  -22.2034  -54.3959 N.am      20 UNK        -0.5000 
    110 CA        -1.3402  -23.0630  -54.3748 C.3       20 UNK         0.1400 
    111 CB        -0.4627  -22.6749  -53.1713 C.3       20 UNK        -0.1800 
    112 C         -0.5367  -22.9675  -55.6845 C.2       20 UNK         0.5000 
    113 O         -0.2368  -23.9867  -56.3068 O.2       20 UNK        -0.5000 
    114 N         -0.2400  -21.7260  -56.0794 N.am      21 UNK        -0.5000 
    115 CA         0.4212  -21.3326  -57.3236 C.3       21 UNK         0.1400 
    116 CB         1.9322  -21.6342  -57.2502 C.3       21 UNK        -0.1800 
    117 C          0.1187  -19.8456  -57.5933 C.2       21 UNK         0.5000 
    118 O          0.9749  -19.1122  -58.0906 O.2       21 UNK        -0.5000 
    119 N         -1.0815  -19.4154  -57.1860 N.am      22 UNK        -0.5000 
    120 CA        -1.5231  -18.0167  -57.1584 C.3       22 UNK         0.1400 
    121 C         -1.8732  -17.4670  -58.5682 C.2       22 UNK         0.5000 
    122 N         -1.6666  -16.1791  -58.8068 N.am      22 UNK        -0.7600 
    123 O         -2.3681  -18.1857  -59.4340 O.2       22 UNK        -0.5000 
    124 C124       -2.7076  -17.8173  -56.1749 C.3       23 UNK        -0.0398 
    125 S125       -2.4303  -18.5529  -54.5217 S.3       23 UNK        -0.2404 
    126 C126       -1.3149  -17.3288  -53.7831 C.3       23 UNK        -0.0205 
    127 H127        0.1932   -9.0300  -47.5504 H         1 UNK         0.0600 
    128 H128       -0.4639  -10.0274  -48.8525 H         1 UNK         0.0600 
    129 H129        1.2810   -9.9603  -48.5860 H         1 UNK         0.0600 
    130 H130       -1.3497  -11.9385  -48.1083 H         1 UNK         0.3000 
    131 H131        0.0412  -13.7915  -46.5375 H         1 UNK         0.0600 
    132 H132       -2.1229  -15.0985  -46.5389 H         1 UNK         0.0800 
    133 H133       -2.9402  -13.7267  -47.2475 H         1 UNK         0.0800 
    134 H134       -1.7355  -16.9887  -47.8815 H         1 UNK         0.0800 
    135 H135       -3.0499  -16.5869  -48.9604 H         1 UNK         0.0800 
    136 H136       -2.4416  -16.3389  -51.5106 H         1 UNK         0.1150 
    137 H137        0.5771  -19.0641  -52.8648 H         1 UNK         0.1150 
    138 H138        0.0619  -18.3321  -48.6709 H         1 UNK         0.1150 
    139 H139        2.2389  -19.8372  -51.3199 H         1 UNK         0.0800 
    140 H140        2.2382  -19.3151  -49.6614 H         1 UNK         0.0800 
    141 H141        0.7151  -20.3028  -47.8545 H         1 UNK         0.0800 
    142 H142        2.1270  -21.3136  -47.7915 H         1 UNK         0.0800 
    143 H143        0.6944  -23.3496  -47.6568 H         1 UNK         0.0600 
    144 H144        0.9676  -21.4498  -45.6034 H         1 UNK         0.3000 
    145 H145       -0.7023  -23.1981  -42.9602 H         1 UNK         0.0600 
    146 H146        1.4931  -22.6771  -41.9236 H         1 UNK         0.0600 
    147 H147        1.6448  -24.0094  -43.0585 H         1 UNK         0.0600 
    148 H148        2.2100  -22.4080  -43.5104 H         1 UNK         0.0600 
    149 H149        0.5110  -20.5990  -43.1792 H         1 UNK         0.3000 
    150 H150       -2.4110  -18.8122  -44.1193 H         1 UNK         0.0600 
    151 H151       -2.7898  -18.9947  -41.7264 H         1 UNK         0.0600 
    152 H152       -1.8059  -17.5659  -42.0082 H         1 UNK         0.0600 
    153 H153       -1.0705  -19.0437  -41.3808 H         1 UNK         0.0600 
    154 H154        0.3193  -18.1387  -43.3923 H         1 UNK         0.3000 
    155 H155        1.5298  -18.3569  -46.7683 H         1 UNK         0.0600 
    156 H156        0.7558  -15.8192  -45.2595 H         1 UNK         0.0600 
    157 H157        0.3361  -16.2247  -46.9181 H         1 UNK         0.0600 
    158 H158        2.0120  -15.9388  -46.4950 H         1 UNK         0.0600 
    159 H159        2.7672  -17.2116  -44.5185 H         1 UNK         0.3000 
    160 H160        4.3367  -20.2569  -43.4164 H         1 UNK         0.0600 
    161 H161        5.3539  -17.8796  -45.0665 H         1 UNK         0.0600 
    162 H162        5.5289  -19.5787  -45.4953 H         1 UNK         0.0600 
    163 H163        6.3453  -18.9462  -44.0734 H         1 UNK         0.0600 
    164 H164        3.8865  -17.3228  -42.9550 H         1 UNK         0.3000 
    165 H165        3.2544  -17.9380  -39.5529 H         1 UNK         0.0600 
    166 H166        4.8456  -16.0932  -39.0957 H         1 UNK         0.0600 
    167 H167        5.7311  -17.5681  -39.4475 H         1 UNK         0.0600 
    168 H168        5.6015  -16.3136  -40.6747 H         1 UNK         0.0600 
    169 H169        3.2534  -15.4901  -40.9240 H         1 UNK         0.3000 
    170 H170        0.3261  -15.7924  -42.8721 H         1 UNK         0.0600 
    171 H171       -0.6153  -15.5113  -40.5604 H         1 UNK         0.0600 
    172 H172        0.6195  -14.3045  -40.2143 H         1 UNK         0.0600 
    173 H173       -0.5914  -14.0062  -41.4607 H         1 UNK         0.0600 
    174 H174        1.5297  -13.4308  -42.4723 H         1 UNK         0.3000 
    175 H175        4.4032  -13.1012  -43.6993 H         1 UNK         0.0600 
    176 H176        2.6730  -13.6024  -46.1789 H         1 UNK         0.0600 
    177 H177        4.0872  -12.5564  -46.1076 H         1 UNK         0.0600 
    178 H178        4.2690  -14.2882  -45.8885 H         1 UNK         0.0600 
    179 H179        1.9742  -11.8186  -44.7034 H         1 UNK         0.3000 
    180 H180        1.5314   -9.7605  -41.8140 H         1 UNK         0.0600 
    181 H181        2.3034   -9.2100  -44.7296 H         1 UNK         0.0600 
    182 H182        3.1438   -8.6039  -43.3079 H         1 UNK         0.0600 
    183 H183        1.5002   -8.0802  -43.6412 H         1 UNK         0.0600 
    184 H184        0.2212  -10.4939  -44.3716 H         1 UNK         0.3000 
    185 H185       -2.4447  -12.1864  -42.7808 H         1 UNK         0.0600 
    186 H186       -3.1687   -9.8406  -42.3474 H         1 UNK         0.0600 
    187 H187       -2.5532   -9.3405  -43.9181 H         1 UNK         0.0600 
    188 H188       -3.9079  -10.4656  -43.8128 H         1 UNK         0.0600 
    189 H189       -1.9241  -11.1533  -45.4526 H         1 UNK         0.3000 
    190 H190       -1.5260  -20.6272  -46.8027 H         1 UNK         0.3000 
    191 H191       -3.5111  -21.2081  -48.6828 H         1 UNK         0.0600 
    192 H192       -3.3612  -19.0515  -47.5007 H         1 UNK         0.0600 
    193 H193       -4.9564  -19.7487  -47.2659 H         1 UNK         0.0600 
    194 H194       -3.7680  -19.8234  -45.9688 H         1 UNK         0.0600 
    195 H195       -3.1981  -22.4031  -45.3132 H         1 UNK         0.3000 
    196 H196       -5.6291  -23.8817  -45.2569 H         1 UNK         0.0600 
    197 H197       -4.5837  -24.9873  -43.2678 H         1 UNK         0.0600 
    198 H198       -4.4287  -23.2386  -43.2021 H         1 UNK         0.0600 
    199 H199       -3.0426  -24.2288  -43.6522 H         1 UNK         0.0600 
    200 H200       -2.2486  -24.9157  -46.0045 H         1 UNK         0.3000 
    201 H201       -2.8231  -27.6515  -46.4204 H         1 UNK         0.0600 
    202 H202       -0.5450  -26.8039  -45.9838 H         1 UNK         0.0600 
    203 H203       -0.5434  -25.9157  -47.5068 H         1 UNK         0.0600 
    204 H204       -0.5636  -27.6763  -47.5083 H         1 UNK         0.0600 
    205 H205       -2.8023  -24.9137  -48.7160 H         1 UNK         0.3000 
    206 H206       -3.3682  -26.5453  -51.0456 H         1 UNK         0.0600 
    207 H207       -2.1042  -24.4153  -51.1413 H         1 UNK         0.0600 
    208 H208       -3.5309  -24.3450  -52.1645 H         1 UNK         0.0600 
    209 H209       -3.5273  -23.5261  -50.6021 H         1 UNK         0.0600 
    210 H210       -5.3201  -25.5299  -48.4789 H         1 UNK         0.3000 
    211 H211       -7.4497  -25.6065  -47.9584 H         1 UNK         0.0600 
    212 H212       -7.9986  -27.0139  -50.6222 H         1 UNK         0.0600 
    213 H213       -9.0702  -26.9395  -49.2348 H         1 UNK         0.0600 
    214 H214       -7.5441  -27.8013  -49.1120 H         1 UNK         0.0600 
    215 H215       -7.0476  -23.3204  -48.1267 H         1 UNK         0.3000 
    216 H216       -7.8816  -21.2907  -48.2426 H         1 UNK         0.0600 
    217 H217      -10.0063  -20.6906  -49.2761 H         1 UNK         0.0600 
    218 H218      -10.2088  -22.2048  -48.4097 H         1 UNK         0.0600 
    219 H219      -10.0786  -22.1988  -50.1690 H         1 UNK         0.0600 
    220 H220       -5.6954  -21.9635  -49.4933 H         1 UNK         0.3000 
    221 H221       -4.1025  -21.2441  -50.8549 H         1 UNK         0.0600 
    222 H222       -5.9109  -18.9263  -51.6965 H         1 UNK         0.0600 
    223 H223       -4.9440  -18.9557  -50.2247 H         1 UNK         0.0600 
    224 H224       -4.1518  -18.9938  -51.7833 H         1 UNK         0.0600 
    225 H225       -4.5510  -19.8868  -53.5090 H         1 UNK         0.3000 
    226 H226       -4.4111  -20.4576  -55.6397 H         1 UNK         0.0600 
    227 H227       -6.8470  -21.0321  -55.4835 H         1 UNK         0.0600 
    228 H228       -5.9947  -21.9698  -56.6991 H         1 UNK         0.0600 
    229 H229       -6.4182  -22.7127  -55.1660 H         1 UNK         0.0600 
    230 H230       -2.5290  -21.4248  -53.7542 H         1 UNK         0.3000 
    231 H231       -1.6698  -24.0961  -54.2465 H         1 UNK         0.0600 
    232 H232       -0.0670  -21.6625  -53.2611 H         1 UNK         0.0600 
    233 H233        0.3880  -23.3504  -53.0751 H         1 UNK         0.0600 
    234 H234       -1.0199  -22.7196  -52.2368 H         1 UNK         0.0600 
    235 H235       -0.5167  -20.9579  -55.4838 H         1 UNK         0.3000 
    236 H236       -0.0125  -21.9013  -58.1484 H         1 UNK         0.0600 
    237 H237        2.1207  -22.6949  -57.0854 H         1 UNK         0.0600 
    238 H238        2.4329  -21.3617  -58.1799 H         1 UNK         0.0600 
    239 H239        2.4104  -21.0799  -56.4419 H         1 UNK         0.0600 
    240 H240       -1.7518  -20.0930  -56.8589 H         1 UNK         0.3000 
    241 H241       -0.6838  -17.4276  -56.7840 H         1 UNK         0.0600 
    242 H242       -1.2670  -15.5666  -58.1121 H         1 UNK         0.3800 
    243 H243       -1.9031  -15.8060  -59.7135 H         1 UNK         0.3800 
    244 H244       -2.9275  -16.7553  -56.0534 H         1 UNK         0.0800 
    245 H245       -3.6152  -18.2642  -56.5842 H         1 UNK         0.0800 
    246 H246       -1.7745  -16.3405  -53.8353 H         1 UNK         0.0800 
    247 H247       -0.3960  -17.2728  -54.3683 H         1 UNK         0.0800 
@<TRIPOS>BOND
     1    1    2 1    
     2    1  127 1    
     3    1  128 1    
     4    1  129 1    
     5    2    3 2    
     6    2    4 am   BACKBONE|DICT|INTERRES
     7    4    5 1    
     8    4  130 1    
     9    5    6 1    
    10    5   65 1    
    11    5  131 1    
    12    6    7 1    
    13    6  132 1    
    14    6  133 1    
    15    7    8 1    
    16    8    9 1    
    17    8  134 1    
    18    8  135 1    
    19    9   10 ar   
    20    9   14 ar   
    21   10   11 ar   
    22   10  136 1    
    23   11   12 ar   
    24   11  126 1    
    25   12   13 ar   
    26   12  137 1    
    27   13   14 ar   
    28   13   15 1    
    29   14  138 1    
    30   15   16 1    
    31   15  139 1    
    32   15  140 1    
    33   16   17 1    
    34   17   18 1    
    35   17  141 1    
    36   17  142 1    
    37   18   19 1    
    38   18   67 1    
    39   18  143 1    
    40   19   20 am   BACKBONE|DICT|INTERRES
    41   19  144 1    
    42   20   21 2    
    43   20   22 1    
    44   22   23 1    
    45   22   24 1    
    46   22  145 1    
    47   23  146 1    
    48   23  147 1    
    49   23  148 1    
    50   24   25 am   BACKBONE|DICT|INTERRES
    51   24  149 1    
    52   25   26 2    
    53   25   27 1    
    54   27   28 1    
    55   27   29 1    
    56   27  150 1    
    57   28  151 1    
    58   28  152 1    
    59   28  153 1    
    60   29   30 am   BACKBONE|DICT|INTERRES
    61   29  154 1    
    62   30   31 2    
    63   30   32 1    
    64   32   33 1    
    65   32   34 1    
    66   32  155 1    
    67   33  156 1    
    68   33  157 1    
    69   33  158 1    
    70   34   35 am   BACKBONE|DICT|INTERRES
    71   34  159 1    
    72   35   36 2    
    73   35   37 1    
    74   37   38 1    
    75   37   39 1    
    76   37  160 1    
    77   38  161 1    
    78   38  162 1    
    79   38  163 1    
    80   39   40 am   BACKBONE|DICT|INTERRES
    81   39  164 1    
    82   40   41 2    
    83   40   42 1    
    84   42   43 1    
    85   42   44 1    
    86   42  165 1    
    87   43  166 1    
    88   43  167 1    
    89   43  168 1    
    90   44   45 am   BACKBONE|DICT|INTERRES
    91   44  169 1    
    92   45   46 2    
    93   45   47 1    
    94   47   48 1    
    95   47   49 1    
    96   47  170 1    
    97   48  171 1    
    98   48  172 1    
    99   48  173 1    
   100   49   50 am   BACKBONE|DICT|INTERRES
   101   49  174 1    
   102   50   51 2    
   103   50   52 1    
   104   52   53 1    
   105   52   54 1    
   106   52  175 1    
   107   53  176 1    
   108   53  177 1    
   109   53  178 1    
   110   54   55 am   BACKBONE|DICT|INTERRES
   111   54  179 1    
   112   55   56 2    
   113   55   57 1    
   114   57   58 1    
   115   57   59 1    
   116   57  180 1    
   117   58  181 1    
   118   58  182 1    
   119   58  183 1    
   120   59   60 am   BACKBONE|DICT|INTERRES
   121   59  184 1    
   122   60   61 2    
   123   60   62 1    
   124   62   63 1    
   125   62   64 1    
   126   62  185 1    
   127   63  186 1    
   128   63  187 1    
   129   63  188 1    
   130   64   65 am   BACKBONE|DICT|INTERRES
   131   64  189 1    
   132   65   66 2    
   133   67   68 2    
   134   67   69 am   BACKBONE|DICT|INTERRES
   135   69   70 1    
   136   69  190 1    
   137   70   71 1    
   138   70   72 1    
   139   70  191 1    
   140   71  192 1    
   141   71  193 1    
   142   71  194 1    
   143   72   73 2    
   144   72   74 am   BACKBONE|DICT|INTERRES
   145   74   75 1    
   146   74  195 1    
   147   75   76 1    
   148   75   77 1    
   149   75  196 1    
   150   76  197 1    
   151   76  198 1    
   152   76  199 1    
   153   77   78 2    
   154   77   79 am   BACKBONE|DICT|INTERRES
   155   79   80 1    
   156   79  200 1    
   157   80   81 1    
   158   80   82 1    
   159   80  201 1    
   160   81  202 1    
   161   81  203 1    
   162   81  204 1    
   163   82   83 2    
   164   82   84 am   BACKBONE|DICT|INTERRES
   165   84   85 1    
   166   84  205 1    
   167   85   86 1    
   168   85   87 1    
   169   85  206 1    
   170   86  207 1    
   171   86  208 1    
   172   86  209 1    
   173   87   88 2    
   174   87   89 am   BACKBONE|DICT|INTERRES
   175   89   90 1    
   176   89  210 1    
   177   90   91 1    
   178   90   92 1    
   179   90  211 1    
   180   91  212 1    
   181   91  213 1    
   182   91  214 1    
   183   92   93 2    
   184   92   94 am   BACKBONE|DICT|INTERRES
   185   94   95 1    
   186   94  215 1    
   187   95   96 1    
   188   95   97 1    
   189   95  216 1    
   190   96  217 1    
   191   96  218 1    
   192   96  219 1    
   193   97   98 2    
   194   97   99 am   BACKBONE|DICT|INTERRES
   195   99  100 1    
   196   99  220 1    
   197  100  101 1    
   198  100  102 1    
   199  100  221 1    
   200  101  222 1    
   201  101  223 1    
   202  101  224 1    
   203  102  103 2    
   204  102  104 am   BACKBONE|DICT|INTERRES
   205  104  105 1    
   206  104  225 1    
   207  105  106 1    
   208  105  107 1    
   209  105  226 1    
   210  106  227 1    
   211  106  228 1    
   212  106  229 1    
   213  107  108 2    
   214  107  109 am   BACKBONE|DICT|INTERRES
   215  109  110 1    
   216  109  230 1    
   217  110  111 1    
   218  110  112 1    
   219  110  231 1    
   220  111  232 1    
   221  111  233 1    
   222  111  234 1    
   223  112  113 2    
   224  112  114 am   BACKBONE|DICT|INTERRES
   225  114  115 1    
   226  114  235 1    
   227  115  116 1    
   228  115  117 1    
   229  115  236 1    
   230  116  237 1    
   231  116  238 1    
   232  116  239 1    
   233  117  118 2    
   234  117  119 am   BACKBONE|DICT|INTERRES
   235  119  120 1    
   236  119  240 1    
   237  120  121 1    
   238  120  124 1    
   239  120  241 1    
   240  121  122 am   BACKBONE|DICT|INTERRES
   241  121  123 2    
   242  122  242 1    
   243  122  243 1    
   244  124  125 1    
   245  124  244 1    
   246  124  245 1    
   247  125  126 1    
   248  126  246 1    
   249  126  247 1    
@<TRIPOS>SUBSTRUCTURE
     1 UNK         1 GROUP             0       ****    0 ROOT    
