@<TRIPOS>MOLECULE
3R540
247   249    1
SMALL
USER_CHARGES


@<TRIPOS>ATOM
      1 CA         -5.5945   -9.2410  -43.7107 C.3       0 UNK        -0.1800 
      2 C          -4.4478   -9.7674  -44.5616 C.2       0 UNK         0.5000 
      3 O          -3.4446   -9.0746  -44.7375 O.2       0 UNK        -0.5000 
      4 N          -4.5822  -10.9934  -45.0834 N.am      1 UNK        -0.5000 
      5 CA         -3.5910  -11.6843  -45.9165 C.3       1 UNK         0.1400 
      6 C6         -4.2787  -12.7013  -46.8623 C.3       23 UNK        -0.0398 
      7 S7         -3.2000  -13.2237  -48.2396 S.3       23 UNK        -0.2404 
      8 C8         -3.2975  -15.0335  -48.0732 C.3       23 UNK        -0.0205 
      9 C9         -2.2631  -15.7339  -48.9393 C.ar      23 UNK        -0.0193 
     10 C10        -2.3482  -15.6711  -50.3335 C.ar      23 UNK        -0.1150 
     11 C11        -1.3928  -16.3067  -51.1308 C.ar      23 UNK        -0.0193 
     12 C12        -0.3609  -17.0304  -50.5254 C.ar      23 UNK        -0.1150 
     13 C13        -0.2737  -17.1114  -49.1329 C.ar      23 UNK        -0.0193 
     14 C14        -1.2226  -16.4534  -48.3455 C.ar      23 UNK        -0.1150 
     15 C15         0.8453  -17.9080  -48.4780 C.3       23 UNK        -0.0205 
     16 S16         0.5102  -19.6977  -48.4810 S.3       23 UNK        -0.2404 
     17 C17        -1.0878  -19.7701  -47.6071 C.3       23 UNK        -0.0398 
     18 CA         -1.4254  -21.1998  -47.1322 C.3       11 UNK         0.1400 
     19 N          -0.5010  -21.6969  -46.1129 N.am      11 UNK        -0.5000 
     20 C          -0.4500  -22.9670  -45.6880 C.2       10 UNK         0.5000 
     21 O          -1.1577  -23.8698  -46.1332 O.2       10 UNK        -0.5000 
     22 CA          0.5209  -23.2607  -44.5323 C.3       10 UNK         0.1400 
     23 CB          1.9486  -23.4603  -45.0615 C.3       10 UNK        -0.1800 
     24 N           0.5073  -22.1988  -43.5240 N.am      10 UNK        -0.5000 
     25 C          -0.5479  -21.9211  -42.7447 C.2       9 UNK         0.5000 
     26 O          -1.6042  -22.5541  -42.7693 O.2       9 UNK        -0.5000 
     27 CA         -0.4149  -20.7005  -41.8197 C.3       9 UNK         0.1400 
     28 CB          0.3527  -21.0658  -40.5409 C.3       9 UNK        -0.1800 
     29 N           0.2268  -19.5567  -42.4733 N.am      9 UNK        -0.5000 
     30 C          -0.3190  -18.8610  -43.4828 C.2       8 UNK         0.5000 
     31 O          -1.3705  -19.1931  -44.0278 O.2       8 UNK        -0.5000 
     32 CA          0.4125  -17.6106  -44.0095 C.3       8 UNK         0.1400 
     33 CB         -0.5230  -16.3863  -44.0626 C.3       8 UNK        -0.1800 
     34 N           1.6645  -17.3019  -43.3163 N.am      8 UNK        -0.5000 
     35 C           1.8506  -16.8492  -42.0659 C.2       7 UNK         0.5000 
     36 O           0.9332  -16.5655  -41.2942 O.2       7 UNK        -0.5000 
     37 CA          3.3210  -16.7443  -41.5903 C.3       7 UNK         0.1400 
     38 CB          3.4586  -16.8376  -40.0566 C.3       7 UNK        -0.1800 
     39 N           4.2131  -17.7124  -42.2445 N.am      7 UNK        -0.5000 
     40 C           4.0693  -19.0482  -42.2704 C.2       6 UNK         0.5000 
     41 O           3.1937  -19.6485  -41.6455 O.2       6 UNK        -0.5000 
     42 CA          5.0152  -19.8316  -43.2085 C.3       6 UNK         0.1400 
     43 CB          4.4045  -21.1724  -43.6640 C.3       6 UNK        -0.1800 
     44 N           5.4546  -19.0537  -44.3755 N.am      6 UNK        -0.5000 
     45 C           4.6783  -18.4652  -45.2983 C.2       5 UNK         0.5000 
     46 O           3.4466  -18.5136  -45.3039 O.2       5 UNK        -0.5000 
     47 CA          5.4092  -17.6119  -46.3496 C.3       5 UNK         0.1400 
     48 CB          4.8759  -17.8930  -47.7631 C.3       5 UNK        -0.1800 
     49 N           5.2835  -16.1797  -46.0732 N.am      5 UNK        -0.5000 
     50 C           5.6876  -15.5450  -44.9626 C.2       4 UNK         0.5000 
     51 O           6.2092  -16.1052  -43.9971 O.2       4 UNK        -0.5000 
     52 CA          5.4659  -14.0216  -44.9224 C.3       4 UNK         0.1400 
     53 CB          6.6719  -13.2867  -45.5268 C.3       4 UNK        -0.1800 
     54 N           4.2458  -13.5999  -45.6158 N.am      4 UNK        -0.5000 
     55 C           3.0118  -13.8175  -45.1453 C.2       3 UNK         0.5000 
     56 O           2.7820  -14.4137  -44.0918 O.2       3 UNK        -0.5000 
     57 CA          1.8436  -13.2964  -46.0049 C.3       3 UNK         0.1400 
     58 CB          1.4013  -14.3680  -47.0139 C.3       3 UNK        -0.1800 
     59 N           0.6930  -12.9121  -45.1864 N.am      3 UNK        -0.5000 
     60 C           0.6780  -11.9109  -44.2977 C.2       2 UNK         0.5000 
     61 O           1.6092  -11.1162  -44.1506 O.2       2 UNK        -0.5000 
     62 CA         -0.6120  -11.7623  -43.4663 C.3       2 UNK         0.1400 
     63 CB         -0.4952  -10.6905  -42.3676 C.3       2 UNK        -0.1800 
     64 N          -1.7477  -11.4287  -44.3227 N.am      2 UNK        -0.5000 
     65 C          -2.4664  -12.2948  -45.0455 C.2       1 UNK         0.5000 
     66 O          -2.2703  -13.5113  -45.0235 O.2       1 UNK        -0.5000 
     67 C          -2.8847  -21.2889  -46.6530 C.2       11 UNK         0.5000 
     68 O          -3.7258  -21.7737  -47.4051 O.2       11 UNK        -0.5000 
     69 N          -3.1577  -20.8741  -45.4083 N.am      12 UNK        -0.5000 
     70 CA         -4.4753  -20.9574  -44.7757 C.3       12 UNK         0.1400 
     71 CB         -4.4356  -20.2652  -43.4051 C.3       12 UNK        -0.1800 
     72 C          -4.9894  -22.4029  -44.6454 C.2       12 UNK         0.5000 
     73 O          -6.1648  -22.6511  -44.9152 O.2       12 UNK        -0.5000 
     74 N          -4.0947  -23.3326  -44.2808 N.am      13 UNK        -0.5000 
     75 CA         -4.3752  -24.7676  -44.2077 C.3       13 UNK         0.1400 
     76 CB         -3.2044  -25.4811  -43.5148 C.3       13 UNK        -0.1800 
     77 C          -4.6588  -25.3954  -45.5868 C.2       13 UNK         0.5000 
     78 O          -5.5560  -26.2311  -45.7011 O.2       13 UNK        -0.5000 
     79 N          -3.9011  -24.9735  -46.6077 N.am      14 UNK        -0.5000 
     80 CA         -4.0323  -25.4331  -47.9923 C.3       14 UNK         0.1400 
     81 CB         -2.7101  -25.1502  -48.7227 C.3       14 UNK        -0.1800 
     82 C          -5.2091  -24.7902  -48.7559 C.2       14 UNK         0.5000 
     83 O          -5.5813  -25.2957  -49.8138 O.2       14 UNK        -0.5000 
     84 N          -5.7470  -23.6808  -48.2303 N.am      15 UNK        -0.5000 
     85 CA         -6.7120  -22.7714  -48.8597 C.3       15 UNK         0.1400 
     86 CB         -8.0572  -23.4682  -49.1521 C.3       15 UNK        -0.1800 
     87 C          -6.1141  -22.0134  -50.0681 C.2       15 UNK         0.5000 
     88 O          -6.8222  -21.7088  -51.0299 O.2       15 UNK        -0.5000 
     89 N          -4.8166  -21.6925  -49.9553 N.am      16 UNK        -0.5000 
     90 CA         -3.9957  -20.8253  -50.8001 C.3       16 UNK         0.1400 
     91 CB         -4.2843  -19.3535  -50.4335 C.3       16 UNK        -0.1800 
     92 C          -4.1182  -21.1336  -52.3066 C.2       16 UNK         0.5000 
     93 O          -3.5535  -22.1236  -52.7791 O.2       16 UNK        -0.5000 
     94 N          -4.8589  -20.2886  -53.0342 N.am      17 UNK        -0.5000 
     95 CA         -5.1037  -20.3865  -54.4715 C.3       17 UNK         0.1400 
     96 CB         -5.8698  -19.1389  -54.9339 C.3       17 UNK        -0.1800 
     97 C          -5.8421  -21.6689  -54.9009 C.2       17 UNK         0.5000 
     98 O          -5.6601  -22.1016  -56.0385 O.2       17 UNK        -0.5000 
     99 N          -6.6144  -22.2868  -53.9935 N.am      18 UNK        -0.5000 
    100 CA        -7.3021  -23.5605  -54.2325 C.3       18 UNK         0.1400 
    101 CB        -8.3049  -23.8224  -53.1010 C.3       18 UNK        -0.1800 
    102 C         -6.3335  -24.7518  -54.3776 C.2       18 UNK         0.5000 
    103 O         -6.6486  -25.7039  -55.0919 O.2       18 UNK        -0.5000 
    104 N         -5.1652  -24.6619  -53.7280 N.am      19 UNK        -0.5000 
    105 CA        -4.0590  -25.6137  -53.8498 C.3       19 UNK         0.1400 
    106 CB        -3.4038  -25.7783  -52.4706 C.3       19 UNK        -0.1800 
    107 C         -3.0148  -25.1615  -54.8892 C.2       19 UNK         0.5000 
    108 O         -2.0187  -25.8599  -55.0816 O.2       19 UNK        -0.5000 
    109 N         -3.2425  -23.9971  -55.5168 N.am      20 UNK        -0.5000 
    110 CA        -2.3490  -23.2881  -56.4356 C.3       20 UNK         0.1400 
    111 CB        -2.1576  -24.0820  -57.7447 C.3       20 UNK        -0.1800 
    112 C         -1.0183  -22.8712  -55.7727 C.2       20 UNK         0.5000 
    113 O          0.0225  -22.8663  -56.4326 O.2       20 UNK        -0.5000 
    114 N         -1.0718  -22.5209  -54.4770 N.am      21 UNK        -0.5000 
    115 CA         0.0801  -22.0300  -53.7144 C.3       21 UNK         0.1400 
    116 CB        -0.2430  -22.0777  -52.2123 C.3       21 UNK        -0.1800 
    117 C          0.4910  -20.6044  -54.1305 C.2       21 UNK         0.5000 
    118 O          1.6689  -20.2563  -54.0408 O.2       21 UNK        -0.5000 
    119 N         -0.4916  -19.8141  -54.5766 N.am      22 UNK        -0.5000 
    120 CA        -0.3199  -18.4503  -55.0877 C.3       22 UNK         0.1400 
    121 C          0.2618  -18.4479  -56.5262 C.2       22 UNK         0.5000 
    122 N          1.2389  -17.5977  -56.8099 N.am      22 UNK        -0.7600 
    123 O         -0.1975  -19.1804  -57.3996 O.2       22 UNK        -0.5000 
    124 C124       -1.6486  -17.6533  -55.0359 C.3       23 UNK        -0.0398 
    125 S125       -2.3619  -17.6093  -53.3586 S.3       23 UNK        -0.2404 
    126 C126       -1.4616  -16.2019  -52.6447 C.3       23 UNK        -0.0205 
    127 H127       -6.4122   -9.9590  -43.6427 H         1 UNK         0.0600 
    128 H128       -5.9866   -8.3187  -44.1391 H         1 UNK         0.0600 
    129 H129       -5.2444   -9.0274  -42.7008 H         1 UNK         0.0600 
    130 H130       -5.4157  -11.5237  -44.8714 H         1 UNK         0.3000 
    131 H131       -3.1158  -10.9331  -46.5516 H         1 UNK         0.0600 
    132 H132       -5.1603  -12.2445  -47.3141 H         1 UNK         0.0800 
    133 H133       -4.6461  -13.5649  -46.3054 H         1 UNK         0.0800 
    134 H134       -4.2959  -15.3712  -48.3547 H         1 UNK         0.0800 
    135 H135       -3.1589  -15.3067  -47.0256 H         1 UNK         0.0800 
    136 H136       -3.1512  -15.1146  -50.7961 H         1 UNK         0.1150 
    137 H137        0.3728  -17.5353  -51.1383 H         1 UNK         0.1150 
    138 H138       -1.1541  -16.5066  -47.2684 H         1 UNK         0.1150 
    139 H139        1.0136  -17.5739  -47.4538 H         1 UNK         0.0800 
    140 H140        1.7762  -17.7255  -49.0154 H         1 UNK         0.0800 
    141 H141       -1.8517  -19.4060  -48.2965 H         1 UNK         0.0800 
    142 H142       -1.0732  -19.0765  -46.7651 H         1 UNK         0.0800 
    143 H143       -1.3400  -21.8629  -47.9963 H         1 UNK         0.0600 
    144 H144        0.1053  -21.0163  -45.6822 H         1 UNK         0.3000 
    145 H145        0.2014  -24.1883  -44.0524 H         1 UNK         0.0600 
    146 H146        2.3129  -22.5777  -45.5882 H         1 UNK         0.0600 
    147 H147        1.9877  -24.2955  -45.7620 H         1 UNK         0.0600 
    148 H148        2.6438  -23.6839  -44.2522 H         1 UNK         0.0600 
    149 H149        1.3341  -21.6265  -43.4382 H         1 UNK         0.3000 
    150 H150       -1.4222  -20.3938  -41.5305 H         1 UNK         0.0600 
    151 H151        1.3641  -21.4095  -40.7600 H         1 UNK         0.0600 
    152 H152       -0.1538  -21.8651  -39.9985 H         1 UNK         0.0600 
    153 H153        0.4279  -20.2116  -39.8677 H         1 UNK         0.0600 
    154 H154        1.1244  -19.2664  -42.1030 H         1 UNK         0.3000 
    155 H155        0.7019  -17.8446  -45.0343 H         1 UNK         0.0600 
    156 H156       -0.9692  -16.1722  -43.0913 H         1 UNK         0.0600 
    157 H157       -1.3422  -16.5478  -44.7640 H         1 UNK         0.0600 
    158 H158        0.0109  -15.4947  -44.3847 H         1 UNK         0.0600 
    159 H159        2.4926  -17.5376  -43.8545 H         1 UNK         0.3000 
    160 H160        3.6691  -15.7563  -41.8938 H         1 UNK         0.0600 
    161 H161        3.0675  -17.7799  -39.6716 H         1 UNK         0.0600 
    162 H162        2.9128  -16.0317  -39.5647 H         1 UNK         0.0600 
    163 H163        4.5010  -16.7559  -39.7487 H         1 UNK         0.0600 
    164 H164        4.9527  -17.3069  -42.8091 H         1 UNK         0.3000 
    165 H165        5.9100  -20.0517  -42.6249 H         1 UNK         0.0600 
    166 H166        4.1938  -21.8207  -42.8126 H         1 UNK         0.0600 
    167 H167        3.4684  -21.0189  -44.2000 H         1 UNK         0.0600 
    168 H168        5.0835  -21.7140  -44.3223 H         1 UNK         0.0600 
    169 H169        6.4514  -18.8954  -44.4313 H         1 UNK         0.3000 
    170 H170        6.4708  -17.8665  -46.3332 H         1 UNK         0.0600 
    171 H171        5.4587  -17.3650  -48.5181 H         1 UNK         0.0600 
    172 H172        4.9274  -18.9571  -47.9973 H         1 UNK         0.0600 
    173 H173        3.8359  -17.5841  -47.8659 H         1 UNK         0.0600 
    174 H174        4.8400  -15.6277  -46.7914 H         1 UNK         0.3000 
    175 H175        5.3835  -13.7286  -43.8733 H         1 UNK         0.0600 
    176 H176        7.5946  -13.5649  -45.0156 H         1 UNK         0.0600 
    177 H177        6.7995  -13.5206  -46.5845 H         1 UNK         0.0600 
    178 H178        6.5632  -12.2061  -45.4320 H         1 UNK         0.0600 
    179 H179        4.3658  -13.0989  -46.4845 H         1 UNK         0.3000 
    180 H180        2.1760  -12.4128  -46.5535 H         1 UNK         0.0600 
    181 H181        1.0828  -15.2826  -46.5140 H         1 UNK         0.0600 
    182 H182        2.2157  -14.6331  -47.6890 H         1 UNK         0.0600 
    183 H183        0.5722  -14.0164  -47.6289 H         1 UNK         0.0600 
    184 H184       -0.1324  -13.4956  -45.2511 H         1 UNK         0.3000 
    185 H185       -0.7982  -12.7207  -42.9766 H         1 UNK         0.0600 
    186 H186        0.3342  -10.9099  -41.6939 H         1 UNK         0.0600 
    187 H187       -0.3265   -9.6980  -42.7874 H         1 UNK         0.0600 
    188 H188       -1.4011  -10.6476  -41.7627 H         1 UNK         0.0600 
    189 H189       -1.9915  -10.4462  -44.3942 H         1 UNK         0.3000 
    190 H190       -2.4221  -20.4356  -44.8579 H         1 UNK         0.3000 
    191 H191       -5.1788  -20.4134  -45.4094 H         1 UNK         0.0600 
    192 H192       -4.1575  -19.2157  -43.5023 H         1 UNK         0.0600 
    193 H193       -5.4122  -20.2997  -42.9207 H         1 UNK         0.0600 
    194 H194       -3.7185  -20.7398  -42.7350 H         1 UNK         0.0600 
    195 H195       -3.1577  -23.0365  -44.0270 H         1 UNK         0.3000 
    196 H196       -5.2666  -24.9040  -43.5918 H         1 UNK         0.0600 
    197 H197       -2.2726  -25.3571  -44.0674 H         1 UNK         0.0600 
    198 H198       -3.3953  -26.5513  -43.4267 H         1 UNK         0.0600 
    199 H199       -3.0482  -25.0940  -42.5076 H         1 UNK         0.0600 
    200 H200       -3.1424  -24.3267  -46.4179 H         1 UNK         0.3000 
    201 H201       -4.1939  -26.5130  -47.9877 H         1 UNK         0.0600 
    202 H202       -2.5084  -24.0804  -48.7901 H         1 UNK         0.0600 
    203 H203       -1.8687  -25.6184  -48.2118 H         1 UNK         0.0600 
    204 H204       -2.7294  -25.5473  -49.7365 H         1 UNK         0.0600 
    205 H205       -5.3249  -23.3326  -47.3784 H         1 UNK         0.3000 
    206 H206       -6.9123  -22.0015  -48.1132 H         1 UNK         0.0600 
    207 H207       -8.4780  -23.8979  -48.2431 H         1 UNK         0.0600 
    208 H208       -8.7889  -22.7606  -49.5434 H         1 UNK         0.0600 
    209 H209       -7.9577  -24.2704  -49.8813 H         1 UNK         0.0600 
    210 H210       -4.3685  -21.9689  -49.0844 H         1 UNK         0.3000 
    211 H211       -2.9595  -21.0313  -50.5297 H         1 UNK         0.0600 
    212 H212       -4.0884  -19.1719  -49.3767 H         1 UNK         0.0600 
    213 H213       -3.6444  -18.6719  -50.9926 H         1 UNK         0.0600 
    214 H214       -5.3217  -19.0755  -50.6223 H         1 UNK         0.0600 
    215 H215       -5.3018  -19.5173  -52.5569 H         1 UNK         0.3000 
    216 H216       -4.1316  -20.3912  -54.9686 H         1 UNK         0.0600 
    217 H217       -6.8412  -19.0599  -54.4444 H         1 UNK         0.0600 
    218 H218       -6.0445  -19.1633  -56.0104 H         1 UNK         0.0600 
    219 H219       -5.3087  -18.2293  -54.7182 H         1 UNK         0.0600 
    220 H220       -6.6933  -21.8952  -53.0592 H         1 UNK         0.3000 
    221 H221       -7.8607  -23.4705  -55.1665 H         1 UNK         0.0600 
    222 H222       -7.7940  -23.9872  -52.1534 H         1 UNK         0.0600 
    223 H223       -8.9916  -22.9855  -52.9739 H         1 UNK         0.0600 
    224 H224       -8.9038  -24.7101  -53.3080 H         1 UNK         0.0600 
    225 H225       -4.9767  -23.8341  -53.1759 H         1 UNK         0.3000 
    226 H226       -4.4322  -26.5892  -54.1676 H         1 UNK         0.0600 
    227 H227       -4.1073  -26.2063  -51.7582 H         1 UNK         0.0600 
    228 H228       -2.5461  -26.4506  -52.5129 H         1 UNK         0.0600 
    229 H229       -3.0560  -24.8234  -52.0742 H         1 UNK         0.0600 
    230 H230       -4.1121  -23.5225  -55.3137 H         1 UNK         0.3000 
    231 H231       -2.8575  -22.3578  -56.6920 H         1 UNK         0.0600 
    232 H232       -1.5894  -24.9988  -57.5859 H         1 UNK         0.0600 
    233 H233       -1.6193  -23.4893  -58.4852 H         1 UNK         0.0600 
    234 H234       -3.1174  -24.3533  -58.1843 H         1 UNK         0.0600 
    235 H235       -1.9595  -22.5593  -53.9860 H         1 UNK         0.3000 
    236 H236        0.9259  -22.6946  -53.9027 H         1 UNK         0.0600 
    237 H237       -1.0231  -21.3645  -51.9474 H         1 UNK         0.0600 
    238 H238       -0.5748  -23.0702  -51.9065 H         1 UNK         0.0600 
    239 H239        0.6369  -21.8290  -51.6177 H         1 UNK         0.0600 
    240 H240       -1.4235  -20.1937  -54.6274 H         1 UNK         0.3000 
    241 H241        0.3955  -17.9456  -54.4354 H         1 UNK         0.0600 
    242 H242        1.6125  -17.5776  -57.7464 H         1 UNK         0.3800 
    243 H243        1.6289  -16.9838  -56.1112 H         1 UNK         0.3800 
    244 H244       -2.3883  -18.0988  -55.7036 H         1 UNK         0.0800 
    245 H245       -1.5011  -16.6298  -55.3854 H         1 UNK         0.0800 
    246 H246       -1.9491  -15.2726  -52.9434 H         1 UNK         0.0800 
    247 H247       -0.4486  -16.1591  -53.0468 H         1 UNK         0.0800 
@<TRIPOS>BOND
     1    1    2 1    
     2    1  127 1    
     3    1  128 1    
     4    1  129 1    
     5    2    3 2    
     6    2    4 am   BACKBONE|DICT|INTERRES
     7    4    5 1    
     8    4  130 1    
     9    5    6 1    
    10    5   65 1    
    11    5  131 1    
    12    6    7 1    
    13    6  132 1    
    14    6  133 1    
    15    7    8 1    
    16    8    9 1    
    17    8  134 1    
    18    8  135 1    
    19    9   10 ar   
    20    9   14 ar   
    21   10   11 ar   
    22   10  136 1    
    23   11   12 ar   
    24   11  126 1    
    25   12   13 ar   
    26   12  137 1    
    27   13   14 ar   
    28   13   15 1    
    29   14  138 1    
    30   15   16 1    
    31   15  139 1    
    32   15  140 1    
    33   16   17 1    
    34   17   18 1    
    35   17  141 1    
    36   17  142 1    
    37   18   19 1    
    38   18   67 1    
    39   18  143 1    
    40   19   20 am   BACKBONE|DICT|INTERRES
    41   19  144 1    
    42   20   21 2    
    43   20   22 1    
    44   22   23 1    
    45   22   24 1    
    46   22  145 1    
    47   23  146 1    
    48   23  147 1    
    49   23  148 1    
    50   24   25 am   BACKBONE|DICT|INTERRES
    51   24  149 1    
    52   25   26 2    
    53   25   27 1    
    54   27   28 1    
    55   27   29 1    
    56   27  150 1    
    57   28  151 1    
    58   28  152 1    
    59   28  153 1    
    60   29   30 am   BACKBONE|DICT|INTERRES
    61   29  154 1    
    62   30   31 2    
    63   30   32 1    
    64   32   33 1    
    65   32   34 1    
    66   32  155 1    
    67   33  156 1    
    68   33  157 1    
    69   33  158 1    
    70   34   35 am   BACKBONE|DICT|INTERRES
    71   34  159 1    
    72   35   36 2    
    73   35   37 1    
    74   37   38 1    
    75   37   39 1    
    76   37  160 1    
    77   38  161 1    
    78   38  162 1    
    79   38  163 1    
    80   39   40 am   BACKBONE|DICT|INTERRES
    81   39  164 1    
    82   40   41 2    
    83   40   42 1    
    84   42   43 1    
    85   42   44 1    
    86   42  165 1    
    87   43  166 1    
    88   43  167 1    
    89   43  168 1    
    90   44   45 am   BACKBONE|DICT|INTERRES
    91   44  169 1    
    92   45   46 2    
    93   45   47 1    
    94   47   48 1    
    95   47   49 1    
    96   47  170 1    
    97   48  171 1    
    98   48  172 1    
    99   48  173 1    
   100   49   50 am   BACKBONE|DICT|INTERRES
   101   49  174 1    
   102   50   51 2    
   103   50   52 1    
   104   52   53 1    
   105   52   54 1    
   106   52  175 1    
   107   53  176 1    
   108   53  177 1    
   109   53  178 1    
   110   54   55 am   BACKBONE|DICT|INTERRES
   111   54  179 1    
   112   55   56 2    
   113   55   57 1    
   114   57   58 1    
   115   57   59 1    
   116   57  180 1    
   117   58  181 1    
   118   58  182 1    
   119   58  183 1    
   120   59   60 am   BACKBONE|DICT|INTERRES
   121   59  184 1    
   122   60   61 2    
   123   60   62 1    
   124   62   63 1    
   125   62   64 1    
   126   62  185 1    
   127   63  186 1    
   128   63  187 1    
   129   63  188 1    
   130   64   65 am   BACKBONE|DICT|INTERRES
   131   64  189 1    
   132   65   66 2    
   133   67   68 2    
   134   67   69 am   BACKBONE|DICT|INTERRES
   135   69   70 1    
   136   69  190 1    
   137   70   71 1    
   138   70   72 1    
   139   70  191 1    
   140   71  192 1    
   141   71  193 1    
   142   71  194 1    
   143   72   73 2    
   144   72   74 am   BACKBONE|DICT|INTERRES
   145   74   75 1    
   146   74  195 1    
   147   75   76 1    
   148   75   77 1    
   149   75  196 1    
   150   76  197 1    
   151   76  198 1    
   152   76  199 1    
   153   77   78 2    
   154   77   79 am   BACKBONE|DICT|INTERRES
   155   79   80 1    
   156   79  200 1    
   157   80   81 1    
   158   80   82 1    
   159   80  201 1    
   160   81  202 1    
   161   81  203 1    
   162   81  204 1    
   163   82   83 2    
   164   82   84 am   BACKBONE|DICT|INTERRES
   165   84   85 1    
   166   84  205 1    
   167   85   86 1    
   168   85   87 1    
   169   85  206 1    
   170   86  207 1    
   171   86  208 1    
   172   86  209 1    
   173   87   88 2    
   174   87   89 am   BACKBONE|DICT|INTERRES
   175   89   90 1    
   176   89  210 1    
   177   90   91 1    
   178   90   92 1    
   179   90  211 1    
   180   91  212 1    
   181   91  213 1    
   182   91  214 1    
   183   92   93 2    
   184   92   94 am   BACKBONE|DICT|INTERRES
   185   94   95 1    
   186   94  215 1    
   187   95   96 1    
   188   95   97 1    
   189   95  216 1    
   190   96  217 1    
   191   96  218 1    
   192   96  219 1    
   193   97   98 2    
   194   97   99 am   BACKBONE|DICT|INTERRES
   195   99  100 1    
   196   99  220 1    
   197  100  101 1    
   198  100  102 1    
   199  100  221 1    
   200  101  222 1    
   201  101  223 1    
   202  101  224 1    
   203  102  103 2    
   204  102  104 am   BACKBONE|DICT|INTERRES
   205  104  105 1    
   206  104  225 1    
   207  105  106 1    
   208  105  107 1    
   209  105  226 1    
   210  106  227 1    
   211  106  228 1    
   212  106  229 1    
   213  107  108 2    
   214  107  109 am   BACKBONE|DICT|INTERRES
   215  109  110 1    
   216  109  230 1    
   217  110  111 1    
   218  110  112 1    
   219  110  231 1    
   220  111  232 1    
   221  111  233 1    
   222  111  234 1    
   223  112  113 2    
   224  112  114 am   BACKBONE|DICT|INTERRES
   225  114  115 1    
   226  114  235 1    
   227  115  116 1    
   228  115  117 1    
   229  115  236 1    
   230  116  237 1    
   231  116  238 1    
   232  116  239 1    
   233  117  118 2    
   234  117  119 am   BACKBONE|DICT|INTERRES
   235  119  120 1    
   236  119  240 1    
   237  120  121 1    
   238  120  124 1    
   239  120  241 1    
   240  121  122 am   BACKBONE|DICT|INTERRES
   241  121  123 2    
   242  122  242 1    
   243  122  243 1    
   244  124  125 1    
   245  124  244 1    
   246  124  245 1    
   247  125  126 1    
   248  126  246 1    
   249  126  247 1    
@<TRIPOS>SUBSTRUCTURE
     1 UNK         1 GROUP             0       ****    0 ROOT    
