@<TRIPOS>MOLECULE
3R540
247   249    1
SMALL
USER_CHARGES


@<TRIPOS>ATOM
      1 CA         -5.7148  -16.5994  -47.9730 C.3       0 UNK        -0.1800 
      2 C          -4.5087  -15.7102  -47.7025 C.2       0 UNK         0.5000 
      3 O          -4.6658  -14.5160  -47.4507 O.2       0 UNK        -0.5000 
      4 N          -3.3041  -16.2927  -47.7423 N.am      1 UNK        -0.5000 
      5 CA         -2.0178  -15.5956  -47.5797 C.3       1 UNK         0.1400 
      6 C6         -0.8546  -16.3432  -48.2824 C.3       23 UNK        -0.0398 
      7 S7         -1.1953  -16.6491  -50.0542 S.3       23 UNK        -0.2404 
      8 C8         -1.5812  -18.4285  -50.0520 C.3       23 UNK        -0.0205 
      9 C9         -0.4288  -19.2724  -50.5751 C.ar      23 UNK        -0.0193 
     10 C10        -0.5801  -19.9981  -51.7602 C.ar      23 UNK        -0.1150 
     11 C11         0.4646  -20.7855  -52.2504 C.ar      23 UNK        -0.0193 
     12 C12         1.6733  -20.8359  -51.5530 C.ar      23 UNK        -0.1150 
     13 C13         1.8418  -20.1085  -50.3714 C.ar      23 UNK        -0.0193 
     14 C14         0.7829  -19.3388  -49.8788 C.ar      23 UNK        -0.1150 
     15 C15         3.1846  -20.1314  -49.6587 C.3       23 UNK        -0.0205 
     16 S16         3.3710  -21.5951  -48.5958 S.3       23 UNK        -0.2404 
     17 C17         2.5170  -21.0558  -47.0797 C.3       23 UNK        -0.0398 
     18 CA          1.5547  -22.1302  -46.5212 C.3       11 UNK         0.1400 
     19 N           1.4158  -22.0217  -45.0676 N.am      11 UNK        -0.5000 
     20 C           0.8021  -22.9208  -44.2860 C.2       10 UNK         0.5000 
     21 O           0.3393  -23.9851  -44.6972 O.2       10 UNK        -0.5000 
     22 CA          0.6285  -22.5326  -42.8057 C.3       10 UNK         0.1400 
     23 CB          1.9021  -22.8384  -42.0041 C.3       10 UNK        -0.1800 
     24 N           0.2747  -21.1209  -42.6444 N.am      10 UNK        -0.5000 
     25 C          -0.8649  -20.5732  -43.0898 C.2       9 UNK         0.5000 
     26 O          -1.7727  -21.2209  -43.6089 O.2       9 UNK        -0.5000 
     27 CA         -0.9876  -19.0424  -42.9901 C.3       9 UNK         0.1400 
     28 CB         -1.4139  -18.6235  -41.5749 C.3       9 UNK        -0.1800 
     29 N           0.2538  -18.3614  -43.3671 N.am      9 UNK        -0.5000 
     30 C           0.7784  -18.3751  -44.6013 C.2       8 UNK         0.5000 
     31 O           0.2267  -18.8960  -45.5669 O.2       8 UNK        -0.5000 
     32 CA          2.1681  -17.7497  -44.7962 C.3       8 UNK         0.1400 
     33 CB          2.0530  -16.2843  -45.2142 C.3       8 UNK        -0.1800 
     34 N           2.9918  -17.8533  -43.5966 N.am      8 UNK        -0.5000 
     35 C           3.5807  -18.9865  -43.1941 C.2       7 UNK         0.5000 
     36 O           3.5124  -20.0490  -43.8132 O.2       7 UNK        -0.5000 
     37 CA          4.3200  -18.9281  -41.8455 C.3       7 UNK         0.1400 
     38 CB          5.7078  -18.2909  -42.0100 C.3       7 UNK        -0.1800 
     39 N           3.5616  -18.1920  -40.8319 N.am      7 UNK        -0.5000 
     40 C           2.3786  -18.5906  -40.3455 C.2       6 UNK         0.5000 
     41 O           1.8287  -19.6424  -40.6714 O.2       6 UNK        -0.5000 
     42 CA          1.6715  -17.6473  -39.3563 C.3       6 UNK         0.1400 
     43 CB          2.0796  -17.9852  -37.9147 C.3       6 UNK        -0.1800 
     44 N           1.8959  -16.2188  -39.5958 N.am      6 UNK        -0.5000 
     45 C           1.5963  -15.5436  -40.7153 C.2       5 UNK         0.5000 
     46 O           1.1857  -16.0809  -41.7466 O.2       5 UNK        -0.5000 
     47 CA          1.7475  -14.0108  -40.6208 C.3       5 UNK         0.1400 
     48 CB          3.1118  -13.5829  -40.0342 C.3       5 UNK        -0.1800 
     49 N           1.4624  -13.2991  -41.8710 N.am      5 UNK        -0.5000 
     50 C           2.1987  -13.2452  -42.9902 C.2       4 UNK         0.5000 
     51 O           3.2590  -13.8542  -43.1421 O.2       4 UNK        -0.5000 
     52 CA          1.6670  -12.3245  -44.1143 C.3       4 UNK         0.1400 
     53 CB          2.2512  -12.6506  -45.5004 C.3       4 UNK        -0.1800 
     54 N           0.2052  -12.3426  -44.1998 N.am      4 UNK        -0.5000 
     55 C          -0.6237  -11.4902  -43.5785 C.2       3 UNK         0.5000 
     56 O          -0.2352  -10.5474  -42.8888 O.2       3 UNK        -0.5000 
     57 CA         -2.1403  -11.7527  -43.7078 C.3       3 UNK         0.1400 
     58 CB         -2.7425  -10.8854  -44.8234 C.3       3 UNK        -0.1800 
     59 N          -2.4673  -13.1554  -43.9702 N.am      3 UNK        -0.5000 
     60 C          -2.1901  -14.1796  -43.1517 C.2       2 UNK         0.5000 
     61 O          -1.7589  -14.0327  -42.0076 O.2       2 UNK        -0.5000 
     62 CA         -2.3934  -15.6061  -43.7047 C.3       2 UNK         0.1400 
     63 CB         -3.6178  -16.2622  -43.0470 C.3       2 UNK        -0.1800 
     64 N          -2.5343  -15.7213  -45.1624 N.am      2 UNK        -0.5000 
     65 C          -1.6733  -15.2976  -46.1011 C.2       1 UNK         0.5000 
     66 O          -0.6474  -14.6712  -45.8385 O.2       1 UNK        -0.5000 
     67 C           0.1814  -22.1150  -47.2278 C.2       11 UNK         0.5000 
     68 O          -0.0719  -22.9673  -48.0776 O.2       11 UNK        -0.5000 
     69 N          -0.7041  -21.1952  -46.8142 N.am      12 UNK        -0.5000 
     70 CA         -2.0885  -21.0915  -47.2736 C.3       12 UNK         0.1400 
     71 CB         -2.7644  -19.8535  -46.6582 C.3       12 UNK        -0.1800 
     72 C          -2.9087  -22.3527  -46.9692 C.2       12 UNK         0.5000 
     73 O          -3.6295  -22.8197  -47.8480 O.2       12 UNK        -0.5000 
     74 N          -2.7610  -22.9002  -45.7554 N.am      13 UNK        -0.5000 
     75 CA         -3.3942  -24.1484  -45.3295 C.3       13 UNK         0.1400 
     76 CB         -3.1334  -24.3805  -43.8338 C.3       13 UNK        -0.1800 
     77 C          -2.9402  -25.3575  -46.1679 C.2       13 UNK         0.5000 
     78 O          -3.7837  -26.1474  -46.5931 O.2       13 UNK        -0.5000 
     79 N          -1.6297  -25.4504  -46.4375 N.am      14 UNK        -0.5000 
     80 CA         -1.0303  -26.4668  -47.3064 C.3       14 UNK         0.1400 
     81 CB          0.5002  -26.3992  -47.1919 C.3       14 UNK        -0.1800 
     82 C          -1.4781  -26.3422  -48.7770 C.2       14 UNK         0.5000 
     83 O          -1.7087  -27.3592  -49.4319 O.2       14 UNK        -0.5000 
     84 N          -1.6251  -25.1004  -49.2563 N.am      15 UNK        -0.5000 
     85 CA         -2.1130  -24.7562  -50.5934 C.3       15 UNK         0.1400 
     86 CB         -1.6534  -23.3286  -50.9279 C.3       15 UNK        -0.1800 
     87 C          -3.6434  -24.8711  -50.7548 C.2       15 UNK         0.5000 
     88 O          -4.1371  -24.6823  -51.8668 O.2       15 UNK        -0.5000 
     89 N          -4.3676  -25.1362  -49.6571 N.am      16 UNK        -0.5000 
     90 CA         -5.8299  -25.1924  -49.5465 C.3       16 UNK         0.1400 
     91 CB         -6.3990  -26.3786  -50.3526 C.3       16 UNK        -0.1800 
     92 C          -6.5116  -23.8454  -49.8789 C.2       16 UNK         0.5000 
     93 O          -7.5949  -23.8258  -50.4660 O.2       16 UNK        -0.5000 
     94 N          -5.8533  -22.7458  -49.4824 N.am      17 UNK        -0.5000 
     95 CA         -6.2575  -21.3447  -49.6247 C.3       17 UNK         0.1400 
     96 CB         -7.4581  -21.0351  -48.7073 C.3       17 UNK        -0.1800 
     97 C          -6.4805  -20.9094  -51.0886 C.2       17 UNK         0.5000 
     98 O          -7.4176  -20.1603  -51.3696 O.2       17 UNK        -0.5000 
     99 N          -5.6126  -21.3889  -51.9942 N.am      18 UNK        -0.5000 
    100 CA        -5.6445  -21.0936  -53.4299 C.3       18 UNK         0.1400 
    101 CB        -4.5583  -21.9118  -54.1480 C.3       18 UNK        -0.1800 
    102 C         -5.4976  -19.5911  -53.7371 C.2       18 UNK         0.5000 
    103 O         -6.3507  -19.0274  -54.4228 O.2       18 UNK        -0.5000 
    104 N         -4.4318  -18.9837  -53.1910 N.am      19 UNK        -0.5000 
    105 CA        -4.0675  -17.5561  -53.1631 C.3       19 UNK         0.1400 
    106 CB        -5.0712  -16.7640  -52.3057 C.3       19 UNK        -0.1800 
    107 C         -3.8425  -16.8636  -54.5259 C.2       19 UNK         0.5000 
    108 O         -2.8953  -16.0870  -54.6556 O.2       19 UNK        -0.5000 
    109 N         -4.6944  -17.1433  -55.5167 N.am      20 UNK        -0.5000 
    110 CA        -4.6694  -16.5971  -56.8725 C.3       20 UNK         0.1400 
    111 CB        -6.0612  -16.7846  -57.5016 C.3       20 UNK        -0.1800 
    112 C         -3.5533  -17.2466  -57.7116 C.2       20 UNK         0.5000 
    113 O         -3.8242  -18.1237  -58.5354 O.2       20 UNK        -0.5000 
    114 N         -2.3047  -16.8450  -57.4317 N.am      21 UNK        -0.5000 
    115 CA        -1.0546  -17.3092  -58.0520 C.3       21 UNK         0.1400 
    116 CB        -0.9702  -16.8232  -59.5138 C.3       21 UNK        -0.1800 
    117 C         -0.8275  -18.8324  -57.9193 C.2       21 UNK         0.5000 
    118 O         -0.1631  -19.4344  -58.7646 O.2       21 UNK        -0.5000 
    119 N         -1.4076  -19.4221  -56.8651 N.am      22 UNK        -0.5000 
    120 CA        -1.4600  -20.8662  -56.5833 C.3       22 UNK         0.1400 
    121 C         -2.3122  -21.6899  -57.5987 C.2       22 UNK         0.5000 
    122 N         -3.1779  -21.0727  -58.3960 N.am      22 UNK        -0.7600 
    123 O         -2.2169  -22.9132  -57.6446 O.2       22 UNK        -0.5000 
    124 C124       -0.0627  -21.4937  -56.3095 C.3       23 UNK        -0.0398 
    125 S125        0.8326  -20.6259  -54.9760 S.3       23 UNK        -0.2404 
    126 C126        0.2824  -21.5806  -53.5319 C.3       23 UNK        -0.0205 
    127 H127       -5.4237  -17.6308  -48.1740 H         1 UNK         0.0600 
    128 H128       -6.3843  -16.5963  -47.1129 H         1 UNK         0.0600 
    129 H129       -6.2663  -16.2289  -48.8371 H         1 UNK         0.0600 
    130 H130       -3.2421  -17.2747  -47.9599 H         1 UNK         0.3000 
    131 H131       -2.1068  -14.6209  -48.0646 H         1 UNK         0.0600 
    132 H132        0.0589  -15.7482  -48.2308 H         1 UNK         0.0800 
    133 H133       -0.6261  -17.2796  -47.7714 H         1 UNK         0.0800 
    134 H134       -2.4770  -18.5885  -50.6514 H         1 UNK         0.0800 
    135 H135       -1.8389  -18.7576  -49.0503 H         1 UNK         0.0800 
    136 H136       -1.5107  -19.9531  -52.3063 H         1 UNK         0.1150 
    137 H137        2.4880  -21.4346  -51.9356 H         1 UNK         0.1150 
    138 H138        0.9066  -18.7748  -48.9657 H         1 UNK         0.1150 
    139 H139        3.9839  -20.1391  -50.4013 H         1 UNK         0.0800 
    140 H140        3.3302  -19.2215  -49.0743 H         1 UNK         0.0800 
    141 H141        3.3041  -20.8458  -46.3547 H         1 UNK         0.0800 
    142 H142        2.0038  -20.1070  -47.2388 H         1 UNK         0.0800 
    143 H143        1.9982  -23.1114  -46.7053 H         1 UNK         0.0600 
    144 H144        1.8043  -21.1940  -44.6330 H         1 UNK         0.3000 
    145 H145       -0.1858  -23.1337  -42.3961 H         1 UNK         0.0600 
    146 H146        1.7597  -22.6258  -40.9444 H         1 UNK         0.0600 
    147 H147        2.1759  -23.8904  -42.0922 H         1 UNK         0.0600 
    148 H148        2.7499  -22.2468  -42.3508 H         1 UNK         0.0600 
    149 H149        0.9466  -20.5314  -42.1611 H         1 UNK         0.3000 
    150 H150       -1.7614  -18.7221  -43.6900 H         1 UNK         0.0600 
    151 H151       -2.4421  -18.9293  -41.3787 H         1 UNK         0.0600 
    152 H152       -1.3617  -17.5437  -41.4375 H         1 UNK         0.0600 
    153 H153       -0.7913  -19.0877  -40.8113 H         1 UNK         0.0600 
    154 H154        0.7362  -17.8374  -42.6448 H         1 UNK         0.3000 
    155 H155        2.6676  -18.2869  -45.6049 H         1 UNK         0.0600 
    156 H156        3.0349  -15.8223  -45.3183 H         1 UNK         0.0600 
    157 H157        1.5483  -16.1960  -46.1762 H         1 UNK         0.0600 
    158 H158        1.4827  -15.7070  -44.4863 H         1 UNK         0.0600 
    159 H159        3.0358  -17.0341  -43.0055 H         1 UNK         0.3000 
    160 H160        4.4529  -19.9534  -41.4935 H         1 UNK         0.0600 
    161 H161        6.2662  -18.3161  -41.0740 H         1 UNK         0.0600 
    162 H162        5.6400  -17.2511  -42.3327 H         1 UNK         0.0600 
    163 H163        6.2975  -18.8282  -42.7539 H         1 UNK         0.0600 
    164 H164        3.9423  -17.3117  -40.5174 H         1 UNK         0.3000 
    165 H165        0.5990  -17.8213  -39.4492 H         1 UNK         0.0600 
    166 H166        1.5046  -17.4033  -37.1941 H         1 UNK         0.0600 
    167 H167        1.9010  -19.0386  -37.6943 H         1 UNK         0.0600 
    168 H168        3.1379  -17.7880  -37.7391 H         1 UNK         0.0600 
    169 H169        2.2312  -15.6927  -38.8020 H         1 UNK         0.3000 
    170 H170        0.9746  -13.6794  -39.9260 H         1 UNK         0.0600 
    171 H171        3.2196  -13.9029  -38.9976 H         1 UNK         0.0600 
    172 H172        3.9467  -14.0063  -40.5934 H         1 UNK         0.0600 
    173 H173        3.2210  -12.4983  -40.0420 H         1 UNK         0.0600 
    174 H174        0.5764  -12.8137  -41.8862 H         1 UNK         0.3000 
    175 H175        2.0025  -11.3173  -43.8595 H         1 UNK         0.0600 
    176 H176        1.9179  -13.6218  -45.8616 H         1 UNK         0.0600 
    177 H177        1.9458  -11.9056  -46.2351 H         1 UNK         0.0600 
    178 H178        3.3416  -12.6569  -45.4839 H         1 UNK         0.0600 
    179 H179       -0.1929  -13.1155  -44.7268 H         1 UNK         0.3000 
    180 H180       -2.6061  -11.4708  -42.7614 H         1 UNK         0.0600 
    181 H181       -2.3275  -11.1412  -45.7992 H         1 UNK         0.0600 
    182 H182       -2.5417   -9.8277  -44.6477 H         1 UNK         0.0600 
    183 H183       -3.8248  -11.0052  -44.8763 H         1 UNK         0.0600 
    184 H184       -2.8231  -13.3715  -44.8898 H         1 UNK         0.3000 
    185 H185       -1.5014  -16.1680  -43.4269 H         1 UNK         0.0600 
    186 H186       -3.5350  -16.2482  -41.9594 H         1 UNK         0.0600 
    187 H187       -4.5392  -15.7420  -43.3115 H         1 UNK         0.0600 
    188 H188       -3.7238  -17.3039  -43.3492 H         1 UNK         0.0600 
    189 H189       -3.3650  -16.1929  -45.4874 H         1 UNK         0.3000 
    190 H190       -0.3976  -20.4859  -46.1521 H         1 UNK         0.3000 
    191 H191       -2.0595  -20.9709  -48.3574 H         1 UNK         0.0600 
    192 H192       -2.9399  -19.9750  -45.5900 H         1 UNK         0.0600 
    193 H193       -3.7330  -19.6702  -47.1247 H         1 UNK         0.0600 
    194 H194       -2.1606  -18.9569  -46.7853 H         1 UNK         0.0600 
    195 H195       -2.1939  -22.4138  -45.0664 H         1 UNK         0.3000 
    196 H196       -4.4711  -24.0348  -45.4700 H         1 UNK         0.0600 
    197 H197       -3.6311  -25.2870  -43.4874 H         1 UNK         0.0600 
    198 H198       -3.5118  -23.5517  -43.2351 H         1 UNK         0.0600 
    199 H199       -2.0703  -24.4879  -43.6196 H         1 UNK         0.0600 
    200 H200       -0.9966  -24.7736  -46.0225 H         1 UNK         0.3000 
    201 H201       -1.3531  -27.4453  -46.9450 H         1 UNK         0.0600 
    202 H202        0.8879  -25.4353  -47.5221 H         1 UNK         0.0600 
    203 H203        0.8253  -26.5539  -46.1629 H         1 UNK         0.0600 
    204 H204        0.9720  -27.1698  -47.8026 H         1 UNK         0.0600 
    205 H205       -1.3358  -24.3206  -48.6718 H         1 UNK         0.3000 
    206 H206       -1.6590  -25.4378  -51.3154 H         1 UNK         0.0600 
    207 H207       -2.0709  -22.5984  -50.2345 H         1 UNK         0.0600 
    208 H208       -0.5673  -23.2445  -50.8850 H         1 UNK         0.0600 
    209 H209       -1.9632  -23.0410  -51.9325 H         1 UNK         0.0600 
    210 H210       -3.8651  -25.2353  -48.7845 H         1 UNK         0.3000 
    211 H211       -6.0415  -25.3821  -48.4932 H         1 UNK         0.0600 
    212 H212       -6.2859  -26.2317  -51.4270 H         1 UNK         0.0600 
    213 H213       -7.4626  -26.5123  -50.1522 H         1 UNK         0.0600 
    214 H214       -5.9002  -27.3105  -50.0865 H         1 UNK         0.0600 
    215 H215       -4.9781  -22.8852  -48.9766 H         1 UNK         0.3000 
    216 H216       -5.4145  -20.7531  -49.2646 H         1 UNK         0.0600 
    217 H217       -8.3575  -21.5618  -49.0277 H         1 UNK         0.0600 
    218 H218       -7.6853  -19.9684  -48.7045 H         1 UNK         0.0600 
    219 H219       -7.2497  -21.3230  -47.6768 H         1 UNK         0.0600 
    220 H220       -4.9149  -22.0494  -51.6830 H         1 UNK         0.3000 
    221 H221       -6.6162  -21.4146  -53.8108 H         1 UNK         0.0600 
    222 H222       -3.5626  -21.7027  -53.7561 H         1 UNK         0.0600 
    223 H223       -4.7388  -22.9815  -54.0398 H         1 UNK         0.0600 
    224 H224       -4.5469  -21.6941  -55.2169 H         1 UNK         0.0600 
    225 H225       -3.8117  -19.5797  -52.6646 H         1 UNK         0.3000 
    226 H226       -3.1048  -17.5118  -52.6526 H         1 UNK         0.0600 
    227 H227       -5.1353  -17.1728  -51.2972 H         1 UNK         0.0600 
    228 H228       -4.7691  -15.7200  -52.2133 H         1 UNK         0.0600 
    229 H229       -6.0725  -16.7791  -52.7373 H         1 UNK         0.0600 
    230 H230       -5.4350  -17.8110  -55.3074 H         1 UNK         0.3000 
    231 H231       -4.4686  -15.5251  -56.8191 H         1 UNK         0.0600 
    232 H232       -6.8240  -16.2522  -56.9333 H         1 UNK         0.0600 
    233 H233       -6.3484  -17.8363  -57.5407 H         1 UNK         0.0600 
    234 H234       -6.0854  -16.3973  -58.5209 H         1 UNK         0.0600 
    235 H235       -2.1958  -16.1925  -56.6625 H         1 UNK         0.3000 
    236 H236       -0.2435  -16.8351  -57.4977 H         1 UNK         0.0600 
    237 H237        0.0087  -17.0383  -59.9438 H         1 UNK         0.0600 
    238 H238       -1.7177  -17.3065  -60.1438 H         1 UNK         0.0600 
    239 H239       -1.1212  -15.7458  -59.5804 H         1 UNK         0.0600 
    240 H240       -1.9281  -18.8333  -56.2331 H         1 UNK         0.3000 
    241 H241       -2.0229  -20.9444  -55.6535 H         1 UNK         0.0600 
    242 H242       -3.7282  -21.6192  -59.0391 H         1 UNK         0.3800 
    243 H243       -3.2851  -20.0637  -58.3835 H         1 UNK         0.3800 
    244 H244        0.5514  -21.4707  -57.2103 H         1 UNK         0.0800 
    245 H245       -0.1547  -22.5469  -56.0387 H         1 UNK         0.0800 
    246 H246       -0.7675  -21.8508  -53.6497 H         1 UNK         0.0800 
    247 H247        0.8383  -22.5180  -53.4799 H         1 UNK         0.0800 
@<TRIPOS>BOND
     1    1    2 1    
     2    1  127 1    
     3    1  128 1    
     4    1  129 1    
     5    2    3 2    
     6    2    4 am   BACKBONE|DICT|INTERRES
     7    4    5 1    
     8    4  130 1    
     9    5    6 1    
    10    5   65 1    
    11    5  131 1    
    12    6    7 1    
    13    6  132 1    
    14    6  133 1    
    15    7    8 1    
    16    8    9 1    
    17    8  134 1    
    18    8  135 1    
    19    9   10 ar   
    20    9   14 ar   
    21   10   11 ar   
    22   10  136 1    
    23   11   12 ar   
    24   11  126 1    
    25   12   13 ar   
    26   12  137 1    
    27   13   14 ar   
    28   13   15 1    
    29   14  138 1    
    30   15   16 1    
    31   15  139 1    
    32   15  140 1    
    33   16   17 1    
    34   17   18 1    
    35   17  141 1    
    36   17  142 1    
    37   18   19 1    
    38   18   67 1    
    39   18  143 1    
    40   19   20 am   BACKBONE|DICT|INTERRES
    41   19  144 1    
    42   20   21 2    
    43   20   22 1    
    44   22   23 1    
    45   22   24 1    
    46   22  145 1    
    47   23  146 1    
    48   23  147 1    
    49   23  148 1    
    50   24   25 am   BACKBONE|DICT|INTERRES
    51   24  149 1    
    52   25   26 2    
    53   25   27 1    
    54   27   28 1    
    55   27   29 1    
    56   27  150 1    
    57   28  151 1    
    58   28  152 1    
    59   28  153 1    
    60   29   30 am   BACKBONE|DICT|INTERRES
    61   29  154 1    
    62   30   31 2    
    63   30   32 1    
    64   32   33 1    
    65   32   34 1    
    66   32  155 1    
    67   33  156 1    
    68   33  157 1    
    69   33  158 1    
    70   34   35 am   BACKBONE|DICT|INTERRES
    71   34  159 1    
    72   35   36 2    
    73   35   37 1    
    74   37   38 1    
    75   37   39 1    
    76   37  160 1    
    77   38  161 1    
    78   38  162 1    
    79   38  163 1    
    80   39   40 am   BACKBONE|DICT|INTERRES
    81   39  164 1    
    82   40   41 2    
    83   40   42 1    
    84   42   43 1    
    85   42   44 1    
    86   42  165 1    
    87   43  166 1    
    88   43  167 1    
    89   43  168 1    
    90   44   45 am   BACKBONE|DICT|INTERRES
    91   44  169 1    
    92   45   46 2    
    93   45   47 1    
    94   47   48 1    
    95   47   49 1    
    96   47  170 1    
    97   48  171 1    
    98   48  172 1    
    99   48  173 1    
   100   49   50 am   BACKBONE|DICT|INTERRES
   101   49  174 1    
   102   50   51 2    
   103   50   52 1    
   104   52   53 1    
   105   52   54 1    
   106   52  175 1    
   107   53  176 1    
   108   53  177 1    
   109   53  178 1    
   110   54   55 am   BACKBONE|DICT|INTERRES
   111   54  179 1    
   112   55   56 2    
   113   55   57 1    
   114   57   58 1    
   115   57   59 1    
   116   57  180 1    
   117   58  181 1    
   118   58  182 1    
   119   58  183 1    
   120   59   60 am   BACKBONE|DICT|INTERRES
   121   59  184 1    
   122   60   61 2    
   123   60   62 1    
   124   62   63 1    
   125   62   64 1    
   126   62  185 1    
   127   63  186 1    
   128   63  187 1    
   129   63  188 1    
   130   64   65 am   BACKBONE|DICT|INTERRES
   131   64  189 1    
   132   65   66 2    
   133   67   68 2    
   134   67   69 am   BACKBONE|DICT|INTERRES
   135   69   70 1    
   136   69  190 1    
   137   70   71 1    
   138   70   72 1    
   139   70  191 1    
   140   71  192 1    
   141   71  193 1    
   142   71  194 1    
   143   72   73 2    
   144   72   74 am   BACKBONE|DICT|INTERRES
   145   74   75 1    
   146   74  195 1    
   147   75   76 1    
   148   75   77 1    
   149   75  196 1    
   150   76  197 1    
   151   76  198 1    
   152   76  199 1    
   153   77   78 2    
   154   77   79 am   BACKBONE|DICT|INTERRES
   155   79   80 1    
   156   79  200 1    
   157   80   81 1    
   158   80   82 1    
   159   80  201 1    
   160   81  202 1    
   161   81  203 1    
   162   81  204 1    
   163   82   83 2    
   164   82   84 am   BACKBONE|DICT|INTERRES
   165   84   85 1    
   166   84  205 1    
   167   85   86 1    
   168   85   87 1    
   169   85  206 1    
   170   86  207 1    
   171   86  208 1    
   172   86  209 1    
   173   87   88 2    
   174   87   89 am   BACKBONE|DICT|INTERRES
   175   89   90 1    
   176   89  210 1    
   177   90   91 1    
   178   90   92 1    
   179   90  211 1    
   180   91  212 1    
   181   91  213 1    
   182   91  214 1    
   183   92   93 2    
   184   92   94 am   BACKBONE|DICT|INTERRES
   185   94   95 1    
   186   94  215 1    
   187   95   96 1    
   188   95   97 1    
   189   95  216 1    
   190   96  217 1    
   191   96  218 1    
   192   96  219 1    
   193   97   98 2    
   194   97   99 am   BACKBONE|DICT|INTERRES
   195   99  100 1    
   196   99  220 1    
   197  100  101 1    
   198  100  102 1    
   199  100  221 1    
   200  101  222 1    
   201  101  223 1    
   202  101  224 1    
   203  102  103 2    
   204  102  104 am   BACKBONE|DICT|INTERRES
   205  104  105 1    
   206  104  225 1    
   207  105  106 1    
   208  105  107 1    
   209  105  226 1    
   210  106  227 1    
   211  106  228 1    
   212  106  229 1    
   213  107  108 2    
   214  107  109 am   BACKBONE|DICT|INTERRES
   215  109  110 1    
   216  109  230 1    
   217  110  111 1    
   218  110  112 1    
   219  110  231 1    
   220  111  232 1    
   221  111  233 1    
   222  111  234 1    
   223  112  113 2    
   224  112  114 am   BACKBONE|DICT|INTERRES
   225  114  115 1    
   226  114  235 1    
   227  115  116 1    
   228  115  117 1    
   229  115  236 1    
   230  116  237 1    
   231  116  238 1    
   232  116  239 1    
   233  117  118 2    
   234  117  119 am   BACKBONE|DICT|INTERRES
   235  119  120 1    
   236  119  240 1    
   237  120  121 1    
   238  120  124 1    
   239  120  241 1    
   240  121  122 am   BACKBONE|DICT|INTERRES
   241  121  123 2    
   242  122  242 1    
   243  122  243 1    
   244  124  125 1    
   245  124  244 1    
   246  124  245 1    
   247  125  126 1    
   248  126  246 1    
   249  126  247 1    
@<TRIPOS>SUBSTRUCTURE
     1 UNK         1 GROUP             0       ****    0 ROOT    
