@<TRIPOS>MOLECULE
3R540
247   249    1
SMALL
USER_CHARGES


@<TRIPOS>ATOM
      1 CA         -1.5311  -15.2976  -52.6035 C.3       0 UNK        -0.1800 
      2 C          -0.5501  -15.6846  -51.5072 C.2       0 UNK         0.5000 
      3 O           0.5985  -16.0139  -51.8021 O.2       0 UNK        -0.5000 
      4 N          -0.9950  -15.6498  -50.2444 N.am      1 UNK        -0.5000 
      5 CA         -0.2207  -16.0052  -49.0470 C.3       1 UNK         0.1400 
      6 C6         -1.1430  -16.4204  -47.8696 C.3       23 UNK        -0.0398 
      7 S7         -2.1486  -17.8930  -48.2473 S.3       23 UNK        -0.2404 
      8 C8         -3.6526  -17.5436  -47.2886 C.3       23 UNK        -0.0205 
      9 C9         -4.6283  -18.7054  -47.3715 C.ar      23 UNK        -0.0193 
     10 C10        -5.7522  -18.6315  -48.1998 C.ar      23 UNK        -0.1150 
     11 C11        -6.6223  -19.7211  -48.3168 C.ar      23 UNK        -0.0193 
     12 C12        -6.3530  -20.8903  -47.5986 C.ar      23 UNK        -0.1150 
     13 C13        -5.2313  -20.9767  -46.7685 C.ar      23 UNK        -0.0193 
     14 C14        -4.3912  -19.8689  -46.6348 C.ar      23 UNK        -0.1150 
     15 C15        -4.9205  -22.2737  -46.0370 C.3       23 UNK        -0.0205 
     16 S16        -3.6305  -23.2371  -46.9019 S.3       23 UNK        -0.2404 
     17 C17        -2.1487  -22.8750  -45.9033 C.3       23 UNK        -0.0398 
     18 CA         -1.2655  -21.7353  -46.4815 C.3       11 UNK         0.1400 
     19 N          -0.6720  -20.8966  -45.4301 N.am      11 UNK        -0.5000 
     20 C           0.1010  -21.2805  -44.4045 C.2       10 UNK         0.5000 
     21 O           0.4601  -22.4443  -44.2234 O.2       10 UNK        -0.5000 
     22 CA          0.5798  -20.1890  -43.4328 C.3       10 UNK         0.1400 
     23 CB          1.6769  -19.3228  -44.0737 C.3       10 UNK        -0.1800 
     24 N          -0.5023  -19.3809  -42.8641 N.am      10 UNK        -0.5000 
     25 C          -1.3603  -18.5436  -43.4692 C.2       9 UNK         0.5000 
     26 O          -1.3024  -18.2569  -44.6663 O.2       9 UNK        -0.5000 
     27 CA         -2.4934  -17.9665  -42.5852 C.3       9 UNK         0.1400 
     28 CB         -3.7108  -17.4838  -43.3967 C.3       9 UNK        -0.1800 
     29 N          -2.9165  -18.8879  -41.5239 N.am      9 UNK        -0.5000 
     30 C          -3.3517  -20.1508  -41.6708 C.2       8 UNK         0.5000 
     31 O          -3.6099  -20.6626  -42.7612 O.2       8 UNK        -0.5000 
     32 CA         -3.4775  -20.9965  -40.3815 C.3       8 UNK         0.1400 
     33 CB         -3.1606  -22.4858  -40.6327 C.3       8 UNK        -0.1800 
     34 N          -2.6812  -20.4901  -39.2523 N.am      8 UNK        -0.5000 
     35 C          -1.3533  -20.2991  -39.2085 C.2       7 UNK         0.5000 
     36 O          -0.5858  -20.5434  -40.1415 O.2       7 UNK        -0.5000 
     37 CA         -0.8054  -19.6477  -37.9252 C.3       7 UNK         0.1400 
     38 CB          0.4356  -20.3930  -37.4075 C.3       7 UNK        -0.1800 
     39 N          -0.4598  -18.2400  -38.1333 N.am      7 UNK        -0.5000 
     40 C          -1.2946  -17.2679  -38.5308 C.2       6 UNK         0.5000 
     41 O          -2.4874  -17.4455  -38.7820 O.2       6 UNK        -0.5000 
     42 CA         -0.6928  -15.8571  -38.6867 C.3       6 UNK         0.1400 
     43 CB         -0.8242  -15.0692  -37.3745 C.3       6 UNK        -0.1800 
     44 N           0.7116  -15.8628  -39.1076 N.am      6 UNK        -0.5000 
     45 C           1.1284  -16.2739  -40.3113 C.2       5 UNK         0.5000 
     46 O           0.3680  -16.7019  -41.1822 O.2       5 UNK        -0.5000 
     47 CA          2.6469  -16.2294  -40.5686 C.3       5 UNK         0.1400 
     48 CB          3.3327  -17.4373  -39.9098 C.3       5 UNK        -0.1800 
     49 N           2.9230  -16.2637  -42.0031 N.am      5 UNK        -0.5000 
     50 C           2.7801  -15.2243  -42.8330 C.2       4 UNK         0.5000 
     51 O           2.6051  -14.0601  -42.4633 O.2       4 UNK        -0.5000 
     52 CA          2.7567  -15.5754  -44.3304 C.3       4 UNK         0.1400 
     53 CB          1.3192  -15.8755  -44.7730 C.3       4 UNK        -0.1800 
     54 N           3.2848  -14.5144  -45.1813 N.am      4 UNK        -0.5000 
     55 C           4.5732  -14.1619  -45.2653 C.2       3 UNK         0.5000 
     56 O           5.4665  -14.6955  -44.6043 O.2       3 UNK        -0.5000 
     57 CA          4.9152  -13.0310  -46.2638 C.3       3 UNK         0.1400 
     58 CB          6.3726  -13.1013  -46.7669 C.3       3 UNK        -0.1800 
     59 N           3.9822  -12.9307  -47.3973 N.am      3 UNK        -0.5000 
     60 C           3.7192  -13.8723  -48.3162 C.2       2 UNK         0.5000 
     61 O           4.2469  -14.9860  -48.3426 O.2       2 UNK        -0.5000 
     62 CA          2.6914  -13.4960  -49.3987 C.3       2 UNK         0.1400 
     63 CB          3.3845  -13.2526  -50.7479 C.3       2 UNK        -0.1800 
     64 N           1.6775  -14.5351  -49.5648 N.am      2 UNK        -0.5000 
     65 C           0.7501  -14.8643  -48.6580 C.2       1 UNK         0.5000 
     66 O           0.6291  -14.2813  -47.5791 O.2       1 UNK        -0.5000 
     67 C          -0.2160  -22.2435  -47.4945 C.2       11 UNK         0.5000 
     68 O          -0.3870  -22.0710  -48.7042 O.2       11 UNK        -0.5000 
     69 N           0.8948  -22.7904  -46.9822 N.am      12 UNK        -0.5000 
     70 CA          2.0935  -23.1965  -47.7186 C.3       12 UNK         0.1400 
     71 CB          3.0712  -23.8707  -46.7461 C.3       12 UNK        -0.1800 
     72 C           2.7816  -22.0284  -48.4512 C.2       12 UNK         0.5000 
     73 O           3.4102  -22.2526  -49.4849 O.2       12 UNK        -0.5000 
     74 N           2.5885  -20.7991  -47.9481 N.am      13 UNK        -0.5000 
     75 CA          3.0040  -19.5403  -48.5755 C.3       13 UNK         0.1400 
     76 CB          2.6462  -18.3761  -47.6373 C.3       13 UNK        -0.1800 
     77 C           2.3816  -19.3113  -49.9689 C.2       13 UNK         0.5000 
     78 O           2.9998  -18.6541  -50.8053 O.2       13 UNK        -0.5000 
     79 N           1.1915  -19.8837  -50.1943 N.am      14 UNK        -0.5000 
     80 CA          0.4733  -19.8793  -51.4660 C.3       14 UNK         0.1400 
     81 CB         -0.9732  -19.4398  -51.2016 C.3       14 UNK        -0.1800 
     82 C           0.5104  -21.2585  -52.1519 C.2       14 UNK         0.5000 
     83 O          -0.3280  -21.5175  -53.0163 O.2       14 UNK        -0.5000 
     84 N           1.4447  -22.1324  -51.7462 N.am      15 UNK        -0.5000 
     85 CA          1.6076  -23.5157  -52.2073 C.3       15 UNK         0.1400 
     86 CB          2.0487  -23.5526  -53.6859 C.3       15 UNK        -0.1800 
     87 C           0.3593  -24.3766  -51.9186 C.2       15 UNK         0.5000 
     88 O          -0.1297  -25.0792  -52.8036 O.2       15 UNK        -0.5000 
     89 N          -0.1397  -24.2710  -50.6775 N.am      16 UNK        -0.5000 
     90 CA         -1.3654  -24.8824  -50.1531 C.3       16 UNK         0.1400 
     91 CB         -1.3137  -26.4235  -50.2192 C.3       16 UNK        -0.1800 
     92 C          -2.6186  -24.2701  -50.8062 C.2       16 UNK         0.5000 
     93 O          -3.4896  -24.9960  -51.2882 O.2       16 UNK        -0.5000 
     94 N          -2.6609  -22.9281  -50.8110 N.am      17 UNK        -0.5000 
     95 CA         -3.7471  -22.0720  -51.3090 C.3       17 UNK         0.1400 
     96 CB         -5.0284  -22.3088  -50.4928 C.3       17 UNK        -0.1800 
     97 C          -3.9974  -22.1564  -52.8313 C.2       17 UNK         0.5000 
     98 O          -5.0568  -21.7334  -53.3042 O.2       17 UNK        -0.5000 
     99 N          -3.0158  -22.6744  -53.5796 N.am      18 UNK        -0.5000 
    100 CA        -3.0540  -22.8160  -55.0321 C.3       18 UNK         0.1400 
    101 CB        -2.0044  -23.8475  -55.4705 C.3       18 UNK        -0.1800 
    102 C         -2.8286  -21.4703  -55.7373 C.2       18 UNK         0.5000 
    103 O         -3.5929  -21.1197  -56.6359 O.2       18 UNK        -0.5000 
    104 N         -1.8133  -20.7186  -55.2881 N.am      19 UNK        -0.5000 
    105 CA        -1.4745  -19.3892  -55.8057 C.3       19 UNK         0.1400 
    106 CB        -0.0593  -19.0097  -55.3472 C.3       19 UNK        -0.1800 
    107 C         -2.4859  -18.3136  -55.3694 C.2       19 UNK         0.5000 
    108 O         -2.6753  -17.3271  -56.0807 O.2       19 UNK        -0.5000 
    109 N         -3.1311  -18.5408  -54.2175 N.am      20 UNK        -0.5000 
    110 CA        -4.2266  -17.7254  -53.6931 C.3       20 UNK         0.1400 
    111 CB        -4.3208  -17.9468  -52.1753 C.3       20 UNK        -0.1800 
    112 C         -5.5732  -18.0242  -54.3859 C.2       20 UNK         0.5000 
    113 O         -6.5021  -17.2266  -54.2555 O.2       20 UNK        -0.5000 
    114 N         -5.6439  -19.1501  -55.1155 N.am      21 UNK        -0.5000 
    115 CA        -6.7866  -19.6617  -55.8765 C.3       21 UNK         0.1400 
    116 CB        -7.0913  -18.7458  -57.0802 C.3       21 UNK        -0.1800 
    117 C         -8.0181  -19.9369  -54.9903 C.2       21 UNK         0.5000 
    118 O         -9.1424  -19.5960  -55.3652 O.2       21 UNK        -0.5000 
    119 N         -7.7777  -20.5438  -53.8236 N.am      22 UNK        -0.5000 
    120 CA        -8.7978  -20.8290  -52.8021 C.3       22 UNK         0.1400 
    121 C         -8.6388  -22.2111  -52.1074 C.2       22 UNK         0.5000 
    122 N         -7.6557  -23.0292  -52.4627 N.am      22 UNK        -0.7600 
    123 O         -9.4473  -22.5679  -51.2547 O.2       22 UNK        -0.5000 
    124 C124       -8.9719  -19.6488  -51.8080 C.3       23 UNK        -0.0398 
    125 S125       -7.4350  -19.2044  -50.9276 S.3       23 UNK        -0.2404 
    126 C126       -7.8534  -19.6460  -49.2122 C.3       23 UNK        -0.0205 
    127 H127       -1.2182  -14.3663  -53.0751 H         1 UNK         0.0600 
    128 H128       -1.5598  -16.0738  -53.3677 H         1 UNK         0.0600 
    129 H129       -2.5411  -15.1635  -52.2156 H         1 UNK         0.0600 
    130 H130       -1.9451  -15.3579  -50.0677 H         1 UNK         0.3000 
    131 H131        0.4017  -16.8695  -49.2888 H         1 UNK         0.0600 
    132 H132       -0.5583  -16.6597  -46.9820 H         1 UNK         0.0800 
    133 H133       -1.7975  -15.5932  -47.5897 H         1 UNK         0.0800 
    134 H134       -4.1145  -16.6251  -47.6533 H         1 UNK         0.0800 
    135 H135       -3.3791  -17.3677  -46.2498 H         1 UNK         0.0800 
    136 H136       -5.9434  -17.7320  -48.7679 H         1 UNK         0.1150 
    137 H137       -7.0079  -21.7443  -47.6999 H         1 UNK         0.1150 
    138 H138       -3.5327  -19.9202  -45.9806 H         1 UNK         0.1150 
    139 H139       -4.6339  -22.0575  -45.0072 H         1 UNK         0.0800 
    140 H140       -5.8198  -22.8876  -45.9708 H         1 UNK         0.0800 
    141 H141       -2.4778  -22.6216  -44.8947 H         1 UNK         0.0800 
    142 H142       -1.5779  -23.7974  -45.7823 H         1 UNK         0.0800 
    143 H143       -1.9028  -21.0554  -47.0462 H         1 UNK         0.0600 
    144 H144       -0.9174  -19.9088  -45.4609 H         1 UNK         0.3000 
    145 H145        1.0295  -20.7037  -42.5821 H         1 UNK         0.0600 
    146 H146        2.0646  -18.5992  -43.3595 H         1 UNK         0.0600 
    147 H147        2.5163  -19.9367  -44.4024 H         1 UNK         0.0600 
    148 H148        1.3098  -18.7811  -44.9444 H         1 UNK         0.0600 
    149 H149       -0.6657  -19.5679  -41.8792 H         1 UNK         0.3000 
    150 H150       -2.0743  -17.0960  -42.0804 H         1 UNK         0.0600 
    151 H151       -4.5032  -17.1216  -42.7420 H         1 UNK         0.0600 
    152 H152       -4.1256  -18.2789  -44.0168 H         1 UNK         0.0600 
    153 H153       -3.4341  -16.6576  -44.0517 H         1 UNK         0.0600 
    154 H154       -2.7574  -18.5574  -40.5782 H         1 UNK         0.3000 
    155 H155       -4.5222  -20.9259  -40.0760 H         1 UNK         0.0600 
    156 H156       -3.2564  -23.0699  -39.7175 H         1 UNK         0.0600 
    157 H157       -2.1488  -22.6243  -41.0156 H         1 UNK         0.0600 
    158 H158       -3.8470  -22.9162  -41.3629 H         1 UNK         0.0600 
    159 H159       -3.2222  -20.1950  -38.4508 H         1 UNK         0.3000 
    160 H160       -1.5735  -19.6941  -37.1506 H         1 UNK         0.0600 
    161 H161        1.2663  -20.3334  -38.1122 H         1 UNK         0.0600 
    162 H162        0.2170  -21.4494  -37.2465 H         1 UNK         0.0600 
    163 H163        0.7738  -19.9831  -36.4556 H         1 UNK         0.0600 
    164 H164        0.5069  -17.9939  -37.9836 H         1 UNK         0.3000 
    165 H165       -1.2726  -15.3378  -39.4530 H         1 UNK         0.0600 
    166 H166       -0.2450  -15.5249  -36.5705 H         1 UNK         0.0600 
    167 H167       -0.4817  -14.0413  -37.4953 H         1 UNK         0.0600 
    168 H168       -1.8639  -15.0270  -37.0469 H         1 UNK         0.0600 
    169 H169        1.3876  -15.5253  -38.4373 H         1 UNK         0.3000 
    170 H170        3.0540  -15.3094  -40.1438 H         1 UNK         0.0600 
    171 H171        3.1925  -17.4284  -38.8283 H         1 UNK         0.0600 
    172 H172        2.9335  -18.3814  -40.2840 H         1 UNK         0.0600 
    173 H173        4.4070  -17.4303  -40.0953 H         1 UNK         0.0600 
    174 H174        3.0287  -17.1843  -42.4007 H         1 UNK         0.3000 
    175 H175        3.3617  -16.4712  -44.4871 H         1 UNK         0.0600 
    176 H176        0.7093  -14.9722  -44.8119 H         1 UNK         0.0600 
    177 H177        1.3133  -16.3330  -45.7604 H         1 UNK         0.0600 
    178 H178        0.8249  -16.5640  -44.0884 H         1 UNK         0.0600 
    179 H179        2.6127  -14.0224  -45.7527 H         1 UNK         0.3000 
    180 H180        4.8093  -12.1013  -45.7031 H         1 UNK         0.0600 
    181 H181        7.0781  -13.0233  -45.9389 H         1 UNK         0.0600 
    182 H182        6.5778  -14.0395  -47.2832 H         1 UNK         0.0600 
    183 H183        6.5924  -12.2848  -47.4547 H         1 UNK         0.0600 
    184 H184        3.4838  -12.0537  -47.4620 H         1 UNK         0.3000 
    185 H185        2.1833  -12.5751  -49.1047 H         1 UNK         0.0600 
    186 H186        3.8853  -14.1516  -51.1100 H         1 UNK         0.0600 
    187 H187        2.6689  -12.9386  -51.5082 H         1 UNK         0.0600 
    188 H188        4.1371  -12.4675  -50.6646 H         1 UNK         0.0600 
    189 H189        1.6872  -15.0545  -50.4371 H         1 UNK         0.3000 
    190 H190        0.9365  -22.8720  -45.9688 H         1 UNK         0.3000 
    191 H191        1.7952  -23.9303  -48.4692 H         1 UNK         0.0600 
    192 H192        3.9705  -24.2067  -47.2642 H         1 UNK         0.0600 
    193 H193        2.6204  -24.7463  -46.2785 H         1 UNK         0.0600 
    194 H194        3.3827  -23.1902  -45.9525 H         1 UNK         0.0600 
    195 H195        2.0587  -20.7204  -47.0939 H         1 UNK         0.3000 
    196 H196        4.0885  -19.5679  -48.6984 H         1 UNK         0.0600 
    197 H197        2.9309  -17.4183  -48.0750 H         1 UNK         0.0600 
    198 H198        3.1694  -18.4606  -46.6849 H         1 UNK         0.0600 
    199 H199        1.5753  -18.3379  -47.4338 H         1 UNK         0.0600 
    200 H200        0.7657  -20.4344  -49.4583 H         1 UNK         0.3000 
    201 H201        0.9260  -19.1663  -52.1565 H         1 UNK         0.0600 
    202 H202       -1.0005  -18.4168  -50.8384 H         1 UNK         0.0600 
    203 H203       -1.4516  -20.0687  -50.4512 H         1 UNK         0.0600 
    204 H204       -1.5790  -19.4701  -52.1054 H         1 UNK         0.0600 
    205 H205        2.1001  -21.8390  -51.0306 H         1 UNK         0.3000 
    206 H206        2.4167  -23.9451  -51.6147 H         1 UNK         0.0600 
    207 H207        2.9521  -22.9629  -53.8405 H         1 UNK         0.0600 
    208 H208        2.2699  -24.5727  -54.0016 H         1 UNK         0.0600 
    209 H209        1.2791  -23.1649  -54.3531 H         1 UNK         0.0600 
    210 H210        0.2813  -23.5880  -50.0612 H         1 UNK         0.3000 
    211 H211       -1.4149  -24.6137  -49.0972 H         1 UNK         0.0600 
    212 H212       -1.3411  -26.7933  -51.2442 H         1 UNK         0.0600 
    213 H213       -2.1649  -26.8603  -49.6959 H         1 UNK         0.0600 
    214 H214       -0.4100  -26.8081  -49.7466 H         1 UNK         0.0600 
    215 H215       -1.8880  -22.4422  -50.3734 H         1 UNK         0.3000 
    216 H216       -3.4370  -21.0458  -51.1184 H         1 UNK         0.0600 
    217 H217       -5.4546  -23.2950  -50.6739 H         1 UNK         0.0600 
    218 H218       -5.7917  -21.5718  -50.7353 H         1 UNK         0.0600 
    219 H219       -4.8254  -22.2251  -49.4279 H         1 UNK         0.0600 
    220 H220       -2.1544  -22.9427  -53.1221 H         1 UNK         0.3000 
    221 H221       -4.0391  -23.1895  -55.3201 H         1 UNK         0.0600 
    222 H222       -0.9960  -23.5411  -55.1907 H         1 UNK         0.0600 
    223 H223       -2.1938  -24.8191  -55.0134 H         1 UNK         0.0600 
    224 H224       -2.0193  -23.9865  -56.5522 H         1 UNK         0.0600 
    225 H225       -1.2412  -21.0746  -54.5235 H         1 UNK         0.3000 
    226 H226       -1.4805  -19.4337  -56.8969 H         1 UNK         0.0600 
    227 H227        0.6669  -19.7751  -55.6218 H         1 UNK         0.0600 
    228 H228        0.2607  -18.0744  -55.8081 H         1 UNK         0.0600 
    229 H229       -0.0129  -18.8719  -54.2679 H         1 UNK         0.0600 
    230 H230       -2.9101  -19.3852  -53.7133 H         1 UNK         0.3000 
    231 H231       -3.9986  -16.6723  -53.8692 H         1 UNK         0.0600 
    232 H232       -4.5497  -18.9849  -51.9335 H         1 UNK         0.0600 
    233 H233       -3.3903  -17.6814  -51.6740 H         1 UNK         0.0600 
    234 H234       -5.1064  -17.3286  -51.7396 H         1 UNK         0.0600 
    235 H235       -4.8196  -19.7328  -55.1538 H         1 UNK         0.3000 
    236 H236       -6.4771  -20.6301  -56.2721 H         1 UNK         0.0600 
    237 H237       -6.2026  -18.5944  -57.6930 H         1 UNK         0.0600 
    238 H238       -7.8559  -19.1852  -57.7218 H         1 UNK         0.0600 
    239 H239       -7.4521  -17.7666  -56.7644 H         1 UNK         0.0600 
    240 H240       -6.8220  -20.7827  -53.5790 H         1 UNK         0.3000 
    241 H241       -9.7535  -20.9359  -53.3183 H         1 UNK         0.0600 
    242 H242       -6.9398  -22.7360  -53.1126 H         1 UNK         0.3800 
    243 H243       -7.5848  -23.9291  -52.0164 H         1 UNK         0.3800 
    244 H244       -9.7696  -19.8580  -51.0936 H         1 UNK         0.0800 
    245 H245       -9.3001  -18.7648  -52.3562 H         1 UNK         0.0800 
    246 H246       -8.3780  -20.6030  -49.2126 H         1 UNK         0.0800 
    247 H247       -8.5476  -18.9079  -48.8086 H         1 UNK         0.0800 
@<TRIPOS>BOND
     1    1    2 1    
     2    1  127 1    
     3    1  128 1    
     4    1  129 1    
     5    2    3 2    
     6    2    4 am   BACKBONE|DICT|INTERRES
     7    4    5 1    
     8    4  130 1    
     9    5    6 1    
    10    5   65 1    
    11    5  131 1    
    12    6    7 1    
    13    6  132 1    
    14    6  133 1    
    15    7    8 1    
    16    8    9 1    
    17    8  134 1    
    18    8  135 1    
    19    9   10 ar   
    20    9   14 ar   
    21   10   11 ar   
    22   10  136 1    
    23   11   12 ar   
    24   11  126 1    
    25   12   13 ar   
    26   12  137 1    
    27   13   14 ar   
    28   13   15 1    
    29   14  138 1    
    30   15   16 1    
    31   15  139 1    
    32   15  140 1    
    33   16   17 1    
    34   17   18 1    
    35   17  141 1    
    36   17  142 1    
    37   18   19 1    
    38   18   67 1    
    39   18  143 1    
    40   19   20 am   BACKBONE|DICT|INTERRES
    41   19  144 1    
    42   20   21 2    
    43   20   22 1    
    44   22   23 1    
    45   22   24 1    
    46   22  145 1    
    47   23  146 1    
    48   23  147 1    
    49   23  148 1    
    50   24   25 am   BACKBONE|DICT|INTERRES
    51   24  149 1    
    52   25   26 2    
    53   25   27 1    
    54   27   28 1    
    55   27   29 1    
    56   27  150 1    
    57   28  151 1    
    58   28  152 1    
    59   28  153 1    
    60   29   30 am   BACKBONE|DICT|INTERRES
    61   29  154 1    
    62   30   31 2    
    63   30   32 1    
    64   32   33 1    
    65   32   34 1    
    66   32  155 1    
    67   33  156 1    
    68   33  157 1    
    69   33  158 1    
    70   34   35 am   BACKBONE|DICT|INTERRES
    71   34  159 1    
    72   35   36 2    
    73   35   37 1    
    74   37   38 1    
    75   37   39 1    
    76   37  160 1    
    77   38  161 1    
    78   38  162 1    
    79   38  163 1    
    80   39   40 am   BACKBONE|DICT|INTERRES
    81   39  164 1    
    82   40   41 2    
    83   40   42 1    
    84   42   43 1    
    85   42   44 1    
    86   42  165 1    
    87   43  166 1    
    88   43  167 1    
    89   43  168 1    
    90   44   45 am   BACKBONE|DICT|INTERRES
    91   44  169 1    
    92   45   46 2    
    93   45   47 1    
    94   47   48 1    
    95   47   49 1    
    96   47  170 1    
    97   48  171 1    
    98   48  172 1    
    99   48  173 1    
   100   49   50 am   BACKBONE|DICT|INTERRES
   101   49  174 1    
   102   50   51 2    
   103   50   52 1    
   104   52   53 1    
   105   52   54 1    
   106   52  175 1    
   107   53  176 1    
   108   53  177 1    
   109   53  178 1    
   110   54   55 am   BACKBONE|DICT|INTERRES
   111   54  179 1    
   112   55   56 2    
   113   55   57 1    
   114   57   58 1    
   115   57   59 1    
   116   57  180 1    
   117   58  181 1    
   118   58  182 1    
   119   58  183 1    
   120   59   60 am   BACKBONE|DICT|INTERRES
   121   59  184 1    
   122   60   61 2    
   123   60   62 1    
   124   62   63 1    
   125   62   64 1    
   126   62  185 1    
   127   63  186 1    
   128   63  187 1    
   129   63  188 1    
   130   64   65 am   BACKBONE|DICT|INTERRES
   131   64  189 1    
   132   65   66 2    
   133   67   68 2    
   134   67   69 am   BACKBONE|DICT|INTERRES
   135   69   70 1    
   136   69  190 1    
   137   70   71 1    
   138   70   72 1    
   139   70  191 1    
   140   71  192 1    
   141   71  193 1    
   142   71  194 1    
   143   72   73 2    
   144   72   74 am   BACKBONE|DICT|INTERRES
   145   74   75 1    
   146   74  195 1    
   147   75   76 1    
   148   75   77 1    
   149   75  196 1    
   150   76  197 1    
   151   76  198 1    
   152   76  199 1    
   153   77   78 2    
   154   77   79 am   BACKBONE|DICT|INTERRES
   155   79   80 1    
   156   79  200 1    
   157   80   81 1    
   158   80   82 1    
   159   80  201 1    
   160   81  202 1    
   161   81  203 1    
   162   81  204 1    
   163   82   83 2    
   164   82   84 am   BACKBONE|DICT|INTERRES
   165   84   85 1    
   166   84  205 1    
   167   85   86 1    
   168   85   87 1    
   169   85  206 1    
   170   86  207 1    
   171   86  208 1    
   172   86  209 1    
   173   87   88 2    
   174   87   89 am   BACKBONE|DICT|INTERRES
   175   89   90 1    
   176   89  210 1    
   177   90   91 1    
   178   90   92 1    
   179   90  211 1    
   180   91  212 1    
   181   91  213 1    
   182   91  214 1    
   183   92   93 2    
   184   92   94 am   BACKBONE|DICT|INTERRES
   185   94   95 1    
   186   94  215 1    
   187   95   96 1    
   188   95   97 1    
   189   95  216 1    
   190   96  217 1    
   191   96  218 1    
   192   96  219 1    
   193   97   98 2    
   194   97   99 am   BACKBONE|DICT|INTERRES
   195   99  100 1    
   196   99  220 1    
   197  100  101 1    
   198  100  102 1    
   199  100  221 1    
   200  101  222 1    
   201  101  223 1    
   202  101  224 1    
   203  102  103 2    
   204  102  104 am   BACKBONE|DICT|INTERRES
   205  104  105 1    
   206  104  225 1    
   207  105  106 1    
   208  105  107 1    
   209  105  226 1    
   210  106  227 1    
   211  106  228 1    
   212  106  229 1    
   213  107  108 2    
   214  107  109 am   BACKBONE|DICT|INTERRES
   215  109  110 1    
   216  109  230 1    
   217  110  111 1    
   218  110  112 1    
   219  110  231 1    
   220  111  232 1    
   221  111  233 1    
   222  111  234 1    
   223  112  113 2    
   224  112  114 am   BACKBONE|DICT|INTERRES
   225  114  115 1    
   226  114  235 1    
   227  115  116 1    
   228  115  117 1    
   229  115  236 1    
   230  116  237 1    
   231  116  238 1    
   232  116  239 1    
   233  117  118 2    
   234  117  119 am   BACKBONE|DICT|INTERRES
   235  119  120 1    
   236  119  240 1    
   237  120  121 1    
   238  120  124 1    
   239  120  241 1    
   240  121  122 am   BACKBONE|DICT|INTERRES
   241  121  123 2    
   242  122  242 1    
   243  122  243 1    
   244  124  125 1    
   245  124  244 1    
   246  124  245 1    
   247  125  126 1    
   248  126  246 1    
   249  126  247 1    
@<TRIPOS>SUBSTRUCTURE
     1 UNK         1 GROUP             0       ****    0 ROOT    
