@<TRIPOS>MOLECULE
3R540
247   249    1
SMALL
USER_CHARGES


@<TRIPOS>ATOM
      1 CA          4.5124  -20.5968  -48.7830 C.3       0 UNK        -0.1800 
      2 C           4.2069  -19.2602  -48.1242 C.2       0 UNK         0.5000 
      3 O           4.5450  -19.0605  -46.9576 O.2       0 UNK        -0.5000 
      4 N           3.5999  -18.3320  -48.8789 N.am      1 UNK        -0.5000 
      5 CA          3.1835  -16.9918  -48.4358 C.3       1 UNK         0.1400 
      6 C6          2.3815  -16.2452  -49.5268 C.3       23 UNK        -0.0398 
      7 S7          0.7576  -17.0221  -49.8340 S.3       23 UNK        -0.2404 
      8 C8         -0.3115  -15.9157  -48.8619 C.3       23 UNK        -0.0205 
      9 C9         -1.7866  -16.2495  -49.0230 C.ar      23 UNK        -0.0193 
     10 C10        -2.4547  -15.9062  -50.2026 C.ar      23 UNK        -0.1150 
     11 C11        -3.8256  -16.1427  -50.3376 C.ar      23 UNK        -0.0193 
     12 C12        -4.5238  -16.7393  -49.2849 C.ar      23 UNK        -0.1150 
     13 C13        -3.8693  -17.0950  -48.1028 C.ar      23 UNK        -0.0193 
     14 C14        -2.4983  -16.8454  -47.9766 C.ar      23 UNK        -0.1150 
     15 C15        -4.6675  -17.6944  -46.9540 C.3       23 UNK        -0.0205 
     16 S16        -4.2962  -19.4564  -46.6856 S.3       23 UNK        -0.2404 
     17 C17        -2.9268  -19.3926  -45.4784 C.3       23 UNK        -0.0398 
     18 CA         -1.5990  -19.9592  -46.0333 C.3       11 UNK         0.1400 
     19 N          -0.4490  -19.5221  -45.2391 N.am      11 UNK        -0.5000 
     20 C           0.8318  -19.6823  -45.6010 C.2       10 UNK         0.5000 
     21 O           1.1847  -20.1535  -46.6804 O.2       10 UNK        -0.5000 
     22 CA          1.8895  -19.3112  -44.5496 C.3       10 UNK         0.1400 
     23 CB          2.2417  -17.8203  -44.6230 C.3       10 UNK        -0.1800 
     24 N           1.4457  -19.6493  -43.1942 N.am      10 UNK        -0.5000 
     25 C           1.4162  -20.9063  -42.7291 C.2       9 UNK         0.5000 
     26 O           1.7490  -21.8821  -43.3998 O.2       9 UNK        -0.5000 
     27 CA          0.9052  -21.1333  -41.2946 C.3       9 UNK         0.1400 
     28 CB          2.0665  -21.0558  -40.2923 C.3       9 UNK        -0.1800 
     29 N          -0.1656  -20.2330  -40.8630 N.am      9 UNK        -0.5000 
     30 C          -1.3525  -20.0840  -41.4656 C.2       8 UNK         0.5000 
     31 O          -1.6370  -20.6074  -42.5456 O.2       8 UNK        -0.5000 
     32 CA         -2.4027  -19.2131  -40.7547 C.3       8 UNK         0.1400 
     33 CB         -1.8865  -18.4657  -39.5069 C.3       8 UNK        -0.1800 
     34 N          -2.9299  -18.2520  -41.7127 N.am      8 UNK        -0.5000 
     35 C          -4.1989  -17.8333  -41.7891 C.2       7 UNK         0.5000 
     36 O          -5.0925  -18.2385  -41.0438 O.2       7 UNK        -0.5000 
     37 CA         -4.5344  -16.8057  -42.8965 C.3       7 UNK         0.1400 
     38 CB         -5.5894  -15.7727  -42.4488 C.3       7 UNK        -0.1800 
     39 N          -3.3537  -16.1425  -43.4719 N.am      7 UNK        -0.5000 
     40 C          -2.4867  -15.3407  -42.8386 C.2       6 UNK         0.5000 
     41 O          -2.6205  -14.9425  -41.6793 O.2       6 UNK        -0.5000 
     42 CA         -1.2351  -14.9495  -43.6435 C.3       6 UNK         0.1400 
     43 CB         -1.3980  -13.5575  -44.2706 C.3       6 UNK        -0.1800 
     44 N          -0.0334  -14.9660  -42.8134 N.am      6 UNK        -0.5000 
     45 C           0.4780  -16.0355  -42.1918 C.2       5 UNK         0.5000 
     46 O           0.0219  -17.1774  -42.3115 O.2       5 UNK        -0.5000 
     47 CA          1.7487  -15.7838  -41.3500 C.3       5 UNK         0.1400 
     48 CB          2.1803  -17.0254  -40.5500 C.3       5 UNK        -0.1800 
     49 N           2.8761  -15.3552  -42.1810 N.am      5 UNK        -0.5000 
     50 C           3.0305  -14.1619  -42.7658 C.2       4 UNK         0.5000 
     51 O           2.2444  -13.2273  -42.5997 O.2       4 UNK        -0.5000 
     52 CA          4.2229  -13.9709  -43.7265 C.3       4 UNK         0.1400 
     53 CB          5.2338  -12.9520  -43.1648 C.3       4 UNK        -0.1800 
     54 N           4.9041  -15.1966  -44.1738 N.am      4 UNK        -0.5000 
     55 C           5.6807  -16.0351  -43.4676 C.2       3 UNK         0.5000 
     56 O           5.8076  -15.9724  -42.2453 O.2       3 UNK        -0.5000 
     57 CA          6.4451  -17.1340  -44.2416 C.3       3 UNK         0.1400 
     58 CB          5.9071  -18.5321  -43.8985 C.3       3 UNK        -0.1800 
     59 N           6.4278  -16.9544  -45.6964 N.am      3 UNK        -0.5000 
     60 C           7.1010  -15.9956  -46.3532 C.2       2 UNK         0.5000 
     61 O           7.8886  -15.2252  -45.8031 O.2       2 UNK        -0.5000 
     62 CA          6.8371  -15.8381  -47.8670 C.3       2 UNK         0.1400 
     63 CB          7.9984  -16.4333  -48.6780 C.3       2 UNK        -0.1800 
     64 N           5.5844  -16.4391  -48.3315 N.am      2 UNK        -0.5000 
     65 C           4.3495  -16.1186  -47.9171 C.2       1 UNK         0.5000 
     66 O           4.1168  -15.2133  -47.1146 O.2       1 UNK        -0.5000 
     67 C          -1.6375  -21.4957  -46.1375 C.2       11 UNK         0.5000 
     68 O          -1.8201  -22.0236  -47.2333 O.2       11 UNK        -0.5000 
     69 N          -1.4140  -22.1795  -45.0058 N.am      12 UNK        -0.5000 
     70 CA         -1.3344  -23.6376  -44.9174 C.3       12 UNK         0.1400 
     71 CB         -1.2473  -24.0551  -43.4419 C.3       12 UNK        -0.1800 
     72 C          -0.1622  -24.2257  -45.7258 C.2       12 UNK         0.5000 
     73 O          -0.3387  -25.2500  -46.3860 O.2       12 UNK        -0.5000 
     74 N           1.0001  -23.5591  -45.6777 N.am      13 UNK        -0.5000 
     75 CA          2.1938  -23.9170  -46.4427 C.3       13 UNK         0.1400 
     76 CB          3.4008  -23.1248  -45.9168 C.3       13 UNK        -0.1800 
     77 C           2.0179  -23.7036  -47.9569 C.2       13 UNK         0.5000 
     78 O           2.4282  -24.5630  -48.7379 O.2       13 UNK        -0.5000 
     79 N           1.4167  -22.5698  -48.3453 N.am      14 UNK        -0.5000 
     80 CA          1.1475  -22.2224  -49.7406 C.3       14 UNK         0.1400 
     81 CB          0.7705  -20.7356  -49.8337 C.3       14 UNK        -0.1800 
     82 C           0.0345  -23.0790  -50.3654 C.2       14 UNK         0.5000 
     83 O           0.1502  -23.4701  -51.5270 O.2       14 UNK        -0.5000 
     84 N          -1.0373  -23.3054  -49.5907 N.am      15 UNK        -0.5000 
     85 CA         -2.3105  -23.9263  -49.9722 C.3       15 UNK         0.1400 
     86 CB         -2.1155  -25.4040  -50.3673 C.3       15 UNK        -0.1800 
     87 C          -3.0823  -23.1208  -51.0406 C.2       15 UNK         0.5000 
     88 O          -3.9532  -23.6751  -51.7110 O.2       15 UNK        -0.5000 
     89 N          -2.7623  -21.8248  -51.1780 N.am      16 UNK        -0.5000 
     90 CA         -3.2520  -20.9330  -52.2303 C.3       16 UNK         0.1400 
     91 CB         -2.5417  -19.5751  -52.1174 C.3       16 UNK        -0.1800 
     92 C          -4.7774  -20.7501  -52.2245 C.2       16 UNK         0.5000 
     93 O          -5.3903  -20.7385  -53.2927 O.2       16 UNK        -0.5000 
     94 N          -5.3604  -20.6485  -51.0231 N.am      17 UNK        -0.5000 
     95 CA         -6.8019  -20.5193  -50.8165 C.3       17 UNK         0.1400 
     96 CB         -7.0645  -20.0757  -49.3698 C.3       17 UNK        -0.1800 
     97 C          -7.5664  -21.8181  -51.1344 C.2       17 UNK         0.5000 
     98 O          -8.6880  -21.7521  -51.6369 O.2       17 UNK        -0.5000 
     99 N          -6.9424  -22.9710  -50.8535 N.am      18 UNK        -0.5000 
    100 CA        -7.4903  -24.3004  -51.1287 C.3       18 UNK         0.1400 
    101 CB        -6.7613  -25.3431  -50.2666 C.3       18 UNK        -0.1800 
    102 C         -7.3968  -24.6597  -52.6216 C.2       18 UNK         0.5000 
    103 O         -8.3422  -25.2207  -53.1763 O.2       18 UNK        -0.5000 
    104 N         -6.2675  -24.3034  -53.2477 N.am      19 UNK        -0.5000 
    105 CA        -6.0044  -24.4745  -54.6770 C.3       19 UNK         0.1400 
    106 CB        -4.4954  -24.3066  -54.9181 C.3       19 UNK        -0.1800 
    107 C         -6.7925  -23.4942  -55.5682 C.2       19 UNK         0.5000 
    108 O         -6.9069  -23.7390  -56.7698 O.2       19 UNK        -0.5000 
    109 N         -7.2892  -22.3996  -54.9713 N.am      20 UNK        -0.5000 
    110 CA        -7.9267  -21.2434  -55.6100 C.3       20 UNK         0.1400 
    111 CB        -9.2566  -21.6366  -56.2860 C.3       20 UNK        -0.1800 
    112 C         -6.9534  -20.4983  -56.5485 C.2       20 UNK         0.5000 
    113 O         -7.3389  -20.0547  -57.6316 O.2       20 UNK        -0.5000 
    114 N         -5.6947  -20.3880  -56.1046 N.am      21 UNK        -0.5000 
    115 CA        -4.6053  -19.7130  -56.8093 C.3       21 UNK         0.1400 
    116 CB        -3.2718  -20.3101  -56.3331 C.3       21 UNK        -0.1800 
    117 C         -4.6202  -18.1880  -56.5917 C.2       21 UNK         0.5000 
    118 O         -4.0053  -17.4600  -57.3721 O.2       21 UNK        -0.5000 
    119 N         -5.3025  -17.7402  -55.5306 N.am      22 UNK        -0.5000 
    120 CA        -5.4863  -16.3346  -55.1457 C.3       22 UNK         0.1400 
    121 C         -6.2254  -15.4980  -56.2279 C.2       22 UNK         0.5000 
    122 N         -5.7899  -14.2709  -56.4792 N.am      22 UNK        -0.7600 
    123 O         -7.2181  -15.9345  -56.8063 O.2       22 UNK        -0.5000 
    124 C124       -6.2297  -16.2230  -53.7917 C.3       23 UNK        -0.0398 
    125 S125       -5.3696  -17.0952  -52.4394 S.3       23 UNK        -0.2404 
    126 C126       -4.5677  -15.7013  -51.5905 C.3       23 UNK        -0.0205 
    127 H127        4.0415  -21.4032  -48.2247 H         1 UNK         0.0600 
    128 H128        5.5879  -20.7723  -48.7936 H         1 UNK         0.0600 
    129 H129        4.1486  -20.6373  -49.8098 H         1 UNK         0.0600 
    130 H130        3.3501  -18.5628  -49.8297 H         1 UNK         0.3000 
    131 H131        2.5110  -17.1369  -47.5908 H         1 UNK         0.0600 
    132 H132        2.9402  -16.2223  -50.4638 H         1 UNK         0.0800 
    133 H133        2.2222  -15.2008  -49.2511 H         1 UNK         0.0800 
    134 H134       -0.1494  -14.8836  -49.1765 H         1 UNK         0.0800 
    135 H135       -0.0183  -15.9681  -47.8121 H         1 UNK         0.0800 
    136 H136       -1.9072  -15.4329  -51.0056 H         1 UNK         0.1150 
    137 H137       -5.5866  -16.9084  -49.3856 H         1 UNK         0.1150 
    138 H138       -1.9867  -17.0962  -47.0596 H         1 UNK         0.1150 
    139 H139       -5.7359  -17.6093  -47.1583 H         1 UNK         0.0800 
    140 H140       -4.5003  -17.1155  -46.0475 H         1 UNK         0.0800 
    141 H141       -2.7763  -18.3601  -45.1706 H         1 UNK         0.0800 
    142 H142       -3.2377  -19.9212  -44.5756 H         1 UNK         0.0800 
    143 H143       -1.4548  -19.5663  -47.0425 H         1 UNK         0.0600 
    144 H144       -0.6369  -19.2083  -44.2979 H         1 UNK         0.3000 
    145 H145        2.7964  -19.8803  -44.7657 H         1 UNK         0.0600 
    146 H146        2.8690  -17.6144  -45.4857 H         1 UNK         0.0600 
    147 H147        2.8106  -17.5134  -43.7490 H         1 UNK         0.0600 
    148 H148        1.3577  -17.1877  -44.7003 H         1 UNK         0.0600 
    149 H149        1.0809  -18.8945  -42.6229 H         1 UNK         0.3000 
    150 H150        0.5012  -22.1466  -41.2574 H         1 UNK         0.0600 
    151 H151        2.4895  -20.0527  -40.2393 H         1 UNK         0.0600 
    152 H152        2.8716  -21.7362  -40.5735 H         1 UNK         0.0600 
    153 H153        1.7425  -21.3367  -39.2901 H         1 UNK         0.0600 
    154 H154       -0.0121  -19.7434  -39.9942 H         1 UNK         0.3000 
    155 H155       -3.1969  -19.8949  -40.4444 H         1 UNK         0.0600 
    156 H156       -2.6861  -17.8870  -39.0442 H         1 UNK         0.0600 
    157 H157       -1.0839  -17.7706  -39.7553 H         1 UNK         0.0600 
    158 H158       -1.5178  -19.1572  -38.7484 H         1 UNK         0.0600 
    159 H159       -2.2449  -17.8659  -42.3478 H         1 UNK         0.3000 
    160 H160       -4.9782  -17.3881  -43.7045 H         1 UNK         0.0600 
    161 H161       -5.2614  -15.2074  -41.5763 H         1 UNK         0.0600 
    162 H162       -6.5278  -16.2614  -42.1841 H         1 UNK         0.0600 
    163 H163       -5.8096  -15.0629  -43.2461 H         1 UNK         0.0600 
    164 H164       -3.1634  -16.3657  -44.4365 H         1 UNK         0.3000 
    165 H165       -1.0872  -15.6751  -44.4464 H         1 UNK         0.0600 
    166 H166       -0.5304  -13.2937  -44.8759 H         1 UNK         0.0600 
    167 H167       -2.2721  -13.5213  -44.9221 H         1 UNK         0.0600 
    168 H168       -1.5226  -12.7866  -43.5089 H         1 UNK         0.0600 
    169 H169        0.4497  -14.0822  -42.6913 H         1 UNK         0.3000 
    170 H170        1.5152  -14.9901  -40.6375 H         1 UNK         0.0600 
    171 H171        3.0163  -16.7943  -39.8895 H         1 UNK         0.0600 
    172 H172        2.4921  -17.8377  -41.2060 H         1 UNK         0.0600 
    173 H173        1.3676  -17.3955  -39.9245 H         1 UNK         0.0600 
    174 H174        3.6121  -16.0321  -42.3273 H         1 UNK         0.3000 
    175 H175        3.7997  -13.5374  -44.6340 H         1 UNK         0.0600 
    176 H176        4.7526  -11.9935  -42.9666 H         1 UNK         0.0600 
    177 H177        5.6768  -13.2914  -42.2282 H         1 UNK         0.0600 
    178 H178        6.0425  -12.7682  -43.8724 H         1 UNK         0.0600 
    179 H179        4.8240  -15.3675  -45.1708 H         1 UNK         0.3000 
    180 H180        7.4837  -17.0880  -43.9076 H         1 UNK         0.0600 
    181 H181        6.5188  -19.3101  -44.3554 H         1 UNK         0.0600 
    182 H182        4.8859  -18.6692  -44.2480 H         1 UNK         0.0600 
    183 H183        5.9129  -18.7055  -42.8217 H         1 UNK         0.0600 
    184 H184        5.8116  -17.5695  -46.2183 H         1 UNK         0.3000 
    185 H185        6.7853  -14.7675  -48.0751 H         1 UNK         0.0600 
    186 H186        8.9500  -15.9872  -48.3855 H         1 UNK         0.0600 
    187 H187        8.0811  -17.5106  -48.5288 H         1 UNK         0.0600 
    188 H188        7.8707  -16.2496  -49.7450 H         1 UNK         0.0600 
    189 H189        5.6735  -17.2130  -48.9736 H         1 UNK         0.3000 
    190 H190       -1.3112  -21.6622  -44.1372 H         1 UNK         0.3000 
    191 H191       -2.2597  -24.0437  -45.3314 H         1 UNK         0.0600 
    192 H192       -2.0949  -23.6734  -42.8722 H         1 UNK         0.0600 
    193 H193       -1.2503  -25.1413  -43.3438 H         1 UNK         0.0600 
    194 H194       -0.3354  -23.6866  -42.9727 H         1 UNK         0.0600 
    195 H195        1.0878  -22.7687  -45.0469 H         1 UNK         0.3000 
    196 H196        2.3921  -24.9784  -46.2792 H         1 UNK         0.0600 
    197 H197        4.3027  -23.3604  -46.4830 H         1 UNK         0.0600 
    198 H198        3.6024  -23.3636  -44.8725 H         1 UNK         0.0600 
    199 H199        3.2387  -22.0487  -45.9865 H         1 UNK         0.0600 
    200 H200        1.1585  -21.8790  -47.6467 H         1 UNK         0.3000 
    201 H201        2.0615  -22.3801  -50.3170 H         1 UNK         0.0600 
    202 H202        0.5968  -20.4366  -50.8679 H         1 UNK         0.0600 
    203 H203        1.5651  -20.1033  -49.4443 H         1 UNK         0.0600 
    204 H204       -0.1335  -20.5083  -49.2670 H         1 UNK         0.0600 
    205 H205       -1.0441  -22.8979  -48.6574 H         1 UNK         0.3000 
    206 H206       -2.9323  -23.9065  -49.0763 H         1 UNK         0.0600 
    207 H207       -1.5630  -25.9461  -49.5996 H         1 UNK         0.0600 
    208 H208       -3.0758  -25.9059  -50.4905 H         1 UNK         0.0600 
    209 H209       -1.5734  -25.5054  -51.3077 H         1 UNK         0.0600 
    210 H210       -2.0557  -21.4510  -50.5630 H         1 UNK         0.3000 
    211 H211       -2.9807  -21.3830  -53.1871 H         1 UNK         0.0600 
    212 H212       -2.7499  -19.0866  -51.1640 H         1 UNK         0.0600 
    213 H213       -2.8662  -18.8977  -52.9084 H         1 UNK         0.0600 
    214 H214       -1.4612  -19.6837  -52.2097 H         1 UNK         0.0600 
    215 H215       -4.7772  -20.6612  -50.1996 H         1 UNK         0.3000 
    216 H216       -7.1743  -19.7400  -51.4852 H         1 UNK         0.0600 
    217 H217       -8.1323  -19.9485  -49.1874 H         1 UNK         0.0600 
    218 H218       -6.6915  -20.8045  -48.6491 H         1 UNK         0.0600 
    219 H219       -6.5838  -19.1211  -49.1585 H         1 UNK         0.0600 
    220 H220       -6.0007  -22.9345  -50.4922 H         1 UNK         0.3000 
    221 H221       -8.5455  -24.3075  -50.8468 H         1 UNK         0.0600 
    222 H222       -5.6961  -25.3868  -50.4949 H         1 UNK         0.0600 
    223 H223       -6.8677  -25.1203  -49.2049 H         1 UNK         0.0600 
    224 H224       -7.1722  -26.3398  -50.4320 H         1 UNK         0.0600 
    225 H225       -5.5075  -23.9123  -52.6950 H         1 UNK         0.3000 
    226 H226       -6.2904  -25.4885  -54.9635 H         1 UNK         0.0600 
    227 H227       -4.2451  -24.4600  -55.9685 H         1 UNK         0.0600 
    228 H228       -4.1548  -23.3079  -54.6411 H         1 UNK         0.0600 
    229 H229       -3.9202  -25.0282  -54.3376 H         1 UNK         0.0600 
    230 H230       -7.0910  -22.2898  -53.9861 H         1 UNK         0.3000 
    231 H231       -8.1626  -20.5469  -54.8040 H         1 UNK         0.0600 
    232 H232       -9.1002  -22.2791  -57.1527 H         1 UNK         0.0600 
    233 H233       -9.7940  -20.7521  -56.6299 H         1 UNK         0.0600 
    234 H234       -9.9103  -22.1632  -55.5908 H         1 UNK         0.0600 
    235 H235       -5.4898  -20.7288  -55.1683 H         1 UNK         0.3000 
    236 H236       -4.7032  -19.9004  -57.8806 H         1 UNK         0.0600 
    237 H237       -3.1032  -20.1182  -55.2734 H         1 UNK         0.0600 
    238 H238       -3.2429  -21.3887  -56.4891 H         1 UNK         0.0600 
    239 H239       -2.4334  -19.8790  -56.8815 H         1 UNK         0.0600 
    240 H240       -5.7576  -18.4206  -54.9405 H         1 UNK         0.3000 
    241 H241       -4.4879  -15.9116  -55.0180 H         1 UNK         0.0600 
    242 H242       -4.9815  -13.8884  -56.0130 H         1 UNK         0.3800 
    243 H243       -6.2711  -13.7126  -57.1675 H         1 UNK         0.3800 
    244 H244       -7.2336  -16.6431  -53.8752 H         1 UNK         0.0800 
    245 H245       -6.3659  -15.1764  -53.5134 H         1 UNK         0.0800 
    246 H246       -3.8905  -15.2045  -52.2870 H         1 UNK         0.0800 
    247 H247       -5.3218  -14.9656  -51.3075 H         1 UNK         0.0800 
@<TRIPOS>BOND
     1    1    2 1    
     2    1  127 1    
     3    1  128 1    
     4    1  129 1    
     5    2    3 2    
     6    2    4 am   BACKBONE|DICT|INTERRES
     7    4    5 1    
     8    4  130 1    
     9    5    6 1    
    10    5   65 1    
    11    5  131 1    
    12    6    7 1    
    13    6  132 1    
    14    6  133 1    
    15    7    8 1    
    16    8    9 1    
    17    8  134 1    
    18    8  135 1    
    19    9   10 ar   
    20    9   14 ar   
    21   10   11 ar   
    22   10  136 1    
    23   11   12 ar   
    24   11  126 1    
    25   12   13 ar   
    26   12  137 1    
    27   13   14 ar   
    28   13   15 1    
    29   14  138 1    
    30   15   16 1    
    31   15  139 1    
    32   15  140 1    
    33   16   17 1    
    34   17   18 1    
    35   17  141 1    
    36   17  142 1    
    37   18   19 1    
    38   18   67 1    
    39   18  143 1    
    40   19   20 am   BACKBONE|DICT|INTERRES
    41   19  144 1    
    42   20   21 2    
    43   20   22 1    
    44   22   23 1    
    45   22   24 1    
    46   22  145 1    
    47   23  146 1    
    48   23  147 1    
    49   23  148 1    
    50   24   25 am   BACKBONE|DICT|INTERRES
    51   24  149 1    
    52   25   26 2    
    53   25   27 1    
    54   27   28 1    
    55   27   29 1    
    56   27  150 1    
    57   28  151 1    
    58   28  152 1    
    59   28  153 1    
    60   29   30 am   BACKBONE|DICT|INTERRES
    61   29  154 1    
    62   30   31 2    
    63   30   32 1    
    64   32   33 1    
    65   32   34 1    
    66   32  155 1    
    67   33  156 1    
    68   33  157 1    
    69   33  158 1    
    70   34   35 am   BACKBONE|DICT|INTERRES
    71   34  159 1    
    72   35   36 2    
    73   35   37 1    
    74   37   38 1    
    75   37   39 1    
    76   37  160 1    
    77   38  161 1    
    78   38  162 1    
    79   38  163 1    
    80   39   40 am   BACKBONE|DICT|INTERRES
    81   39  164 1    
    82   40   41 2    
    83   40   42 1    
    84   42   43 1    
    85   42   44 1    
    86   42  165 1    
    87   43  166 1    
    88   43  167 1    
    89   43  168 1    
    90   44   45 am   BACKBONE|DICT|INTERRES
    91   44  169 1    
    92   45   46 2    
    93   45   47 1    
    94   47   48 1    
    95   47   49 1    
    96   47  170 1    
    97   48  171 1    
    98   48  172 1    
    99   48  173 1    
   100   49   50 am   BACKBONE|DICT|INTERRES
   101   49  174 1    
   102   50   51 2    
   103   50   52 1    
   104   52   53 1    
   105   52   54 1    
   106   52  175 1    
   107   53  176 1    
   108   53  177 1    
   109   53  178 1    
   110   54   55 am   BACKBONE|DICT|INTERRES
   111   54  179 1    
   112   55   56 2    
   113   55   57 1    
   114   57   58 1    
   115   57   59 1    
   116   57  180 1    
   117   58  181 1    
   118   58  182 1    
   119   58  183 1    
   120   59   60 am   BACKBONE|DICT|INTERRES
   121   59  184 1    
   122   60   61 2    
   123   60   62 1    
   124   62   63 1    
   125   62   64 1    
   126   62  185 1    
   127   63  186 1    
   128   63  187 1    
   129   63  188 1    
   130   64   65 am   BACKBONE|DICT|INTERRES
   131   64  189 1    
   132   65   66 2    
   133   67   68 2    
   134   67   69 am   BACKBONE|DICT|INTERRES
   135   69   70 1    
   136   69  190 1    
   137   70   71 1    
   138   70   72 1    
   139   70  191 1    
   140   71  192 1    
   141   71  193 1    
   142   71  194 1    
   143   72   73 2    
   144   72   74 am   BACKBONE|DICT|INTERRES
   145   74   75 1    
   146   74  195 1    
   147   75   76 1    
   148   75   77 1    
   149   75  196 1    
   150   76  197 1    
   151   76  198 1    
   152   76  199 1    
   153   77   78 2    
   154   77   79 am   BACKBONE|DICT|INTERRES
   155   79   80 1    
   156   79  200 1    
   157   80   81 1    
   158   80   82 1    
   159   80  201 1    
   160   81  202 1    
   161   81  203 1    
   162   81  204 1    
   163   82   83 2    
   164   82   84 am   BACKBONE|DICT|INTERRES
   165   84   85 1    
   166   84  205 1    
   167   85   86 1    
   168   85   87 1    
   169   85  206 1    
   170   86  207 1    
   171   86  208 1    
   172   86  209 1    
   173   87   88 2    
   174   87   89 am   BACKBONE|DICT|INTERRES
   175   89   90 1    
   176   89  210 1    
   177   90   91 1    
   178   90   92 1    
   179   90  211 1    
   180   91  212 1    
   181   91  213 1    
   182   91  214 1    
   183   92   93 2    
   184   92   94 am   BACKBONE|DICT|INTERRES
   185   94   95 1    
   186   94  215 1    
   187   95   96 1    
   188   95   97 1    
   189   95  216 1    
   190   96  217 1    
   191   96  218 1    
   192   96  219 1    
   193   97   98 2    
   194   97   99 am   BACKBONE|DICT|INTERRES
   195   99  100 1    
   196   99  220 1    
   197  100  101 1    
   198  100  102 1    
   199  100  221 1    
   200  101  222 1    
   201  101  223 1    
   202  101  224 1    
   203  102  103 2    
   204  102  104 am   BACKBONE|DICT|INTERRES
   205  104  105 1    
   206  104  225 1    
   207  105  106 1    
   208  105  107 1    
   209  105  226 1    
   210  106  227 1    
   211  106  228 1    
   212  106  229 1    
   213  107  108 2    
   214  107  109 am   BACKBONE|DICT|INTERRES
   215  109  110 1    
   216  109  230 1    
   217  110  111 1    
   218  110  112 1    
   219  110  231 1    
   220  111  232 1    
   221  111  233 1    
   222  111  234 1    
   223  112  113 2    
   224  112  114 am   BACKBONE|DICT|INTERRES
   225  114  115 1    
   226  114  235 1    
   227  115  116 1    
   228  115  117 1    
   229  115  236 1    
   230  116  237 1    
   231  116  238 1    
   232  116  239 1    
   233  117  118 2    
   234  117  119 am   BACKBONE|DICT|INTERRES
   235  119  120 1    
   236  119  240 1    
   237  120  121 1    
   238  120  124 1    
   239  120  241 1    
   240  121  122 am   BACKBONE|DICT|INTERRES
   241  121  123 2    
   242  122  242 1    
   243  122  243 1    
   244  124  125 1    
   245  124  244 1    
   246  124  245 1    
   247  125  126 1    
   248  126  246 1    
   249  126  247 1    
@<TRIPOS>SUBSTRUCTURE
     1 UNK         1 GROUP             0       ****    0 ROOT    
