@<TRIPOS>MOLECULE
3R540
247   249    1
SMALL
USER_CHARGES


@<TRIPOS>ATOM
      1 CA          1.9494  -17.4207  -45.3750 C.3       0 UNK        -0.1800 
      2 C           2.0234  -16.2358  -46.3272 C.2       0 UNK         0.5000 
      3 O           1.3909  -15.2060  -46.0841 O.2       0 UNK        -0.5000 
      4 N           2.8166  -16.3748  -47.3987 N.am      1 UNK        -0.5000 
      5 CA          3.0681  -15.3518  -48.4265 C.3       1 UNK         0.1400 
      6 C6          3.8284  -15.9580  -49.6357 C.3       23 UNK        -0.0398 
      7 S7          3.6182  -14.9971  -51.1768 S.3       23 UNK        -0.2404 
      8 C8          2.5382  -16.0734  -52.1715 C.3       23 UNK        -0.0205 
      9 C9          1.1480  -16.2057  -51.5695 C.ar      23 UNK        -0.0193 
     10 C10         0.2097  -15.1812  -51.7287 C.ar      23 UNK        -0.1150 
     11 C11        -1.0785  -15.3123  -51.2000 C.ar      23 UNK        -0.0193 
     12 C12        -1.4147  -16.4656  -50.4868 C.ar      23 UNK        -0.1150 
     13 C13        -0.4846  -17.4944  -50.3212 C.ar      23 UNK        -0.0193 
     14 C14         0.7922  -17.3629  -50.8716 C.ar      23 UNK        -0.1150 
     15 C15        -0.8584  -18.7476  -49.5508 C.3       23 UNK        -0.0205 
     16 S16        -0.0500  -18.7637  -47.9266 S.3       23 UNK        -0.2404 
     17 C17        -1.1103  -19.9135  -46.9978 C.3       23 UNK        -0.0398 
     18 CA         -0.7044  -21.3830  -47.2261 C.3       11 UNK         0.1400 
     19 N           0.6641  -21.6794  -46.7978 N.am      11 UNK        -0.5000 
     20 C           1.3528  -22.7475  -47.2231 C.2       10 UNK         0.5000 
     21 O           0.9007  -23.5724  -48.0154 O.2       10 UNK        -0.5000 
     22 CA          2.7627  -22.9597  -46.6433 C.3       10 UNK         0.1400 
     23 CB          3.8083  -22.2381  -47.5063 C.3       10 UNK        -0.1800 
     24 N           2.8993  -22.5180  -45.2556 N.am      10 UNK        -0.5000 
     25 C           2.1923  -22.9857  -44.2183 C.2       9 UNK         0.5000 
     26 O           1.3330  -23.8638  -44.3204 O.2       9 UNK        -0.5000 
     27 CA          2.4567  -22.3427  -42.8402 C.3       9 UNK         0.1400 
     28 CB          3.7114  -21.4408  -42.7969 C.3       9 UNK        -0.1800 
     29 N           1.2960  -21.5972  -42.3430 N.am      9 UNK        -0.5000 
     30 C           0.6366  -20.6098  -42.9674 C.2       8 UNK         0.5000 
     31 O           0.8752  -20.2471  -44.1209 O.2       8 UNK        -0.5000 
     32 CA         -0.5024  -19.9160  -42.1938 C.3       8 UNK         0.1400 
     33 CB         -0.8284  -20.5451  -40.8184 C.3       8 UNK        -0.1800 
     34 N          -0.2664  -18.4760  -42.0605 N.am      8 UNK        -0.5000 
     35 C           0.7301  -17.8688  -41.3935 C.2       7 UNK         0.5000 
     36 O           1.6270  -18.4773  -40.8085 O.2       7 UNK        -0.5000 
     37 CA          0.7272  -16.3228  -41.3380 C.3       7 UNK         0.1400 
     38 CB          1.9908  -15.7228  -41.9779 C.3       7 UNK        -0.1800 
     39 N          -0.4482  -15.7114  -41.9594 N.am      7 UNK        -0.5000 
     40 C          -1.6665  -15.6336  -41.4066 C.2       6 UNK         0.5000 
     41 O          -1.9195  -15.9928  -40.2565 O.2       6 UNK        -0.5000 
     42 CA         -2.8008  -15.0886  -42.3007 C.3       6 UNK         0.1400 
     43 CB         -3.0672  -13.6094  -41.9820 C.3       6 UNK        -0.1800 
     44 N          -2.5498  -15.2189  -43.7407 N.am      6 UNK        -0.5000 
     45 C          -2.3512  -16.3624  -44.4106 C.2       5 UNK         0.5000 
     46 O          -2.3563  -17.4691  -43.8719 O.2       5 UNK        -0.5000 
     47 CA         -2.0216  -16.2676  -45.9121 C.3       5 UNK         0.1400 
     48 CB         -3.1781  -16.8028  -46.7769 C.3       5 UNK        -0.1800 
     49 N          -1.5494  -14.9489  -46.3613 N.am      5 UNK        -0.5000 
     50 C          -2.2534  -13.8199  -46.5275 C.2       4 UNK         0.5000 
     51 O          -3.4573  -13.7197  -46.2924 O.2       4 UNK        -0.5000 
     52 CA         -1.4348  -12.5787  -46.9084 C.3       4 UNK         0.1400 
     53 CB         -2.2904  -11.3088  -47.0877 C.3       4 UNK        -0.1800 
     54 N          -0.4367  -12.3766  -45.8639 N.am      4 UNK        -0.5000 
     55 C           0.7363  -11.7561  -46.0083 C.2       3 UNK         0.5000 
     56 O           1.0869  -11.1916  -47.0454 O.2       3 UNK        -0.5000 
     57 CA          1.6941  -11.7911  -44.8038 C.3       3 UNK         0.1400 
     58 CB          1.0750  -12.3739  -43.5153 C.3       3 UNK        -0.1800 
     59 N           2.8330  -12.6133  -45.1885 N.am      3 UNK        -0.5000 
     60 C           4.0885  -12.1785  -45.3531 C.2       2 UNK         0.5000 
     61 O           4.4663  -11.0422  -45.0636 O.2       2 UNK        -0.5000 
     62 CA          5.1012  -13.1792  -45.9507 C.3       2 UNK         0.1400 
     63 CB          5.9602  -13.7999  -44.8381 C.3       2 UNK        -0.1800 
     64 N           4.4734  -14.2584  -46.7176 N.am      2 UNK        -0.5000 
     65 C           3.7965  -14.1036  -47.8665 C.2       1 UNK         0.5000 
     66 O           3.7146  -13.0281  -48.4593 O.2       1 UNK        -0.5000 
     67 C          -1.7171  -22.3305  -46.5638 C.2       11 UNK         0.5000 
     68 O          -2.6774  -22.7312  -47.2193 O.2       11 UNK        -0.5000 
     69 N          -1.4758  -22.7057  -45.2995 N.am      12 UNK        -0.5000 
     70 CA         -2.2869  -23.6875  -44.5780 C.3       12 UNK         0.1400 
     71 CB         -1.9324  -23.6752  -43.0852 C.3       12 UNK        -0.1800 
     72 C          -2.1480  -25.0934  -45.1849 C.2       12 UNK         0.5000 
     73 O          -3.1569  -25.7785  -45.3577 O.2       12 UNK        -0.5000 
     74 N          -0.9136  -25.4589  -45.5631 N.am      13 UNK        -0.5000 
     75 CA         -0.5973  -26.6746  -46.3151 C.3       13 UNK         0.1400 
     76 CB          0.9267  -26.8296  -46.4241 C.3       13 UNK        -0.1800 
     77 C          -1.2583  -26.7007  -47.7083 C.2       13 UNK         0.5000 
     78 O          -1.7659  -27.7441  -48.1192 O.2       13 UNK        -0.5000 
     79 N          -1.3081  -25.5422  -48.3807 N.am      14 UNK        -0.5000 
     80 CA         -1.9864  -25.3144  -49.6603 C.3       14 UNK         0.1400 
     81 CB         -1.3238  -24.1235  -50.3737 C.3       14 UNK        -0.1800 
     82 C          -3.5159  -25.1303  -49.5198 C.2       14 UNK         0.5000 
     83 O          -4.0982  -24.2875  -50.2077 O.2       14 UNK        -0.5000 
     84 N          -4.1410  -25.9353  -48.6490 N.am      15 UNK        -0.5000 
     85 CA         -5.5822  -26.0421  -48.4031 C.3       15 UNK         0.1400 
     86 CB         -6.2796  -26.6713  -49.6282 C.3       15 UNK        -0.1800 
     87 C          -6.2306  -24.7144  -47.9593 C.2       15 UNK         0.5000 
     88 O          -7.2974  -24.3549  -48.4576 O.2       15 UNK        -0.5000 
     89 N          -5.5605  -23.9985  -47.0439 N.am      16 UNK        -0.5000 
     90 CA         -5.9280  -22.6670  -46.5399 C.3       16 UNK         0.1400 
     91 CB         -7.2184  -22.7294  -45.6966 C.3       16 UNK        -0.1800 
     92 C          -5.9861  -21.6234  -47.6760 C.2       16 UNK         0.5000 
     93 O          -6.9809  -20.9151  -47.8356 O.2       16 UNK        -0.5000 
     94 N          -4.9039  -21.5997  -48.4636 N.am      17 UNK        -0.5000 
     95 CA         -4.6295  -20.7882  -49.6512 C.3       17 UNK         0.1400 
     96 CB         -4.7429  -19.2822  -49.3429 C.3       17 UNK        -0.1800 
     97 C          -5.4429  -21.1634  -50.9047 C.2       17 UNK         0.5000 
     98 O          -5.1857  -20.5829  -51.9598 O.2       17 UNK        -0.5000 
     99 N          -6.3753  -22.1219  -50.8109 N.am      18 UNK        -0.5000 
    100 CA        -7.2527  -22.5257  -51.9120 C.3       18 UNK         0.1400 
    101 CB        -8.3656  -23.4409  -51.3830 C.3       18 UNK        -0.1800 
    102 C         -6.5104  -23.2000  -53.0797 C.2       18 UNK         0.5000 
    103 O         -6.9131  -23.0164  -54.2291 O.2       18 UNK        -0.5000 
    104 N         -5.4397  -23.9485  -52.7781 N.am      19 UNK        -0.5000 
    105 CA        -4.5869  -24.5773  -53.7888 C.3       19 UNK         0.1400 
    106 CB        -3.9502  -25.8488  -53.2072 C.3       19 UNK        -0.1800 
    107 C         -3.5037  -23.6148  -54.3106 C.2       19 UNK         0.5000 
    108 O         -3.0232  -23.8011  -55.4291 O.2       19 UNK        -0.5000 
    109 N         -3.1337  -22.6126  -53.5001 N.am      20 UNK        -0.5000 
    110 CA        -2.1508  -21.5885  -53.8519 C.3       20 UNK         0.1400 
    111 CB        -1.5932  -20.9385  -52.5740 C.3       20 UNK        -0.1800 
    112 C         -2.7452  -20.5185  -54.7810 C.2       20 UNK         0.5000 
    113 O         -2.1056  -20.1457  -55.7658 O.2       20 UNK        -0.5000 
    114 N         -3.9389  -20.0170  -54.4236 N.am      21 UNK        -0.5000 
    115 CA        -4.7031  -18.9553  -55.0956 C.3       21 UNK         0.1400 
    116 CB        -5.2599  -19.4729  -56.4373 C.3       21 UNK        -0.1800 
    117 C         -3.9272  -17.6246  -55.2477 C.2       21 UNK         0.5000 
    118 O         -4.2138  -16.8422  -56.1556 O.2       21 UNK        -0.5000 
    119 N         -2.9387  -17.4148  -54.3681 N.am      22 UNK        -0.5000 
    120 CA        -1.9220  -16.3515  -54.4154 C.3       22 UNK         0.1400 
    121 C         -0.9732  -16.4115  -55.6539 C.2       22 UNK         0.5000 
    122 N         -0.8498  -17.5400  -56.3443 N.am      22 UNK        -0.7600 
    123 O         -0.3098  -15.4316  -55.9828 O.2       22 UNK        -0.5000 
    124 C124       -2.4915  -14.9260  -54.1557 C.3       23 UNK        -0.0398 
    125 S125       -3.4199  -14.7854  -52.5871 S.3       23 UNK        -0.2404 
    126 C126       -2.1242  -14.2315  -51.4280 C.3       23 UNK        -0.0205 
    127 H127        0.9717  -17.4704  -44.8957 H         1 UNK         0.0600 
    128 H128        2.1133  -18.3626  -45.8983 H         1 UNK         0.0600 
    129 H129        2.7098  -17.3339  -44.6002 H         1 UNK         0.0600 
    130 H130        3.2956  -17.2535  -47.5338 H         1 UNK         0.3000 
    131 H131        2.0865  -15.0195  -48.7726 H         1 UNK         0.0600 
    132 H132        4.8948  -16.0489  -49.4215 H         1 UNK         0.0800 
    133 H133        3.4853  -16.9760  -49.8216 H         1 UNK         0.0800 
    134 H134        3.0060  -17.0523  -52.2880 H         1 UNK         0.0800 
    135 H135        2.4558  -15.6567  -53.1764 H         1 UNK         0.0800 
    136 H136        0.4788  -14.2923  -52.2820 H         1 UNK         0.1150 
    137 H137       -2.4117  -16.5668  -50.0831 H         1 UNK         0.1150 
    138 H138        1.5096  -18.1616  -50.7462 H         1 UNK         0.1150 
    139 H139       -1.9391  -18.8039  -49.4309 H         1 UNK         0.0800 
    140 H140       -0.5584  -19.6333  -50.1118 H         1 UNK         0.0800 
    141 H141       -1.0461  -19.6543  -45.9395 H         1 UNK         0.0800 
    142 H142       -2.1490  -19.7480  -47.2865 H         1 UNK         0.0800 
    143 H143       -0.7625  -21.5662  -48.3007 H         1 UNK         0.0600 
    144 H144        1.0698  -21.0612  -46.1041 H         1 UNK         0.3000 
    145 H145        2.9728  -24.0306  -46.6719 H         1 UNK         0.0600 
    146 H146        4.8202  -22.4477  -47.1592 H         1 UNK         0.0600 
    147 H147        3.7485  -22.5640  -48.5457 H         1 UNK         0.0600 
    148 H148        3.6642  -21.1569  -47.4927 H         1 UNK         0.0600 
    149 H149        3.5616  -21.7764  -45.0826 H         1 UNK         0.3000 
    150 H150        2.6186  -23.1692  -42.1470 H         1 UNK         0.0600 
    151 H151        4.6029  -21.9850  -43.1115 H         1 UNK         0.0600 
    152 H152        3.8965  -21.0869  -41.7825 H         1 UNK         0.0600 
    153 H153        3.6103  -20.5606  -43.4332 H         1 UNK         0.0600 
    154 H154        1.0009  -21.8351  -41.4070 H         1 UNK         0.3000 
    155 H155       -1.3910  -20.0204  -42.8182 H         1 UNK         0.0600 
    156 H156       -1.6861  -20.0501  -40.3626 H         1 UNK         0.0600 
    157 H157        0.0030  -20.4674  -40.1174 H         1 UNK         0.0600 
    158 H158       -1.0833  -21.6006  -40.9086 H         1 UNK         0.0600 
    159 H159       -0.9403  -17.8975  -42.5511 H         1 UNK         0.3000 
    160 H160        0.7377  -16.0561  -40.2791 H         1 UNK         0.0600 
    161 H161        1.9626  -15.7827  -43.0642 H         1 UNK         0.0600 
    162 H162        2.8941  -16.2320  -41.6394 H         1 UNK         0.0600 
    163 H163        2.0980  -14.6720  -41.7099 H         1 UNK         0.0600 
    164 H164       -0.3418  -15.3991  -42.9121 H         1 UNK         0.3000 
    165 H165       -3.7014  -15.6605  -42.0690 H         1 UNK         0.0600 
    166 H166       -2.2040  -12.9854  -42.2170 H         1 UNK         0.0600 
    167 H167       -3.9196  -13.2308  -42.5465 H         1 UNK         0.0600 
    168 H168       -3.2936  -13.4716  -40.9238 H         1 UNK         0.0600 
    169 H169       -2.6131  -14.3723  -44.2879 H         1 UNK         0.3000 
    170 H170       -1.1726  -16.9329  -46.0577 H         1 UNK         0.0600 
    171 H171       -3.4449  -17.8166  -46.4779 H         1 UNK         0.0600 
    172 H172       -4.0796  -16.1977  -46.6855 H         1 UNK         0.0600 
    173 H173       -2.8981  -16.8362  -47.8282 H         1 UNK         0.0600 
    174 H174       -0.5432  -14.8971  -46.4991 H         1 UNK         0.3000 
    175 H175       -0.9336  -12.8013  -47.8531 H         1 UNK         0.0600 
    176 H176       -2.7933  -11.0289  -46.1614 H         1 UNK         0.0600 
    177 H177       -1.6815  -10.4627  -47.4059 H         1 UNK         0.0600 
    178 H178       -3.0572  -11.4592  -47.8486 H         1 UNK         0.0600 
    179 H179       -0.6314  -12.8227  -44.9801 H         1 UNK         0.3000 
    180 H180        1.9977  -10.7615  -44.6043 H         1 UNK         0.0600 
    181 H181        0.2007  -11.8025  -43.2005 H         1 UNK         0.0600 
    182 H182        0.7759  -13.4152  -43.6382 H         1 UNK         0.0600 
    183 H183        1.7912  -12.3354  -42.6944 H         1 UNK         0.0600 
    184 H184        2.6007  -13.5463  -45.5093 H         1 UNK         0.3000 
    185 H185        5.7567  -12.6224  -46.6234 H         1 UNK         0.0600 
    186 H186        6.7277  -14.4554  -45.2502 H         1 UNK         0.0600 
    187 H187        6.4706  -13.0273  -44.2615 H         1 UNK         0.0600 
    188 H188        5.3562  -14.3835  -44.1419 H         1 UNK         0.0600 
    189 H189        4.4964  -15.1778  -46.3021 H         1 UNK         0.3000 
    190 H190       -0.6248  -22.3937  -44.8540 H         1 UNK         0.3000 
    191 H191       -3.3343  -23.3944  -44.6683 H         1 UNK         0.0600 
    192 H192       -2.5166  -24.4177  -42.5401 H         1 UNK         0.0600 
    193 H193       -2.1562  -22.7043  -42.6462 H         1 UNK         0.0600 
    194 H194       -0.8796  -23.8942  -42.9094 H         1 UNK         0.0600 
    195 H195       -0.1374  -24.8453  -45.3363 H         1 UNK         0.3000 
    196 H196       -0.9850  -27.5236  -45.7484 H         1 UNK         0.0600 
    197 H197        1.1881  -27.7595  -46.9307 H         1 UNK         0.0600 
    198 H198        1.3926  -26.8529  -45.4387 H         1 UNK         0.0600 
    199 H199        1.3773  -26.0127  -46.9872 H         1 UNK         0.0600 
    200 H200       -0.8267  -24.7409  -47.9892 H         1 UNK         0.3000 
    201 H201       -1.8352  -26.1948  -50.2877 H         1 UNK         0.0600 
    202 H202       -0.2464  -24.2629  -50.4621 H         1 UNK         0.0600 
    203 H203       -1.5004  -23.1901  -49.8402 H         1 UNK         0.0600 
    204 H204       -1.7146  -24.0042  -51.3839 H         1 UNK         0.0600 
    205 H205       -3.5616  -26.5910  -48.1388 H         1 UNK         0.3000 
    206 H206       -5.7008  -26.7306  -47.5654 H         1 UNK         0.0600 
    207 H207       -5.8336  -27.6323  -49.8839 H         1 UNK         0.0600 
    208 H208       -7.3375  -26.8487  -49.4311 H         1 UNK         0.0600 
    209 H209       -6.2128  -26.0293  -50.5068 H         1 UNK         0.0600 
    210 H210       -4.6682  -24.3590  -46.7315 H         1 UNK         0.3000 
    211 H211       -5.1225  -22.3498  -45.8772 H         1 UNK         0.0600 
    212 H212       -8.0878  -22.9969  -46.2976 H         1 UNK         0.0600 
    213 H213       -7.4273  -21.7638  -45.2348 H         1 UNK         0.0600 
    214 H214       -7.1283  -23.4605  -44.8933 H         1 UNK         0.0600 
    215 H215       -4.1516  -22.2365  -48.2075 H         1 UNK         0.3000 
    216 H216       -3.5877  -20.9955  -49.8986 H         1 UNK         0.0600 
    217 H217       -5.7781  -18.9754  -49.1921 H         1 UNK         0.0600 
    218 H218       -4.3466  -18.6832  -50.1638 H         1 UNK         0.0600 
    219 H219       -4.1846  -19.0192  -48.4467 H         1 UNK         0.0600 
    220 H220       -6.5123  -22.5853  -49.9223 H         1 UNK         0.3000 
    221 H221       -7.7225  -21.6205  -52.3026 H         1 UNK         0.0600 
    222 H222       -7.9695  -24.3932  -51.0311 H         1 UNK         0.0600 
    223 H223       -8.9045  -22.9749  -50.5578 H         1 UNK         0.0600 
    224 H224       -9.0930  -23.6605  -52.1653 H         1 UNK         0.0600 
    225 H225       -5.1494  -24.0417  -51.8074 H         1 UNK         0.3000 
    226 H226       -5.2014  -24.8786  -54.6399 H         1 UNK         0.0600 
    227 H227       -4.7034  -26.5124  -52.7821 H         1 UNK         0.0600 
    228 H228       -3.4244  -26.4066  -53.9829 H         1 UNK         0.0600 
    229 H229       -3.2250  -25.6188  -52.4288 H         1 UNK         0.0600 
    230 H230       -3.6058  -22.5164  -52.6138 H         1 UNK         0.3000 
    231 H231       -1.3191  -22.0644  -54.3761 H         1 UNK         0.0600 
    232 H232       -2.3757  -20.4642  -51.9820 H         1 UNK         0.0600 
    233 H233       -1.0913  -21.6712  -51.9435 H         1 UNK         0.0600 
    234 H234       -0.8585  -20.1695  -52.8174 H         1 UNK         0.0600 
    235 H235       -4.3653  -20.3599  -53.5640 H         1 UNK         0.3000 
    236 H236       -5.5518  -18.7369  -54.4460 H         1 UNK         0.0600 
    237 H237       -5.8136  -20.4020  -56.3001 H         1 UNK         0.0600 
    238 H238       -5.9450  -18.7515  -56.8840 H         1 UNK         0.0600 
    239 H239       -4.4640  -19.6600  -57.1587 H         1 UNK         0.0600 
    240 H240       -2.8008  -18.1124  -53.6531 H         1 UNK         0.3000 
    241 H241       -1.2567  -16.5886  -53.5885 H         1 UNK         0.0600 
    242 H242       -1.3700  -18.3760  -56.0943 H         1 UNK         0.3800 
    243 H243       -0.2263  -17.5653  -57.1351 H         1 UNK         0.3800 
    244 H244       -3.1533  -14.6319  -54.9710 H         1 UNK         0.0800 
    245 H245       -1.6890  -14.1869  -54.1427 H         1 UNK         0.0800 
    246 H246       -1.6661  -13.3140  -51.8005 H         1 UNK         0.0800 
    247 H247       -2.5882  -13.9769  -50.4740 H         1 UNK         0.0800 
@<TRIPOS>BOND
     1    1    2 1    
     2    1  127 1    
     3    1  128 1    
     4    1  129 1    
     5    2    3 2    
     6    2    4 am   BACKBONE|DICT|INTERRES
     7    4    5 1    
     8    4  130 1    
     9    5    6 1    
    10    5   65 1    
    11    5  131 1    
    12    6    7 1    
    13    6  132 1    
    14    6  133 1    
    15    7    8 1    
    16    8    9 1    
    17    8  134 1    
    18    8  135 1    
    19    9   10 ar   
    20    9   14 ar   
    21   10   11 ar   
    22   10  136 1    
    23   11   12 ar   
    24   11  126 1    
    25   12   13 ar   
    26   12  137 1    
    27   13   14 ar   
    28   13   15 1    
    29   14  138 1    
    30   15   16 1    
    31   15  139 1    
    32   15  140 1    
    33   16   17 1    
    34   17   18 1    
    35   17  141 1    
    36   17  142 1    
    37   18   19 1    
    38   18   67 1    
    39   18  143 1    
    40   19   20 am   BACKBONE|DICT|INTERRES
    41   19  144 1    
    42   20   21 2    
    43   20   22 1    
    44   22   23 1    
    45   22   24 1    
    46   22  145 1    
    47   23  146 1    
    48   23  147 1    
    49   23  148 1    
    50   24   25 am   BACKBONE|DICT|INTERRES
    51   24  149 1    
    52   25   26 2    
    53   25   27 1    
    54   27   28 1    
    55   27   29 1    
    56   27  150 1    
    57   28  151 1    
    58   28  152 1    
    59   28  153 1    
    60   29   30 am   BACKBONE|DICT|INTERRES
    61   29  154 1    
    62   30   31 2    
    63   30   32 1    
    64   32   33 1    
    65   32   34 1    
    66   32  155 1    
    67   33  156 1    
    68   33  157 1    
    69   33  158 1    
    70   34   35 am   BACKBONE|DICT|INTERRES
    71   34  159 1    
    72   35   36 2    
    73   35   37 1    
    74   37   38 1    
    75   37   39 1    
    76   37  160 1    
    77   38  161 1    
    78   38  162 1    
    79   38  163 1    
    80   39   40 am   BACKBONE|DICT|INTERRES
    81   39  164 1    
    82   40   41 2    
    83   40   42 1    
    84   42   43 1    
    85   42   44 1    
    86   42  165 1    
    87   43  166 1    
    88   43  167 1    
    89   43  168 1    
    90   44   45 am   BACKBONE|DICT|INTERRES
    91   44  169 1    
    92   45   46 2    
    93   45   47 1    
    94   47   48 1    
    95   47   49 1    
    96   47  170 1    
    97   48  171 1    
    98   48  172 1    
    99   48  173 1    
   100   49   50 am   BACKBONE|DICT|INTERRES
   101   49  174 1    
   102   50   51 2    
   103   50   52 1    
   104   52   53 1    
   105   52   54 1    
   106   52  175 1    
   107   53  176 1    
   108   53  177 1    
   109   53  178 1    
   110   54   55 am   BACKBONE|DICT|INTERRES
   111   54  179 1    
   112   55   56 2    
   113   55   57 1    
   114   57   58 1    
   115   57   59 1    
   116   57  180 1    
   117   58  181 1    
   118   58  182 1    
   119   58  183 1    
   120   59   60 am   BACKBONE|DICT|INTERRES
   121   59  184 1    
   122   60   61 2    
   123   60   62 1    
   124   62   63 1    
   125   62   64 1    
   126   62  185 1    
   127   63  186 1    
   128   63  187 1    
   129   63  188 1    
   130   64   65 am   BACKBONE|DICT|INTERRES
   131   64  189 1    
   132   65   66 2    
   133   67   68 2    
   134   67   69 am   BACKBONE|DICT|INTERRES
   135   69   70 1    
   136   69  190 1    
   137   70   71 1    
   138   70   72 1    
   139   70  191 1    
   140   71  192 1    
   141   71  193 1    
   142   71  194 1    
   143   72   73 2    
   144   72   74 am   BACKBONE|DICT|INTERRES
   145   74   75 1    
   146   74  195 1    
   147   75   76 1    
   148   75   77 1    
   149   75  196 1    
   150   76  197 1    
   151   76  198 1    
   152   76  199 1    
   153   77   78 2    
   154   77   79 am   BACKBONE|DICT|INTERRES
   155   79   80 1    
   156   79  200 1    
   157   80   81 1    
   158   80   82 1    
   159   80  201 1    
   160   81  202 1    
   161   81  203 1    
   162   81  204 1    
   163   82   83 2    
   164   82   84 am   BACKBONE|DICT|INTERRES
   165   84   85 1    
   166   84  205 1    
   167   85   86 1    
   168   85   87 1    
   169   85  206 1    
   170   86  207 1    
   171   86  208 1    
   172   86  209 1    
   173   87   88 2    
   174   87   89 am   BACKBONE|DICT|INTERRES
   175   89   90 1    
   176   89  210 1    
   177   90   91 1    
   178   90   92 1    
   179   90  211 1    
   180   91  212 1    
   181   91  213 1    
   182   91  214 1    
   183   92   93 2    
   184   92   94 am   BACKBONE|DICT|INTERRES
   185   94   95 1    
   186   94  215 1    
   187   95   96 1    
   188   95   97 1    
   189   95  216 1    
   190   96  217 1    
   191   96  218 1    
   192   96  219 1    
   193   97   98 2    
   194   97   99 am   BACKBONE|DICT|INTERRES
   195   99  100 1    
   196   99  220 1    
   197  100  101 1    
   198  100  102 1    
   199  100  221 1    
   200  101  222 1    
   201  101  223 1    
   202  101  224 1    
   203  102  103 2    
   204  102  104 am   BACKBONE|DICT|INTERRES
   205  104  105 1    
   206  104  225 1    
   207  105  106 1    
   208  105  107 1    
   209  105  226 1    
   210  106  227 1    
   211  106  228 1    
   212  106  229 1    
   213  107  108 2    
   214  107  109 am   BACKBONE|DICT|INTERRES
   215  109  110 1    
   216  109  230 1    
   217  110  111 1    
   218  110  112 1    
   219  110  231 1    
   220  111  232 1    
   221  111  233 1    
   222  111  234 1    
   223  112  113 2    
   224  112  114 am   BACKBONE|DICT|INTERRES
   225  114  115 1    
   226  114  235 1    
   227  115  116 1    
   228  115  117 1    
   229  115  236 1    
   230  116  237 1    
   231  116  238 1    
   232  116  239 1    
   233  117  118 2    
   234  117  119 am   BACKBONE|DICT|INTERRES
   235  119  120 1    
   236  119  240 1    
   237  120  121 1    
   238  120  124 1    
   239  120  241 1    
   240  121  122 am   BACKBONE|DICT|INTERRES
   241  121  123 2    
   242  122  242 1    
   243  122  243 1    
   244  124  125 1    
   245  124  244 1    
   246  124  245 1    
   247  125  126 1    
   248  126  246 1    
   249  126  247 1    
@<TRIPOS>SUBSTRUCTURE
     1 UNK         1 GROUP             0       ****    0 ROOT    
