@<TRIPOS>MOLECULE
3R540
247   249    1
SMALL
USER_CHARGES


@<TRIPOS>ATOM
      1 CA         -2.3090  -14.4558  -43.2298 C.3       0 UNK        -0.1800 
      2 C          -2.5038  -13.1094  -43.9122 C.2       0 UNK         0.5000 
      3 O          -2.6439  -12.0925  -43.2334 O.2       0 UNK        -0.5000 
      4 N          -2.5279  -13.1007  -45.2514 N.am      1 UNK        -0.5000 
      5 CA         -2.7515  -11.9051  -46.0761 C.3       1 UNK         0.1400 
      6 C6         -3.3530  -12.2663  -47.4589 C.3       23 UNK        -0.0398 
      7 S7         -2.2484  -13.2220  -48.5603 S.3       23 UNK        -0.2404 
      8 C8         -2.8878  -14.9102  -48.3493 C.3       23 UNK        -0.0205 
      9 C9         -2.2181  -15.8721  -49.3172 C.ar      23 UNK        -0.0193 
     10 C10        -2.8869  -16.3031  -50.4661 C.ar      23 UNK        -0.1150 
     11 C11        -2.2658  -17.1782  -51.3624 C.ar      23 UNK        -0.0193 
     12 C12        -0.9703  -17.6333  -51.0974 C.ar      23 UNK        -0.1150 
     13 C13        -0.2907  -17.2045  -49.9536 C.ar      23 UNK        -0.0193 
     14 C14        -0.9212  -16.3262  -49.0681 C.ar      23 UNK        -0.1150 
     15 C15         1.1433  -17.6376  -49.6946 C.3       23 UNK        -0.0205 
     16 S16         1.2955  -18.6698  -48.2055 S.3       23 UNK        -0.2404 
     17 C17         0.9093  -20.3379  -48.8297 C.3       23 UNK        -0.0398 
     18 CA         -0.2349  -21.0657  -48.0822 C.3       11 UNK         0.1400 
     19 N          -0.0785  -21.0692  -46.6223 N.am      11 UNK        -0.5000 
     20 C          -0.5355  -22.0535  -45.8346 C.2       10 UNK         0.5000 
     21 O          -1.0749  -23.0733  -46.2633 O.2       10 UNK        -0.5000 
     22 CA         -0.3892  -21.8718  -44.3129 C.3       10 UNK         0.1400 
     23 CB          0.9936  -22.3432  -43.8381 C.3       10 UNK        -0.1800 
     24 N          -0.6238  -20.5022  -43.8549 N.am      10 UNK        -0.5000 
     25 C          -1.7815  -19.8387  -43.9797 C.2       9 UNK         0.5000 
     26 O          -2.7741  -20.3016  -44.5385 O.2       9 UNK        -0.5000 
     27 CA         -1.8310  -18.4079  -43.4179 C.3       9 UNK         0.1400 
     28 CB         -2.1128  -18.4107  -41.9082 C.3       9 UNK        -0.1800 
     29 N          -0.5910  -17.6843  -43.6891 N.am      9 UNK        -0.5000 
     30 C          -0.2776  -17.1701  -44.8858 C.2       8 UNK         0.5000 
     31 O          -1.0459  -17.1745  -45.8456 O.2       8 UNK        -0.5000 
     32 CA          1.1201  -16.5427  -45.0362 C.3       8 UNK         0.1400 
     33 CB          1.0468  -15.0197  -44.8518 C.3       8 UNK        -0.1800 
     34 N           2.1081  -17.1056  -44.1119 N.am      8 UNK        -0.5000 
     35 C           2.5810  -18.3588  -44.1866 C.2       7 UNK         0.5000 
     36 O           2.2326  -19.1739  -45.0400 O.2       7 UNK        -0.5000 
     37 CA          3.5671  -18.7955  -43.0894 C.3       7 UNK         0.1400 
     38 CB          4.9544  -18.1774  -43.3169 C.3       7 UNK        -0.1800 
     39 N           3.1057  -18.4699  -41.7402 N.am      7 UNK        -0.5000 
     40 C           1.9847  -18.9235  -41.1671 C.2       6 UNK         0.5000 
     41 O           1.1863  -19.6638  -41.7394 O.2       6 UNK        -0.5000 
     42 CA          1.6717  -18.4522  -39.7323 C.3       6 UNK         0.1400 
     43 CB          2.4002  -19.3175  -38.6867 C.3       6 UNK        -0.1800 
     44 N           1.8941  -17.0165  -39.5103 N.am      6 UNK        -0.5000 
     45 C           3.0485  -16.3368  -39.5041 C.2       5 UNK         0.5000 
     46 O           4.1631  -16.8542  -39.6115 O.2       5 UNK        -0.5000 
     47 CA          2.9257  -14.8051  -39.4055 C.3       5 UNK         0.1400 
     48 CB          3.2841  -14.3247  -37.9911 C.3       5 UNK        -0.1800 
     49 N           3.7640  -14.1011  -40.3796 N.am      5 UNK        -0.5000 
     50 C           3.7739  -14.3087  -41.7038 C.2       4 UNK         0.5000 
     51 O           3.0632  -15.1333  -42.2820 O.2       4 UNK        -0.5000 
     52 CA          4.6708  -13.3689  -42.5167 C.3       4 UNK         0.1400 
     53 CB          5.1325  -13.9769  -43.8537 C.3       4 UNK        -0.1800 
     54 N           3.8878  -12.1686  -42.7698 N.am      4 UNK        -0.5000 
     55 C           4.3324  -10.9108  -42.7389 C.2       3 UNK         0.5000 
     56 O           5.5121  -10.6116  -42.5434 O.2       3 UNK        -0.5000 
     57 CA          3.2715   -9.8109  -42.9722 C.3       3 UNK         0.1400 
     58 CB          3.8696   -8.3925  -42.9398 C.3       3 UNK        -0.1800 
     59 N           2.5434   -9.9823  -44.2331 N.am      3 UNK        -0.5000 
     60 C           1.5776  -10.8789  -44.4679 C.2       2 UNK         0.5000 
     61 O           1.1971  -11.7090  -43.6370 O.2       2 UNK        -0.5000 
     62 CA          0.9668  -10.8617  -45.8762 C.3       2 UNK         0.1400 
     63 CB          1.8846  -11.5897  -46.8722 C.3       2 UNK        -0.1800 
     64 N          -0.3251  -11.5394  -45.8528 N.am      2 UNK        -0.5000 
     65 C          -1.5001  -11.0044  -46.2034 C.2       1 UNK         0.5000 
     66 O          -1.6285   -9.8518  -46.6202 O.2       1 UNK        -0.5000 
     67 C          -1.6350  -20.6036  -48.5377 C.2       11 UNK         0.5000 
     68 O          -2.0480  -20.9666  -49.6383 O.2       11 UNK        -0.5000 
     69 N          -2.3579  -19.8553  -47.6923 N.am      12 UNK        -0.5000 
     70 CA         -3.7495  -19.4768  -47.9373 C.3       12 UNK         0.1400 
     71 CB         -4.1220  -18.2749  -47.0579 C.3       12 UNK        -0.1800 
     72 C          -4.7101  -20.6515  -47.6786 C.2       12 UNK         0.5000 
     73 O          -5.6408  -20.8580  -48.4591 O.2       12 UNK        -0.5000 
     74 N          -4.4632  -21.3985  -46.5910 N.am      13 UNK        -0.5000 
     75 CA         -5.2295  -22.5599  -46.1363 C.3       13 UNK         0.1400 
     76 CB         -4.5871  -23.1213  -44.8581 C.3       13 UNK        -0.1800 
     77 C          -5.3399  -23.6452  -47.2215 C.2       13 UNK         0.5000 
     78 O          -4.3285  -24.2420  -47.5981 O.2       13 UNK        -0.5000 
     79 N          -6.5612  -23.8236  -47.7480 N.am      14 UNK        -0.5000 
     80 CA         -6.9267  -24.7033  -48.8677 C.3       14 UNK         0.1400 
     81 CB         -6.8208  -26.1829  -48.4417 C.3       14 UNK        -0.1800 
     82 C          -6.1391  -24.4128  -50.1657 C.2       14 UNK         0.5000 
     83 O          -5.9602  -25.3150  -50.9856 O.2       14 UNK        -0.5000 
     84 N          -5.6313  -23.1776  -50.3043 N.am      15 UNK        -0.5000 
     85 CA         -4.6898  -22.7243  -51.3302 C.3       15 UNK         0.1400 
     86 CB         -5.3992  -22.6064  -52.6944 C.3       15 UNK        -0.1800 
     87 C          -3.4095  -23.5857  -51.3881 C.2       15 UNK         0.5000 
     88 O          -2.9423  -23.9104  -52.4804 O.2       15 UNK        -0.5000 
     89 N          -2.8978  -23.9827  -50.2119 N.am      16 UNK        -0.5000 
     90 CA         -1.7573  -24.8816  -50.0039 C.3       16 UNK         0.1400 
     91 CB         -0.4615  -24.2735  -50.5843 C.3       16 UNK        -0.1800 
     92 C          -2.0393  -26.2990  -50.5450 C.2       16 UNK         0.5000 
     93 O          -1.1644  -26.9104  -51.1579 O.2       16 UNK        -0.5000 
     94 N          -3.2804  -26.7715  -50.3518 N.am      17 UNK        -0.5000 
     95 CA         -3.8673  -27.9756  -50.9541 C.3       17 UNK         0.1400 
     96 CB         -3.1865  -29.2557  -50.4264 C.3       17 UNK        -0.1800 
     97 C          -3.8880  -27.8766  -52.4953 C.2       17 UNK         0.5000 
     98 O          -3.4422  -28.7896  -53.1919 O.2       17 UNK        -0.5000 
     99 N          -4.3774  -26.7267  -52.9798 N.am      18 UNK        -0.5000 
    100 CA        -4.4807  -26.2817  -54.3741 C.3       18 UNK         0.1400 
    101 CB        -5.3814  -27.2310  -55.1903 C.3       18 UNK        -0.1800 
    102 C         -3.1386  -26.0026  -55.0882 C.2       18 UNK         0.5000 
    103 O         -3.1610  -25.6599  -56.2711 O.2       18 UNK        -0.5000 
    104 N         -2.0004  -26.1167  -54.3888 N.am      19 UNK        -0.5000 
    105 CA        -0.6655  -25.8963  -54.9498 C.3       19 UNK         0.1400 
    106 CB         0.3904  -26.5412  -54.0406 C.3       19 UNK        -0.1800 
    107 C         -0.3346  -24.4112  -55.1928 C.2       19 UNK         0.5000 
    108 O          0.4117  -24.1128  -56.1263 O.2       19 UNK        -0.5000 
    109 N         -0.8847  -23.5073  -54.3686 N.am      20 UNK        -0.5000 
    110 CA        -0.7145  -22.0582  -54.5152 C.3       20 UNK         0.1400 
    111 CB        -0.8673  -21.3727  -53.1479 C.3       20 UNK        -0.1800 
    112 C         -1.7010  -21.4601  -55.5347 C.2       20 UNK         0.5000 
    113 O         -1.4141  -20.4020  -56.0953 O.2       20 UNK        -0.5000 
    114 N         -2.8278  -22.1558  -55.7614 N.am      21 UNK        -0.5000 
    115 CA        -3.8910  -21.8467  -56.7253 C.3       21 UNK         0.1400 
    116 CB        -3.3875  -22.0808  -58.1644 C.3       21 UNK        -0.1800 
    117 C         -4.5158  -20.4483  -56.5210 C.2       21 UNK         0.5000 
    118 O         -4.7186  -19.7092  -57.4867 O.2       21 UNK        -0.5000 
    119 N         -4.7840  -20.1112  -55.2532 N.am      22 UNK        -0.5000 
    120 CA        -5.3692  -18.8412  -54.7980 C.3       22 UNK         0.1400 
    121 C         -6.7596  -18.5370  -55.4252 C.2       22 UNK         0.5000 
    122 N         -7.0307  -17.2871  -55.7759 N.am      22 UNK        -0.7600 
    123 O         -7.6103  -19.4153  -55.5511 O.2       22 UNK        -0.5000 
    124 C124       -5.4705  -18.7790  -53.2511 C.3       23 UNK        -0.0398 
    125 S125       -3.9070  -19.1478  -52.3844 S.3       23 UNK        -0.2404 
    126 C126       -2.9852  -17.6020  -52.6318 C.3       23 UNK        -0.0205 
    127 H127       -1.3501  -14.4844  -42.7131 H         1 UNK         0.0600 
    128 H128       -2.3427  -15.2761  -43.9458 H         1 UNK         0.0600 
    129 H129       -3.0963  -14.6216  -42.4944 H         1 UNK         0.0600 
    130 H130       -2.3999  -13.9632  -45.7596 H         1 UNK         0.3000 
    131 H131       -3.5014  -11.2959  -45.5665 H         1 UNK         0.0600 
    132 H132       -3.6334  -11.3533  -47.9870 H         1 UNK         0.0800 
    133 H133       -4.2876  -12.8114  -47.3206 H         1 UNK         0.0800 
    134 H134       -2.7079  -15.2392  -47.3256 H         1 UNK         0.0800 
    135 H135       -3.9689  -14.9174  -48.4967 H         1 UNK         0.0800 
    136 H136       -3.8878  -15.9492  -50.6697 H         1 UNK         0.1150 
    137 H137       -0.4872  -18.3060  -51.7913 H         1 UNK         0.1150 
    138 H138       -0.3969  -15.9882  -48.1852 H         1 UNK         0.1150 
    139 H139        1.5634  -18.1597  -50.5556 H         1 UNK         0.0800 
    140 H140        1.7541  -16.7444  -49.5571 H         1 UNK         0.0800 
    141 H141        1.8216  -20.9279  -48.7338 H         1 UNK         0.0800 
    142 H142        0.7032  -20.3004  -49.9011 H         1 UNK         0.0800 
    143 H143       -0.1668  -22.1053  -48.4034 H         1 UNK         0.0600 
    144 H144        0.3926  -20.2731  -46.2094 H         1 UNK         0.3000 
    145 H145       -1.1411  -22.5050  -43.8372 H         1 UNK         0.0600 
    146 H146        1.0704  -22.3080  -42.7513 H         1 UNK         0.0600 
    147 H147        1.1818  -23.3731  -44.1439 H         1 UNK         0.0600 
    148 H148        1.7930  -21.7270  -44.2499 H         1 UNK         0.0600 
    149 H149        0.1328  -20.0678  -43.3351 H         1 UNK         0.3000 
    150 H150       -2.6559  -17.8859  -43.9079 H         1 UNK         0.0600 
    151 H151       -3.0637  -18.9001  -41.6937 H         1 UNK         0.0600 
    152 H152       -2.1749  -17.3949  -41.5174 H         1 UNK         0.0600 
    153 H153       -1.3416  -18.9398  -41.3492 H         1 UNK         0.0600 
    154 H154        0.1062  -17.6690  -42.9600 H         1 UNK         0.3000 
    155 H155        1.4607  -16.7368  -46.0538 H         1 UNK         0.0600 
    156 H156        0.3203  -14.5775  -45.5343 H         1 UNK         0.0600 
    157 H157        2.0092  -14.5534  -45.0568 H         1 UNK         0.0600 
    158 H158        0.7584  -14.7487  -43.8361 H         1 UNK         0.0600 
    159 H159        2.4521  -16.4860  -43.3798 H         1 UNK         0.3000 
    160 H160        3.6658  -19.8813  -43.1497 H         1 UNK         0.0600 
    161 H161        5.6822  -18.5722  -42.6079 H         1 UNK         0.0600 
    162 H162        4.9328  -17.0937  -43.2041 H         1 UNK         0.0600 
    163 H163        5.3227  -18.3982  -44.3196 H         1 UNK         0.0600 
    164 H164        3.6912  -17.8502  -41.1881 H         1 UNK         0.3000 
    165 H165        0.6014  -18.6052  -39.5851 H         1 UNK         0.0600 
    166 H166        3.4841  -19.2622  -38.7891 H         1 UNK         0.0600 
    167 H167        2.1422  -19.0115  -37.6729 H         1 UNK         0.0600 
    168 H168        2.1197  -20.3663  -38.7911 H         1 UNK         0.0600 
    169 H169        1.0438  -16.4761  -39.4318 H         1 UNK         0.3000 
    170 H170        1.8914  -14.5225  -39.6119 H         1 UNK         0.0600 
    171 H171        2.6607  -14.8145  -37.2419 H         1 UNK         0.0600 
    172 H172        4.3245  -14.5420  -37.7452 H         1 UNK         0.0600 
    173 H173        3.1311  -13.2503  -37.8870 H         1 UNK         0.0600 
    174 H174        4.3755  -13.3922  -40.0026 H         1 UNK         0.3000 
    175 H175        5.5532  -13.1332  -41.9179 H         1 UNK         0.0600 
    176 H176        4.2919  -14.2407  -44.4954 H         1 UNK         0.0600 
    177 H177        5.7628  -13.2783  -44.4040 H         1 UNK         0.0600 
    178 H178        5.7193  -14.8802  -43.6875 H         1 UNK         0.0600 
    179 H179        2.8948  -12.3137  -42.9372 H         1 UNK         0.3000 
    180 H180        2.5565   -9.8833  -42.1498 H         1 UNK         0.0600 
    181 H181        4.5950   -8.2426  -43.7405 H         1 UNK         0.0600 
    182 H182        4.3788   -8.2027  -41.9940 H         1 UNK         0.0600 
    183 H183        3.0931   -7.6345  -43.0442 H         1 UNK         0.0600 
    184 H184        2.8234   -9.3688  -44.9849 H         1 UNK         0.3000 
    185 H185        0.8546   -9.8214  -46.1883 H         1 UNK         0.0600 
    186 H186        2.8589  -11.1042  -46.9388 H         1 UNK         0.0600 
    187 H187        2.0541  -12.6271  -46.5829 H         1 UNK         0.0600 
    188 H188        1.4535  -11.5901  -47.8736 H         1 UNK         0.0600 
    189 H189       -0.3267  -12.4530  -45.4235 H         1 UNK         0.3000 
    190 H190       -1.9573  -19.5847  -46.8055 H         1 UNK         0.3000 
    191 H191       -3.8493  -19.1736  -48.9823 H         1 UNK         0.0600 
    192 H192       -4.1266  -18.5272  -45.9977 H         1 UNK         0.0600 
    193 H193       -3.4179  -17.4583  -47.1982 H         1 UNK         0.0600 
    194 H194       -5.1143  -17.9004  -47.3113 H         1 UNK         0.0600 
    195 H195       -3.6979  -21.1148  -45.9853 H         1 UNK         0.3000 
    196 H196       -6.2319  -22.2104  -45.8822 H         1 UNK         0.0600 
    197 H197       -4.5887  -22.3814  -44.0576 H         1 UNK         0.0600 
    198 H198       -3.5541  -23.4267  -45.0285 H         1 UNK         0.0600 
    199 H199       -5.1327  -23.9935  -44.4961 H         1 UNK         0.0600 
    200 H200       -7.3145  -23.2493  -47.3950 H         1 UNK         0.3000 
    201 H201       -7.9728  -24.4959  -49.0966 H         1 UNK         0.0600 
    202 H202       -7.2132  -26.8446  -49.2148 H         1 UNK         0.0600 
    203 H203       -7.3946  -26.3731  -47.5348 H         1 UNK         0.0600 
    204 H204       -5.7884  -26.4779  -48.2519 H         1 UNK         0.0600 
    205 H205       -5.8187  -22.4989  -49.5715 H         1 UNK         0.3000 
    206 H206       -4.3659  -21.7275  -51.0307 H         1 UNK         0.0600 
    207 H207       -6.2353  -21.9099  -52.6419 H         1 UNK         0.0600 
    208 H208       -5.7894  -23.5646  -53.0341 H         1 UNK         0.0600 
    209 H209       -4.7156  -22.2411  -53.4586 H         1 UNK         0.0600 
    210 H210       -3.3840  -23.7120  -49.3634 H         1 UNK         0.3000 
    211 H211       -1.6326  -24.9717  -48.9238 H         1 UNK         0.0600 
    212 H212       -0.3474  -23.2287  -50.3053 H         1 UNK         0.0600 
    213 H213        0.4161  -24.8108  -50.2238 H         1 UNK         0.0600 
    214 H214       -0.4445  -24.3177  -51.6722 H         1 UNK         0.0600 
    215 H215       -3.9327  -26.1700  -49.8681 H         1 UNK         0.3000 
    216 H216       -4.9100  -28.0033  -50.6341 H         1 UNK         0.0600 
    217 H217       -3.7054  -30.1458  -50.7839 H         1 UNK         0.0600 
    218 H218       -2.1489  -29.3326  -50.7520 H         1 UNK         0.0600 
    219 H219       -3.1996  -29.2878  -49.3371 H         1 UNK         0.0600 
    220 H220       -4.7423  -26.0660  -52.2984 H         1 UNK         0.3000 
    221 H221       -4.9875  -25.3181  -54.3318 H         1 UNK         0.0600 
    222 H222       -4.9140  -28.2040  -55.3424 H         1 UNK         0.0600 
    223 H223       -6.3384  -27.3908  -54.6935 H         1 UNK         0.0600 
    224 H224       -5.5956  -26.8169  -56.1762 H         1 UNK         0.0600 
    225 H225       -2.0521  -26.3690  -53.4111 H         1 UNK         0.3000 
    226 H226       -0.6213  -26.4035  -55.9160 H         1 UNK         0.0600 
    227 H227        0.1668  -27.5922  -53.8560 H         1 UNK         0.0600 
    228 H228        1.3787  -26.4934  -54.4992 H         1 UNK         0.0600 
    229 H229        0.4557  -26.0374  -53.0768 H         1 UNK         0.0600 
    230 H230       -1.5237  -23.8178  -53.6385 H         1 UNK         0.3000 
    231 H231        0.2963  -21.8536  -54.8744 H         1 UNK         0.0600 
    232 H232       -0.1725  -21.7833  -52.4158 H         1 UNK         0.0600 
    233 H233       -1.8758  -21.4762  -52.7498 H         1 UNK         0.0600 
    234 H234       -0.6629  -20.3046  -53.2261 H         1 UNK         0.0600 
    235 H235       -2.9394  -23.0187  -55.2487 H         1 UNK         0.3000 
    236 H236       -4.6906  -22.5652  -56.5386 H         1 UNK         0.0600 
    237 H237       -2.9888  -23.0889  -58.2808 H         1 UNK         0.0600 
    238 H238       -4.1968  -21.9676  -58.8866 H         1 UNK         0.0600 
    239 H239       -2.6018  -21.3758  -58.4379 H         1 UNK         0.0600 
    240 H240       -4.5527  -20.7675  -54.5245 H         1 UNK         0.3000 
    241 H241       -4.6811  -18.0577  -55.1205 H         1 UNK         0.0600 
    242 H242       -7.9350  -17.0752  -56.1689 H         1 UNK         0.3800 
    243 H243       -6.3517  -16.5479  -55.6775 H         1 UNK         0.3800 
    244 H244       -5.8228  -17.7978  -52.9280 H         1 UNK         0.0800 
    245 H245       -6.2159  -19.4912  -52.8939 H         1 UNK         0.0800 
    246 H246       -3.6543  -16.8035  -52.9553 H         1 UNK         0.0800 
    247 H247       -2.2692  -17.7438  -53.4428 H         1 UNK         0.0800 
@<TRIPOS>BOND
     1    1    2 1    
     2    1  127 1    
     3    1  128 1    
     4    1  129 1    
     5    2    3 2    
     6    2    4 am   BACKBONE|DICT|INTERRES
     7    4    5 1    
     8    4  130 1    
     9    5    6 1    
    10    5   65 1    
    11    5  131 1    
    12    6    7 1    
    13    6  132 1    
    14    6  133 1    
    15    7    8 1    
    16    8    9 1    
    17    8  134 1    
    18    8  135 1    
    19    9   10 ar   
    20    9   14 ar   
    21   10   11 ar   
    22   10  136 1    
    23   11   12 ar   
    24   11  126 1    
    25   12   13 ar   
    26   12  137 1    
    27   13   14 ar   
    28   13   15 1    
    29   14  138 1    
    30   15   16 1    
    31   15  139 1    
    32   15  140 1    
    33   16   17 1    
    34   17   18 1    
    35   17  141 1    
    36   17  142 1    
    37   18   19 1    
    38   18   67 1    
    39   18  143 1    
    40   19   20 am   BACKBONE|DICT|INTERRES
    41   19  144 1    
    42   20   21 2    
    43   20   22 1    
    44   22   23 1    
    45   22   24 1    
    46   22  145 1    
    47   23  146 1    
    48   23  147 1    
    49   23  148 1    
    50   24   25 am   BACKBONE|DICT|INTERRES
    51   24  149 1    
    52   25   26 2    
    53   25   27 1    
    54   27   28 1    
    55   27   29 1    
    56   27  150 1    
    57   28  151 1    
    58   28  152 1    
    59   28  153 1    
    60   29   30 am   BACKBONE|DICT|INTERRES
    61   29  154 1    
    62   30   31 2    
    63   30   32 1    
    64   32   33 1    
    65   32   34 1    
    66   32  155 1    
    67   33  156 1    
    68   33  157 1    
    69   33  158 1    
    70   34   35 am   BACKBONE|DICT|INTERRES
    71   34  159 1    
    72   35   36 2    
    73   35   37 1    
    74   37   38 1    
    75   37   39 1    
    76   37  160 1    
    77   38  161 1    
    78   38  162 1    
    79   38  163 1    
    80   39   40 am   BACKBONE|DICT|INTERRES
    81   39  164 1    
    82   40   41 2    
    83   40   42 1    
    84   42   43 1    
    85   42   44 1    
    86   42  165 1    
    87   43  166 1    
    88   43  167 1    
    89   43  168 1    
    90   44   45 am   BACKBONE|DICT|INTERRES
    91   44  169 1    
    92   45   46 2    
    93   45   47 1    
    94   47   48 1    
    95   47   49 1    
    96   47  170 1    
    97   48  171 1    
    98   48  172 1    
    99   48  173 1    
   100   49   50 am   BACKBONE|DICT|INTERRES
   101   49  174 1    
   102   50   51 2    
   103   50   52 1    
   104   52   53 1    
   105   52   54 1    
   106   52  175 1    
   107   53  176 1    
   108   53  177 1    
   109   53  178 1    
   110   54   55 am   BACKBONE|DICT|INTERRES
   111   54  179 1    
   112   55   56 2    
   113   55   57 1    
   114   57   58 1    
   115   57   59 1    
   116   57  180 1    
   117   58  181 1    
   118   58  182 1    
   119   58  183 1    
   120   59   60 am   BACKBONE|DICT|INTERRES
   121   59  184 1    
   122   60   61 2    
   123   60   62 1    
   124   62   63 1    
   125   62   64 1    
   126   62  185 1    
   127   63  186 1    
   128   63  187 1    
   129   63  188 1    
   130   64   65 am   BACKBONE|DICT|INTERRES
   131   64  189 1    
   132   65   66 2    
   133   67   68 2    
   134   67   69 am   BACKBONE|DICT|INTERRES
   135   69   70 1    
   136   69  190 1    
   137   70   71 1    
   138   70   72 1    
   139   70  191 1    
   140   71  192 1    
   141   71  193 1    
   142   71  194 1    
   143   72   73 2    
   144   72   74 am   BACKBONE|DICT|INTERRES
   145   74   75 1    
   146   74  195 1    
   147   75   76 1    
   148   75   77 1    
   149   75  196 1    
   150   76  197 1    
   151   76  198 1    
   152   76  199 1    
   153   77   78 2    
   154   77   79 am   BACKBONE|DICT|INTERRES
   155   79   80 1    
   156   79  200 1    
   157   80   81 1    
   158   80   82 1    
   159   80  201 1    
   160   81  202 1    
   161   81  203 1    
   162   81  204 1    
   163   82   83 2    
   164   82   84 am   BACKBONE|DICT|INTERRES
   165   84   85 1    
   166   84  205 1    
   167   85   86 1    
   168   85   87 1    
   169   85  206 1    
   170   86  207 1    
   171   86  208 1    
   172   86  209 1    
   173   87   88 2    
   174   87   89 am   BACKBONE|DICT|INTERRES
   175   89   90 1    
   176   89  210 1    
   177   90   91 1    
   178   90   92 1    
   179   90  211 1    
   180   91  212 1    
   181   91  213 1    
   182   91  214 1    
   183   92   93 2    
   184   92   94 am   BACKBONE|DICT|INTERRES
   185   94   95 1    
   186   94  215 1    
   187   95   96 1    
   188   95   97 1    
   189   95  216 1    
   190   96  217 1    
   191   96  218 1    
   192   96  219 1    
   193   97   98 2    
   194   97   99 am   BACKBONE|DICT|INTERRES
   195   99  100 1    
   196   99  220 1    
   197  100  101 1    
   198  100  102 1    
   199  100  221 1    
   200  101  222 1    
   201  101  223 1    
   202  101  224 1    
   203  102  103 2    
   204  102  104 am   BACKBONE|DICT|INTERRES
   205  104  105 1    
   206  104  225 1    
   207  105  106 1    
   208  105  107 1    
   209  105  226 1    
   210  106  227 1    
   211  106  228 1    
   212  106  229 1    
   213  107  108 2    
   214  107  109 am   BACKBONE|DICT|INTERRES
   215  109  110 1    
   216  109  230 1    
   217  110  111 1    
   218  110  112 1    
   219  110  231 1    
   220  111  232 1    
   221  111  233 1    
   222  111  234 1    
   223  112  113 2    
   224  112  114 am   BACKBONE|DICT|INTERRES
   225  114  115 1    
   226  114  235 1    
   227  115  116 1    
   228  115  117 1    
   229  115  236 1    
   230  116  237 1    
   231  116  238 1    
   232  116  239 1    
   233  117  118 2    
   234  117  119 am   BACKBONE|DICT|INTERRES
   235  119  120 1    
   236  119  240 1    
   237  120  121 1    
   238  120  124 1    
   239  120  241 1    
   240  121  122 am   BACKBONE|DICT|INTERRES
   241  121  123 2    
   242  122  242 1    
   243  122  243 1    
   244  124  125 1    
   245  124  244 1    
   246  124  245 1    
   247  125  126 1    
   248  126  246 1    
   249  126  247 1    
@<TRIPOS>SUBSTRUCTURE
     1 UNK         1 GROUP             0       ****    0 ROOT    
