@<TRIPOS>MOLECULE
3R540
247   249    1
SMALL
USER_CHARGES


@<TRIPOS>ATOM
      1 CA          3.9883  -17.6141  -46.4894 C.3       0 UNK        -0.1800 
      2 C           3.9101  -16.2966  -47.2433 C.2       0 UNK         0.5000 
      3 O           4.9163  -15.6006  -47.3791 O.2       0 UNK        -0.5000 
      4 N           2.7120  -15.9522  -47.7309 N.am      1 UNK        -0.5000 
      5 CA          2.3786  -14.7728  -48.5407 C.3       1 UNK         0.1400 
      6 C6          3.2153  -14.6754  -49.8461 C.3       23 UNK        -0.0398 
      7 S7          2.3059  -13.8537  -51.1968 S.3       23 UNK        -0.2404 
      8 C8          1.8266  -15.2743  -52.2326 C.3       23 UNK        -0.0205 
      9 C9          0.9130  -16.2470  -51.4995 C.ar      23 UNK        -0.0193 
     10 C10        -0.3888  -15.8660  -51.1632 C.ar      23 UNK        -0.1150 
     11 C11        -1.2438  -16.7589  -50.5123 C.ar      23 UNK        -0.0193 
     12 C12        -0.7906  -18.0435  -50.2066 C.ar      23 UNK        -0.1150 
     13 C13         0.5090  -18.4381  -50.5337 C.ar      23 UNK        -0.0193 
     14 C14         1.3591  -17.5327  -51.1756 C.ar      23 UNK        -0.1150 
     15 C15         0.9737  -19.8581  -50.2451 C.3       23 UNK        -0.0205 
     16 S16         1.9135  -20.0123  -48.6895 S.3       23 UNK        -0.2404 
     17 C17         0.6907  -19.6306  -47.3888 C.3       23 UNK        -0.0398 
     18 CA         -0.1818  -20.8441  -46.9724 C.3       11 UNK         0.1400 
     19 N          -0.5115  -20.8362  -45.5437 N.am      11 UNK        -0.5000 
     20 C          -1.1891  -21.8030  -44.9050 C.2       10 UNK         0.5000 
     21 O          -1.5334  -22.8625  -45.4288 O.2       10 UNK        -0.5000 
     22 CA         -1.6161  -21.4994  -43.4595 C.3       10 UNK         0.1400 
     23 CB         -0.4961  -21.8458  -42.4670 C.3       10 UNK        -0.1800 
     24 N          -2.0049  -20.0955  -43.3099 N.am      10 UNK        -0.5000 
     25 C          -3.1539  -19.5846  -43.7775 C.2       9 UNK         0.5000 
     26 O          -4.0328  -20.2646  -44.3074 O.2       9 UNK        -0.5000 
     27 CA         -3.3349  -18.0567  -43.6722 C.3       9 UNK         0.1400 
     28 CB         -3.9091  -17.6740  -42.3002 C.3       9 UNK        -0.1800 
     29 N          -2.0910  -17.3166  -43.8981 N.am      9 UNK        -0.5000 
     30 C          -1.4399  -17.2659  -45.0689 C.2       8 UNK         0.5000 
     31 O          -1.8589  -17.7832  -46.1013 O.2       8 UNK        -0.5000 
     32 CA         -0.0627  -16.5747  -45.0889 C.3       8 UNK         0.1400 
     33 CB         -0.2025  -15.1225  -45.5584 C.3       8 UNK        -0.1800 
     34 N           0.6529  -16.6198  -43.8092 N.am      8 UNK        -0.5000 
     35 C           0.9923  -17.7473  -43.1660 C.2       7 UNK         0.5000 
     36 O           0.7439  -18.8710  -43.6082 O.2       7 UNK        -0.5000 
     37 CA          1.6821  -17.5785  -41.7974 C.3       7 UNK         0.1400 
     38 CB          2.1397  -18.9145  -41.1760 C.3       7 UNK        -0.1800 
     39 N           2.7757  -16.6063  -41.8414 N.am      7 UNK        -0.5000 
     40 C           3.9143  -16.6873  -42.5453 C.2       6 UNK         0.5000 
     41 O           4.2382  -17.6693  -43.2120 O.2       6 UNK        -0.5000 
     42 CA          4.8530  -15.4656  -42.5092 C.3       6 UNK         0.1400 
     43 CB          5.0924  -14.9249  -43.9245 C.3       6 UNK        -0.1800 
     44 N           4.3214  -14.3787  -41.6848 N.am      6 UNK        -0.5000 
     45 C           4.7005  -14.1161  -40.4271 C.2       5 UNK         0.5000 
     46 O           5.5830  -14.7354  -39.8321 O.2       5 UNK        -0.5000 
     47 CA          3.9471  -12.9864  -39.6972 C.3       5 UNK         0.1400 
     48 CB          4.6336  -11.6350  -39.9470 C.3       5 UNK        -0.1800 
     49 N           2.5386  -12.8836  -40.0842 N.am      5 UNK        -0.5000 
     50 C           1.6097  -13.8306  -39.8888 C.2       4 UNK         0.5000 
     51 O           1.8311  -14.8994  -39.3208 O.2       4 UNK        -0.5000 
     52 CA          0.2088  -13.5668  -40.4735 C.3       4 UNK         0.1400 
     53 CB         -0.7233  -12.9893  -39.3984 C.3       4 UNK        -0.1800 
     54 N           0.2126  -12.6735  -41.6355 N.am      4 UNK        -0.5000 
     55 C           0.8201  -12.9247  -42.8029 C.2       3 UNK         0.5000 
     56 O           1.4428  -13.9674  -43.0235 O.2       3 UNK        -0.5000 
     57 CA          0.6760  -11.8436  -43.8976 C.3       3 UNK         0.1400 
     58 CB          0.7067  -10.4076  -43.3278 C.3       3 UNK        -0.1800 
     59 N           1.6467  -11.9676  -44.9893 N.am      3 UNK        -0.5000 
     60 C           2.9824  -11.8989  -44.9152 C.2       2 UNK         0.5000 
     61 O           3.6095  -11.7900  -43.8591 O.2       2 UNK        -0.5000 
     62 CA          3.7271  -11.9394  -46.2679 C.3       2 UNK         0.1400 
     63 CB          5.2464  -11.7361  -46.1328 C.3       2 UNK        -0.1800 
     64 N           3.4804  -13.1703  -47.0219 N.am      2 UNK        -0.5000 
     65 C           2.3894  -13.4465  -47.7463 C.2       1 UNK         0.5000 
     66 O           1.4057  -12.7057  -47.7880 O.2       1 UNK        -0.5000 
     67 C          -1.4568  -20.9453  -47.8336 C.2       11 UNK         0.5000 
     68 O          -1.5285  -21.8092  -48.7026 O.2       11 UNK        -0.5000 
     69 N          -2.4582  -20.1020  -47.5414 N.am      12 UNK        -0.5000 
     70 CA         -3.7598  -20.0688  -48.2110 C.3       12 UNK         0.1400 
     71 CB         -4.5997  -18.9097  -47.6552 C.3       12 UNK        -0.1800 
     72 C          -4.5448  -21.3857  -48.0990 C.2       12 UNK         0.5000 
     73 O          -5.2352  -21.7482  -49.0486 O.2       12 UNK        -0.5000 
     74 N          -4.4189  -22.0848  -46.9639 N.am      13 UNK        -0.5000 
     75 CA         -5.0139  -23.4033  -46.7483 C.3       13 UNK         0.1400 
     76 CB         -5.0205  -23.7194  -45.2451 C.3       13 UNK        -0.1800 
     77 C          -4.2923  -24.5109  -47.5402 C.2       13 UNK         0.5000 
     78 O          -4.9494  -25.4107  -48.0628 O.2       13 UNK        -0.5000 
     79 N          -2.9578  -24.4275  -47.6157 N.am      14 UNK        -0.5000 
     80 CA         -2.1038  -25.3887  -48.3157 C.3       14 UNK         0.1400 
     81 CB         -0.6769  -25.2725  -47.7581 C.3       14 UNK        -0.1800 
     82 C          -2.0900  -25.2088  -49.8465 C.2       14 UNK         0.5000 
     83 O          -1.8021  -26.1740  -50.5559 O.2       14 UNK        -0.5000 
     84 N          -2.3603  -23.9799  -50.3112 N.am      15 UNK        -0.5000 
     85 CA         -2.2346  -23.4736  -51.6801 C.3       15 UNK         0.1400 
     86 CB         -2.9511  -22.1177  -51.7761 C.3       15 UNK        -0.1800 
     87 C          -2.7362  -24.4367  -52.7721 C.2       15 UNK         0.5000 
     88 O          -3.9400  -24.6919  -52.8648 O.2       15 UNK        -0.5000 
     89 N          -1.7856  -24.9783  -53.5486 N.am      16 UNK        -0.5000 
     90 CA         -1.9583  -25.9164  -54.6677 C.3       16 UNK         0.1400 
     91 CB         -2.6913  -25.2155  -55.8312 C.3       16 UNK        -0.1800 
     92 C          -2.6318  -27.2576  -54.2942 C.2       16 UNK         0.5000 
     93 O          -3.0803  -27.9745  -55.1896 O.2       16 UNK        -0.5000 
     94 N          -2.7315  -27.5546  -52.9878 N.am      17 UNK        -0.5000 
     95 CA         -3.5207  -28.6265  -52.3662 C.3       17 UNK         0.1400 
     96 CB         -2.9856  -30.0163  -52.7687 C.3       17 UNK        -0.1800 
     97 C          -5.0464  -28.4904  -52.5921 C.2       17 UNK         0.5000 
     98 O          -5.7862  -29.4386  -52.3239 O.2       17 UNK        -0.5000 
     99 N          -5.4910  -27.3205  -53.0693 N.am      18 UNK        -0.5000 
    100 CA        -6.8819  -26.9948  -53.3840 C.3       18 UNK         0.1400 
    101 CB        -6.9393  -26.4617  -54.8248 C.3       18 UNK        -0.1800 
    102 C         -7.4561  -25.9492  -52.4131 C.2       18 UNK         0.5000 
    103 O         -8.6736  -25.9104  -52.2312 O.2       18 UNK        -0.5000 
    104 N         -6.5674  -25.1408  -51.8170 N.am      19 UNK        -0.5000 
    105 CA        -6.7971  -23.9747  -50.9646 C.3       19 UNK         0.1400 
    106 CB        -7.7476  -24.2763  -49.7891 C.3       19 UNK        -0.1800 
    107 C         -7.2555  -22.7407  -51.7654 C.2       19 UNK         0.5000 
    108 O         -7.9040  -22.8611  -52.8065 O.2       19 UNK        -0.5000 
    109 N         -6.8851  -21.5628  -51.2488 N.am      20 UNK        -0.5000 
    110 CA        -7.1801  -20.2111  -51.7414 C.3       20 UNK         0.1400 
    111 CB        -8.6985  -19.9420  -51.7313 C.3       20 UNK        -0.1800 
    112 C         -6.5361  -19.8510  -53.0985 C.2       20 UNK         0.5000 
    113 O         -6.8127  -18.7740  -53.6300 O.2       20 UNK        -0.5000 
    114 N         -5.6572  -20.7137  -53.6264 N.am      21 UNK        -0.5000 
    115 CA        -4.9138  -20.5282  -54.8753 C.3       21 UNK         0.1400 
    116 CB        -4.5303  -21.9114  -55.4336 C.3       21 UNK        -0.1800 
    117 C         -3.6986  -19.5913  -54.6887 C.2       21 UNK         0.5000 
    118 O         -2.5667  -19.9654  -54.9988 O.2       21 UNK        -0.5000 
    119 N         -3.9615  -18.3931  -54.1576 N.am      22 UNK        -0.5000 
    120 CA        -2.9765  -17.3434  -53.8491 C.3       22 UNK         0.1400 
    121 C         -2.4130  -16.5917  -55.0920 C.2       22 UNK         0.5000 
    122 N         -2.9657  -16.7630  -56.2870 N.am      22 UNK        -0.7600 
    123 O         -1.4509  -15.8388  -54.9706 O.2       22 UNK        -0.5000 
    124 C124       -3.5474  -16.3390  -52.8151 C.3       23 UNK        -0.0398 
    125 S125       -3.9110  -17.1210  -51.2035 S.3       23 UNK        -0.2404 
    126 C126       -2.6564  -16.3407  -50.1365 C.3       23 UNK        -0.0205 
    127 H127        3.1197  -17.7511  -45.8451 H         1 UNK         0.0600 
    128 H128        4.8797  -17.6450  -45.8635 H         1 UNK         0.0600 
    129 H129        4.0409  -18.4471  -47.1894 H         1 UNK         0.0600 
    130 H130        1.9396  -16.5837  -47.5838 H         1 UNK         0.3000 
    131 H131        1.3390  -14.9449  -48.8249 H         1 UNK         0.0600 
    132 H132        4.1567  -14.1488  -49.6797 H         1 UNK         0.0800 
    133 H133        3.5017  -15.6718  -50.1847 H         1 UNK         0.0800 
    134 H134        1.3105  -14.9056  -53.1203 H         1 UNK         0.0800 
    135 H135        2.7256  -15.7782  -52.5909 H         1 UNK         0.0800 
    136 H136       -0.7328  -14.8717  -51.4115 H         1 UNK         0.1150 
    137 H137       -1.4609  -18.7390  -49.7261 H         1 UNK         0.1150 
    138 H138        2.3624  -17.8376  -51.4379 H         1 UNK         0.1150 
    139 H139        0.1273  -20.5436  -50.2437 H         1 UNK         0.0800 
    140 H140        1.6140  -20.1942  -51.0620 H         1 UNK         0.0800 
    141 H141        0.0948  -18.7628  -47.6716 H         1 UNK         0.0800 
    142 H142        1.2801  -19.3057  -46.5308 H         1 UNK         0.0800 
    143 H143        0.3950  -21.7566  -47.1385 H         1 UNK         0.0600 
    144 H144       -0.2280  -20.0237  -45.0075 H         1 UNK         0.3000 
    145 H145       -2.4794  -22.1260  -43.2246 H         1 UNK         0.0600 
    146 H146       -0.7918  -21.6200  -41.4424 H         1 UNK         0.0600 
    147 H147       -0.2584  -22.9093  -42.5100 H         1 UNK         0.0600 
    148 H148        0.4229  -21.3001  -42.6800 H         1 UNK         0.0600 
    149 H149       -1.2968  -19.4689  -42.9529 H         1 UNK         0.3000 
    150 H150       -4.0522  -17.7550  -44.4386 H         1 UNK         0.0600 
    151 H151       -4.8490  -18.1947  -42.1120 H         1 UNK         0.0600 
    152 H152       -4.1144  -16.6049  -42.2429 H         1 UNK         0.0600 
    153 H153       -3.2246  -17.9291  -41.4902 H         1 UNK         0.0600 
    154 H154       -1.6814  -16.8552  -43.1000 H         1 UNK         0.3000 
    155 H155        0.5536  -17.1014  -45.8174 H         1 UNK         0.0600 
    156 H156        0.7709  -14.6380  -45.6138 H         1 UNK         0.0600 
    157 H157       -0.8316  -14.5414  -44.8838 H         1 UNK         0.0600 
    158 H158       -0.6490  -15.0713  -46.5524 H         1 UNK         0.0600 
    159 H159        0.9347  -15.7233  -43.4182 H         1 UNK         0.3000 
    160 H160        0.9302  -17.1536  -41.1312 H         1 UNK         0.0600 
    161 H161        2.8371  -19.4487  -41.8218 H         1 UNK         0.0600 
    162 H162        1.2885  -19.5734  -41.0025 H         1 UNK         0.0600 
    163 H163        2.6267  -18.7551  -40.2140 H         1 UNK         0.0600 
    164 H164        2.6251  -15.7609  -41.3083 H         1 UNK         0.3000 
    165 H165        5.8119  -15.8062  -42.1139 H         1 UNK         0.0600 
    166 H166        4.1578  -14.6423  -44.4101 H         1 UNK         0.0600 
    167 H167        5.7412  -14.0506  -43.8963 H         1 UNK         0.0600 
    168 H168        5.5818  -15.6689  -44.5531 H         1 UNK         0.0600 
    169 H169        3.5885  -13.8194  -42.1057 H         1 UNK         0.3000 
    170 H170        3.9858  -13.1998  -38.6269 H         1 UNK         0.0600 
    171 H171        5.6827  -11.6688  -39.6504 H         1 UNK         0.0600 
    172 H172        4.5991  -11.3561  -41.0014 H         1 UNK         0.0600 
    173 H173        4.1599  -10.8388  -39.3726 H         1 UNK         0.0600 
    174 H174        2.2670  -12.0451  -40.5759 H         1 UNK         0.3000 
    175 H175       -0.1957  -14.5286  -40.7958 H         1 UNK         0.0600 
    176 H176       -0.3847  -12.0108  -39.0553 H         1 UNK         0.0600 
    177 H177       -1.7407  -12.8807  -39.7745 H         1 UNK         0.0600 
    178 H178       -0.7692  -13.6447  -38.5275 H         1 UNK         0.0600 
    179 H179       -0.2875  -11.8027  -41.5295 H         1 UNK         0.3000 
    180 H180       -0.3031  -12.0018  -44.3513 H         1 UNK         0.0600 
    181 H181        1.6138  -10.2194  -42.7520 H         1 UNK         0.0600 
    182 H182       -0.1460  -10.2130  -42.6769 H         1 UNK         0.0600 
    183 H183        0.6643   -9.6683  -44.1279 H         1 UNK         0.0600 
    184 H184        1.2544  -12.1162  -45.9142 H         1 UNK         0.3000 
    185 H185        3.3468  -11.0988  -46.8522 H         1 UNK         0.0600 
    186 H186        5.7151  -11.6332  -47.1116 H         1 UNK         0.0600 
    187 H187        5.4750  -10.8306  -45.5693 H         1 UNK         0.0600 
    188 H188        5.7244  -12.5717  -45.6245 H         1 UNK         0.0600 
    189 H189        4.2176  -13.8703  -47.0115 H         1 UNK         0.3000 
    190 H190       -2.2975  -19.3763  -46.8458 H         1 UNK         0.3000 
    191 H191       -3.5798  -19.8815  -49.2713 H         1 UNK         0.0600 
    192 H192       -5.5389  -18.8131  -48.2013 H         1 UNK         0.0600 
    193 H193       -4.0768  -17.9591  -47.7407 H         1 UNK         0.0600 
    194 H194       -4.8449  -19.0580  -46.6036 H         1 UNK         0.0600 
    195 H195       -3.8619  -21.6998  -46.2125 H         1 UNK         0.3000 
    196 H196       -6.0509  -23.3721  -47.0891 H         1 UNK         0.0600 
    197 H197       -5.5023  -24.6784  -45.0510 H         1 UNK         0.0600 
    198 H198       -5.5675  -22.9603  -44.6855 H         1 UNK         0.0600 
    199 H199       -4.0109  -23.7713  -44.8372 H         1 UNK         0.0600 
    200 H200       -2.4868  -23.6748  -47.1254 H         1 UNK         0.3000 
    201 H201       -2.4686  -26.3964  -48.1062 H         1 UNK         0.0600 
    202 H202       -0.6561  -25.4655  -46.6853 H         1 UNK         0.0600 
    203 H203       -0.2605  -24.2783  -47.9261 H         1 UNK         0.0600 
    204 H204       -0.0100  -25.9939  -48.2320 H         1 UNK         0.0600 
    205 H205       -2.4815  -23.2588  -49.6077 H         1 UNK         0.3000 
    206 H206       -1.1710  -23.2916  -51.8440 H         1 UNK         0.0600 
    207 H207       -2.5285  -21.3903  -51.0842 H         1 UNK         0.0600 
    208 H208       -2.8475  -21.6957  -52.7742 H         1 UNK         0.0600 
    209 H209       -4.0143  -22.2086  -51.5572 H         1 UNK         0.0600 
    210 H210       -0.8248  -24.7361  -53.3497 H         1 UNK         0.3000 
    211 H211       -0.9545  -26.1695  -55.0112 H         1 UNK         0.0600 
    212 H212       -3.7324  -25.0047  -55.5845 H         1 UNK         0.0600 
    213 H213       -2.6885  -25.8345  -56.7291 H         1 UNK         0.0600 
    214 H214       -2.2110  -24.2719  -56.0901 H         1 UNK         0.0600 
    215 H215       -2.3183  -26.9059  -52.3229 H         1 UNK         0.3000 
    216 H216       -3.3700  -28.5170  -51.2914 H         1 UNK         0.0600 
    217 H217       -1.9106  -30.0879  -52.6033 H         1 UNK         0.0600 
    218 H218       -3.1806  -30.2400  -53.8176 H         1 UNK         0.0600 
    219 H219       -3.4560  -30.8023  -52.1769 H         1 UNK         0.0600 
    220 H220       -4.8114  -26.5869  -53.2314 H         1 UNK         0.3000 
    221 H221       -7.5092  -27.8863  -53.3218 H         1 UNK         0.0600 
    222 H222       -6.3416  -25.5564  -54.9423 H         1 UNK         0.0600 
    223 H223       -6.5678  -27.2021  -55.5335 H         1 UNK         0.0600 
    224 H224       -7.9633  -26.2194  -55.1119 H         1 UNK         0.0600 
    225 H225       -5.5999  -25.2304  -52.1114 H         1 UNK         0.3000 
    226 H226       -5.8144  -23.7546  -50.5467 H         1 UNK         0.0600 
    227 H227       -7.4533  -25.1848  -49.2641 H         1 UNK         0.0600 
    228 H228       -7.7306  -23.4621  -49.0639 H         1 UNK         0.0600 
    229 H229       -8.7807  -24.3935  -50.1163 H         1 UNK         0.0600 
    230 H230       -6.3190  -21.5902  -50.3988 H         1 UNK         0.3000 
    231 H231       -6.7256  -19.5341  -51.0164 H         1 UNK         0.0600 
    232 H232       -8.9126  -18.8937  -51.9426 H         1 UNK         0.0600 
    233 H233       -9.1327  -20.1697  -50.7578 H         1 UNK         0.0600 
    234 H234       -9.2212  -20.5374  -52.4803 H         1 UNK         0.0600 
    235 H235       -5.4812  -21.5697  -53.1232 H         1 UNK         0.3000 
    236 H236       -5.5722  -20.0538  -55.6059 H         1 UNK         0.0600 
    237 H237       -3.8585  -22.4486  -54.7656 H         1 UNK         0.0600 
    238 H238       -5.4125  -22.5334  -55.5868 H         1 UNK         0.0600 
    239 H239       -4.0283  -21.8195  -56.3975 H         1 UNK         0.0600 
    240 H240       -4.9268  -18.1873  -53.9225 H         1 UNK         0.3000 
    241 H241       -2.1143  -17.8320  -53.3903 H         1 UNK         0.0600 
    242 H242       -3.7560  -17.3760  -56.4041 H         1 UNK         0.3800 
    243 H243       -2.5883  -16.2728  -57.0830 H         1 UNK         0.3800 
    244 H244       -2.8589  -15.5076  -52.6584 H         1 UNK         0.0800 
    245 H245       -4.4678  -15.8914  -53.1932 H         1 UNK         0.0800 
    246 H246       -2.8417  -16.6179  -49.0992 H         1 UNK         0.0800 
    247 H247       -2.7660  -15.2560  -50.1812 H         1 UNK         0.0800 
@<TRIPOS>BOND
     1    1    2 1    
     2    1  127 1    
     3    1  128 1    
     4    1  129 1    
     5    2    3 2    
     6    2    4 am   BACKBONE|DICT|INTERRES
     7    4    5 1    
     8    4  130 1    
     9    5    6 1    
    10    5   65 1    
    11    5  131 1    
    12    6    7 1    
    13    6  132 1    
    14    6  133 1    
    15    7    8 1    
    16    8    9 1    
    17    8  134 1    
    18    8  135 1    
    19    9   10 ar   
    20    9   14 ar   
    21   10   11 ar   
    22   10  136 1    
    23   11   12 ar   
    24   11  126 1    
    25   12   13 ar   
    26   12  137 1    
    27   13   14 ar   
    28   13   15 1    
    29   14  138 1    
    30   15   16 1    
    31   15  139 1    
    32   15  140 1    
    33   16   17 1    
    34   17   18 1    
    35   17  141 1    
    36   17  142 1    
    37   18   19 1    
    38   18   67 1    
    39   18  143 1    
    40   19   20 am   BACKBONE|DICT|INTERRES
    41   19  144 1    
    42   20   21 2    
    43   20   22 1    
    44   22   23 1    
    45   22   24 1    
    46   22  145 1    
    47   23  146 1    
    48   23  147 1    
    49   23  148 1    
    50   24   25 am   BACKBONE|DICT|INTERRES
    51   24  149 1    
    52   25   26 2    
    53   25   27 1    
    54   27   28 1    
    55   27   29 1    
    56   27  150 1    
    57   28  151 1    
    58   28  152 1    
    59   28  153 1    
    60   29   30 am   BACKBONE|DICT|INTERRES
    61   29  154 1    
    62   30   31 2    
    63   30   32 1    
    64   32   33 1    
    65   32   34 1    
    66   32  155 1    
    67   33  156 1    
    68   33  157 1    
    69   33  158 1    
    70   34   35 am   BACKBONE|DICT|INTERRES
    71   34  159 1    
    72   35   36 2    
    73   35   37 1    
    74   37   38 1    
    75   37   39 1    
    76   37  160 1    
    77   38  161 1    
    78   38  162 1    
    79   38  163 1    
    80   39   40 am   BACKBONE|DICT|INTERRES
    81   39  164 1    
    82   40   41 2    
    83   40   42 1    
    84   42   43 1    
    85   42   44 1    
    86   42  165 1    
    87   43  166 1    
    88   43  167 1    
    89   43  168 1    
    90   44   45 am   BACKBONE|DICT|INTERRES
    91   44  169 1    
    92   45   46 2    
    93   45   47 1    
    94   47   48 1    
    95   47   49 1    
    96   47  170 1    
    97   48  171 1    
    98   48  172 1    
    99   48  173 1    
   100   49   50 am   BACKBONE|DICT|INTERRES
   101   49  174 1    
   102   50   51 2    
   103   50   52 1    
   104   52   53 1    
   105   52   54 1    
   106   52  175 1    
   107   53  176 1    
   108   53  177 1    
   109   53  178 1    
   110   54   55 am   BACKBONE|DICT|INTERRES
   111   54  179 1    
   112   55   56 2    
   113   55   57 1    
   114   57   58 1    
   115   57   59 1    
   116   57  180 1    
   117   58  181 1    
   118   58  182 1    
   119   58  183 1    
   120   59   60 am   BACKBONE|DICT|INTERRES
   121   59  184 1    
   122   60   61 2    
   123   60   62 1    
   124   62   63 1    
   125   62   64 1    
   126   62  185 1    
   127   63  186 1    
   128   63  187 1    
   129   63  188 1    
   130   64   65 am   BACKBONE|DICT|INTERRES
   131   64  189 1    
   132   65   66 2    
   133   67   68 2    
   134   67   69 am   BACKBONE|DICT|INTERRES
   135   69   70 1    
   136   69  190 1    
   137   70   71 1    
   138   70   72 1    
   139   70  191 1    
   140   71  192 1    
   141   71  193 1    
   142   71  194 1    
   143   72   73 2    
   144   72   74 am   BACKBONE|DICT|INTERRES
   145   74   75 1    
   146   74  195 1    
   147   75   76 1    
   148   75   77 1    
   149   75  196 1    
   150   76  197 1    
   151   76  198 1    
   152   76  199 1    
   153   77   78 2    
   154   77   79 am   BACKBONE|DICT|INTERRES
   155   79   80 1    
   156   79  200 1    
   157   80   81 1    
   158   80   82 1    
   159   80  201 1    
   160   81  202 1    
   161   81  203 1    
   162   81  204 1    
   163   82   83 2    
   164   82   84 am   BACKBONE|DICT|INTERRES
   165   84   85 1    
   166   84  205 1    
   167   85   86 1    
   168   85   87 1    
   169   85  206 1    
   170   86  207 1    
   171   86  208 1    
   172   86  209 1    
   173   87   88 2    
   174   87   89 am   BACKBONE|DICT|INTERRES
   175   89   90 1    
   176   89  210 1    
   177   90   91 1    
   178   90   92 1    
   179   90  211 1    
   180   91  212 1    
   181   91  213 1    
   182   91  214 1    
   183   92   93 2    
   184   92   94 am   BACKBONE|DICT|INTERRES
   185   94   95 1    
   186   94  215 1    
   187   95   96 1    
   188   95   97 1    
   189   95  216 1    
   190   96  217 1    
   191   96  218 1    
   192   96  219 1    
   193   97   98 2    
   194   97   99 am   BACKBONE|DICT|INTERRES
   195   99  100 1    
   196   99  220 1    
   197  100  101 1    
   198  100  102 1    
   199  100  221 1    
   200  101  222 1    
   201  101  223 1    
   202  101  224 1    
   203  102  103 2    
   204  102  104 am   BACKBONE|DICT|INTERRES
   205  104  105 1    
   206  104  225 1    
   207  105  106 1    
   208  105  107 1    
   209  105  226 1    
   210  106  227 1    
   211  106  228 1    
   212  106  229 1    
   213  107  108 2    
   214  107  109 am   BACKBONE|DICT|INTERRES
   215  109  110 1    
   216  109  230 1    
   217  110  111 1    
   218  110  112 1    
   219  110  231 1    
   220  111  232 1    
   221  111  233 1    
   222  111  234 1    
   223  112  113 2    
   224  112  114 am   BACKBONE|DICT|INTERRES
   225  114  115 1    
   226  114  235 1    
   227  115  116 1    
   228  115  117 1    
   229  115  236 1    
   230  116  237 1    
   231  116  238 1    
   232  116  239 1    
   233  117  118 2    
   234  117  119 am   BACKBONE|DICT|INTERRES
   235  119  120 1    
   236  119  240 1    
   237  120  121 1    
   238  120  124 1    
   239  120  241 1    
   240  121  122 am   BACKBONE|DICT|INTERRES
   241  121  123 2    
   242  122  242 1    
   243  122  243 1    
   244  124  125 1    
   245  124  244 1    
   246  124  245 1    
   247  125  126 1    
   248  126  246 1    
   249  126  247 1    
@<TRIPOS>SUBSTRUCTURE
     1 UNK         1 GROUP             0       ****    0 ROOT    
