@<TRIPOS>MOLECULE
3R540
247   249    1
SMALL
USER_CHARGES


@<TRIPOS>ATOM
      1 CA         -1.0338  -14.4695  -47.2966 C.3       0 UNK        -0.1800 
      2 C           0.2429  -13.6959  -47.5925 C.2       0 UNK         0.5000 
      3 O           0.5392  -12.7191  -46.9064 O.2       0 UNK        -0.5000 
      4 N           1.0029  -14.1390  -48.6030 N.am      1 UNK        -0.5000 
      5 CA          2.2426  -13.5174  -49.0881 C.3       1 UNK         0.1400 
      6 C6          2.7840  -14.2183  -50.3586 C.3       23 UNK        -0.0398 
      7 S7          1.6613  -14.0450  -51.7855 S.3       23 UNK        -0.2404 
      8 C8          2.4867  -15.0915  -53.0286 C.3       23 UNK        -0.0205 
      9 C9          2.1546  -16.5663  -52.8489 C.ar      23 UNK        -0.0193 
     10 C10         1.0207  -17.1101  -53.4622 C.ar      23 UNK        -0.1150 
     11 C11         0.6989  -18.4604  -53.2951 C.ar      23 UNK        -0.0193 
     12 C12         1.5320  -19.2680  -52.5152 C.ar      23 UNK        -0.1150 
     13 C13         2.6779  -18.7440  -51.9107 C.ar      23 UNK        -0.0193 
     14 C14         2.9829  -17.3906  -52.0811 C.ar      23 UNK        -0.1150 
     15 C15         3.6115  -19.6480  -51.1141 C.3       23 UNK        -0.0205 
     16 S16         2.7652  -20.5840  -49.7989 S.3       23 UNK        -0.2404 
     17 C17         2.4434  -19.2822  -48.5648 C.3       23 UNK        -0.0398 
     18 CA          1.1449  -19.5578  -47.7586 C.3       11 UNK         0.1400 
     19 N           1.1111  -18.9232  -46.4483 N.am      11 UNK        -0.5000 
     20 C           1.3327  -17.6414  -46.1387 C.2       10 UNK         0.5000 
     21 O           1.5809  -16.7628  -46.9666 O.2       10 UNK        -0.5000 
     22 CA          1.2904  -17.2881  -44.6381 C.3       10 UNK         0.1400 
     23 CB         -0.0348  -16.6036  -44.2814 C.3       10 UNK        -0.1800 
     24 N           1.4770  -18.4551  -43.7722 N.am      10 UNK        -0.5000 
     25 C           2.6218  -19.1431  -43.6365 C.2       9 UNK         0.5000 
     26 O           3.6827  -18.8193  -44.1680 O.2       9 UNK        -0.5000 
     27 CA          2.5590  -20.4311  -42.7970 C.3       9 UNK         0.1400 
     28 CB          2.8011  -20.1352  -41.3098 C.3       9 UNK        -0.1800 
     29 N           1.2811  -21.1265  -42.9590 N.am      9 UNK        -0.5000 
     30 C           0.9394  -21.8351  -44.0451 C.2       8 UNK         0.5000 
     31 O           1.6853  -22.0150  -45.0072 O.2       8 UNK        -0.5000 
     32 CA         -0.4875  -22.4127  -44.0761 C.3       8 UNK         0.1400 
     33 CB         -0.5315  -23.7893  -43.3967 C.3       8 UNK        -0.1800 
     34 N          -1.4655  -21.5289  -43.4413 N.am      8 UNK        -0.5000 
     35 C          -1.8584  -20.3529  -43.9485 C.2       7 UNK         0.5000 
     36 O          -1.4591  -19.9007  -45.0213 O.2       7 UNK        -0.5000 
     37 CA         -2.8365  -19.5292  -43.0917 C.3       7 UNK         0.1400 
     38 CB         -4.2861  -19.9426  -43.3866 C.3       7 UNK        -0.1800 
     39 N          -2.5856  -19.6129  -41.6500 N.am      7 UNK        -0.5000 
     40 C          -1.4646  -19.1901  -41.0516 C.2       6 UNK         0.5000 
     41 O          -0.4731  -18.7845  -41.6621 O.2       6 UNK        -0.5000 
     42 CA         -1.4274  -19.2636  -39.5192 C.3       6 UNK         0.1400 
     43 CB         -0.5906  -20.4662  -39.0565 C.3       6 UNK        -0.1800 
     44 N          -0.8415  -18.0342  -38.9892 N.am      6 UNK        -0.5000 
     45 C          -1.5460  -16.9582  -38.6142 C.2       5 UNK         0.5000 
     46 O          -2.7771  -16.9183  -38.5964 O.2       5 UNK        -0.5000 
     47 CA         -0.7443  -15.7127  -38.1862 C.3       5 UNK         0.1400 
     48 CB         -0.4509  -15.7541  -36.6785 C.3       5 UNK        -0.1800 
     49 N           0.5160  -15.5536  -38.9167 N.am      5 UNK        -0.5000 
     50 C           0.6010  -15.2005  -40.2060 C.2       4 UNK         0.5000 
     51 O          -0.3805  -14.9588  -40.9130 O.2       4 UNK        -0.5000 
     52 CA          2.0246  -15.1350  -40.7955 C.3       4 UNK         0.1400 
     53 CB          2.5998  -16.5483  -40.9570 C.3       4 UNK        -0.1800 
     54 N           2.0466  -14.4678  -42.0983 N.am      4 UNK        -0.5000 
     55 C           1.9843  -13.1419  -42.2709 C.2       3 UNK         0.5000 
     56 O           1.9726  -12.3404  -41.3339 O.2       3 UNK        -0.5000 
     57 CA          1.9112  -12.6269  -43.7271 C.3       3 UNK         0.1400 
     58 CB          2.3724  -11.1606  -43.8601 C.3       3 UNK        -0.1800 
     59 N           2.5979  -13.4566  -44.7275 N.am      3 UNK        -0.5000 
     60 C           3.8968  -13.7978  -44.7598 C.2       2 UNK         0.5000 
     61 O           4.6875  -13.5703  -43.8441 O.2       2 UNK        -0.5000 
     62 CA          4.4177  -14.4797  -46.0436 C.3       2 UNK         0.1400 
     63 CB          4.8628  -15.9276  -45.7905 C.3       2 UNK        -0.1800 
     64 N           3.4486  -14.4504  -47.1451 N.am      2 UNK        -0.5000 
     65 C           3.3513  -13.4355  -48.0170 C.2       1 UNK         0.5000 
     66 O           4.0893  -12.4492  -47.9974 O.2       1 UNK        -0.5000 
     67 C          -0.1554  -19.2732  -48.5248 C.2       11 UNK         0.5000 
     68 O          -1.0463  -20.1227  -48.5291 O.2       11 UNK        -0.5000 
     69 N          -0.2660  -18.0847  -49.1338 N.am      12 UNK        -0.5000 
     70 CA         -1.3501  -17.7103  -50.0497 C.3       12 UNK         0.1400 
     71 CB         -1.0564  -16.3344  -50.6566 C.3       12 UNK        -0.1800 
     72 C          -2.7571  -17.7252  -49.4275 C.2       12 UNK         0.5000 
     73 O          -3.7288  -17.9237  -50.1503 O.2       12 UNK        -0.5000 
     74 N          -2.8517  -17.5611  -48.1024 N.am      13 UNK        -0.5000 
     75 CA         -4.1077  -17.6531  -47.3562 C.3       13 UNK         0.1400 
     76 CB         -3.8647  -17.1775  -45.9191 C.3       13 UNK        -0.1800 
     77 C          -4.7335  -19.0647  -47.3849 C.2       13 UNK         0.5000 
     78 O          -5.9546  -19.1818  -47.2839 O.2       13 UNK        -0.5000 
     79 N          -3.8962  -20.0977  -47.5487 N.am      14 UNK        -0.5000 
     80 CA         -4.3082  -21.4808  -47.7760 C.3       14 UNK         0.1400 
     81 CB         -3.4297  -22.4035  -46.9159 C.3       14 UNK        -0.1800 
     82 C          -4.1829  -21.8581  -49.2636 C.2       14 UNK         0.5000 
     83 O          -5.0561  -22.5422  -49.8006 O.2       14 UNK        -0.5000 
     84 N          -3.0891  -21.4238  -49.9002 N.am      15 UNK        -0.5000 
     85 CA         -2.6615  -21.8738  -51.2216 C.3       15 UNK         0.1400 
     86 CB         -1.1283  -21.8292  -51.2841 C.3       15 UNK        -0.1800 
     87 C          -3.3053  -21.1378  -52.4132 C.2       15 UNK         0.5000 
     88 O          -3.0160  -21.5038  -53.5517 O.2       15 UNK        -0.5000 
     89 N          -4.1616  -20.1352  -52.1794 N.am      16 UNK        -0.5000 
     90 CA         -4.9318  -19.4571  -53.2297 C.3       16 UNK         0.1400 
     91 CB         -5.0504  -17.9568  -52.9114 C.3       16 UNK        -0.1800 
     92 C          -6.3047  -20.1301  -53.4374 C.2       16 UNK         0.5000 
     93 O          -7.3350  -19.4555  -53.4013 O.2       16 UNK        -0.5000 
     94 N          -6.2934  -21.4563  -53.6359 N.am      17 UNK        -0.5000 
     95 CA         -7.4394  -22.3410  -53.8864 C.3       17 UNK         0.1400 
     96 CB         -8.1947  -21.9277  -55.1676 C.3       17 UNK        -0.1800 
     97 C          -8.3793  -22.5272  -52.6753 C.2       17 UNK         0.5000 
     98 O          -9.4903  -23.0313  -52.8502 O.2       17 UNK        -0.5000 
     99 N          -7.9343  -22.1380  -51.4719 N.am      18 UNK        -0.5000 
    100 CA        -8.7033  -22.2706  -50.2341 C.3       18 UNK         0.1400 
    101 CB        -8.2686  -21.1902  -49.2315 C.3       18 UNK        -0.1800 
    102 C         -8.5725  -23.6830  -49.6392 C.2       18 UNK         0.5000 
    103 O         -9.5874  -24.3033  -49.3192 O.2       18 UNK        -0.5000 
    104 N         -7.3305  -24.1672  -49.5224 N.am      19 UNK        -0.5000 
    105 CA        -6.9850  -25.4988  -49.0185 C.3       19 UNK         0.1400 
    106 CB        -6.4580  -25.3673  -47.5808 C.3       19 UNK        -0.1800 
    107 C         -5.9569  -26.2163  -49.9137 C.2       19 UNK         0.5000 
    108 O         -5.8546  -27.4420  -49.8470 O.2       19 UNK        -0.5000 
    109 N         -5.2261  -25.4619  -50.7403 N.am      20 UNK        -0.5000 
    110 CA        -4.2651  -25.9399  -51.7297 C.3       20 UNK         0.1400 
    111 CB        -2.8790  -26.0792  -51.0736 C.3       20 UNK        -0.1800 
    112 C         -4.2517  -24.9421  -52.8982 C.2       20 UNK         0.5000 
    113 O         -4.9019  -23.8995  -52.8039 O.2       20 UNK        -0.5000 
    114 N         -3.5164  -25.2573  -53.9686 N.am      21 UNK        -0.5000 
    115 CA        -3.3571  -24.3990  -55.1410 C.3       21 UNK         0.1400 
    116 CB        -4.1142  -25.0162  -56.3289 C.3       21 UNK        -0.1800 
    117 C         -1.8606  -24.2472  -55.4500 C.2       21 UNK         0.5000 
    118 O         -1.2026  -25.2531  -55.7251 O.2       21 UNK        -0.5000 
    119 N         -1.3486  -23.0099  -55.4035 N.am      22 UNK        -0.5000 
    120 CA         0.0378  -22.6695  -55.7778 C.3       22 UNK         0.1400 
    121 C          0.3267  -22.6501  -57.3093 C.2       22 UNK         0.5000 
    122 N         -0.6745  -22.7191  -58.1786 N.am      22 UNK        -0.7600 
    123 O          1.4840  -22.5898  -57.7161 O.2       22 UNK        -0.5000 
    124 C124        0.5545  -21.3894  -55.0668 C.3       23 UNK        -0.0398 
    125 S125       -0.2900  -19.8323  -55.5302 S.3       23 UNK        -0.2404 
    126 C126       -0.5702  -19.0309  -53.9164 C.3       23 UNK        -0.0205 
    127 H127       -0.8706  -15.5423  -47.3888 H         1 UNK         0.0600 
    128 H128       -1.8237  -14.1747  -47.9870 H         1 UNK         0.0600 
    129 H129       -1.3808  -14.2660  -46.2837 H         1 UNK         0.0600 
    130 H130        0.7010  -14.9455  -49.1256 H         1 UNK         0.3000 
    131 H131        1.9944  -12.4873  -49.3531 H         1 UNK         0.0600 
    132 H132        2.9557  -15.2767  -50.1595 H         1 UNK         0.0800 
    133 H133        3.7480  -13.7972  -50.6514 H         1 UNK         0.0800 
    134 H134        3.5656  -14.9335  -52.9909 H         1 UNK         0.0800 
    135 H135        2.1704  -14.7671  -54.0211 H         1 UNK         0.0800 
    136 H136        0.3774  -16.4752  -54.0553 H         1 UNK         0.1150 
    137 H137        1.2956  -20.3107  -52.3701 H         1 UNK         0.1150 
    138 H138        3.8715  -16.9789  -51.6239 H         1 UNK         0.1150 
    139 H139        4.4300  -19.0767  -50.6732 H         1 UNK         0.0800 
    140 H140        4.0712  -20.3576  -51.8032 H         1 UNK         0.0800 
    141 H141        2.4293  -18.3011  -49.0409 H         1 UNK         0.0800 
    142 H142        3.2995  -19.2699  -47.8887 H         1 UNK         0.0800 
    143 H143        1.1312  -20.6249  -47.5290 H         1 UNK         0.0600 
    144 H144        0.8370  -19.5341  -45.6907 H         1 UNK         0.3000 
    145 H145        2.0961  -16.5842  -44.4310 H         1 UNK         0.0600 
    146 H146       -0.1043  -16.4039  -43.2125 H         1 UNK         0.0600 
    147 H147       -0.1285  -15.6474  -44.7944 H         1 UNK         0.0600 
    148 H148       -0.8914  -17.2165  -44.5594 H         1 UNK         0.0600 
    149 H149        0.6725  -18.7445  -43.2228 H         1 UNK         0.3000 
    150 H150        3.3587  -21.0903  -43.1417 H         1 UNK         0.0600 
    151 H151        3.7562  -19.6291  -41.1635 H         1 UNK         0.0600 
    152 H152        2.8268  -21.0542  -40.7243 H         1 UNK         0.0600 
    153 H153        2.0250  -19.4948  -40.8933 H         1 UNK         0.0600 
    154 H154        0.5927  -20.9851  -42.2348 H         1 UNK         0.3000 
    155 H155       -0.7707  -22.5402  -45.1232 H         1 UNK         0.0600 
    156 H156        0.1755  -24.4769  -43.8627 H         1 UNK         0.0600 
    157 H157       -1.5218  -24.2377  -43.4798 H         1 UNK         0.0600 
    158 H158       -0.2786  -23.7255  -42.3376 H         1 UNK         0.0600 
    159 H159       -1.8462  -21.8249  -42.5546 H         1 UNK         0.3000 
    160 H160       -2.7145  -18.4820  -43.3700 H         1 UNK         0.0600 
    161 H161       -4.4886  -20.9634  -43.0603 H         1 UNK         0.0600 
    162 H162       -4.4989  -19.8945  -44.4551 H         1 UNK         0.0600 
    163 H163       -4.9943  -19.2821  -42.8863 H         1 UNK         0.0600 
    164 H164       -3.3497  -19.9464  -41.0800 H         1 UNK         0.3000 
    165 H165       -2.4435  -19.3902  -39.1394 H         1 UNK         0.0600 
    166 H166       -0.5866  -20.5443  -37.9692 H         1 UNK         0.0600 
    167 H167       -0.9972  -21.4000  -39.4468 H         1 UNK         0.0600 
    168 H168        0.4451  -20.3950  -39.3875 H         1 UNK         0.0600 
    169 H169        0.1634  -17.9598  -39.0359 H         1 UNK         0.3000 
    170 H170       -1.3662  -14.8370  -38.3849 H         1 UNK         0.0600 
    171 H171       -1.3734  -15.8474  -36.1038 H         1 UNK         0.0600 
    172 H172        0.1868  -16.5987  -36.4144 H         1 UNK         0.0600 
    173 H173        0.0450  -14.8414  -36.3476 H         1 UNK         0.0600 
    174 H174        1.3635  -15.7323  -38.3974 H         1 UNK         0.3000 
    175 H175        2.6623  -14.5772  -40.1064 H         1 UNK         0.0600 
    176 H176        2.7867  -17.0112  -39.9877 H         1 UNK         0.0600 
    177 H177        1.9027  -17.1893  -41.4920 H         1 UNK         0.0600 
    178 H178        3.5446  -16.5416  -41.5012 H         1 UNK         0.0600 
    179 H179        2.0272  -15.0587  -42.9131 H         1 UNK         0.3000 
    180 H180        0.8537  -12.6583  -43.9937 H         1 UNK         0.0600 
    181 H181        3.4152  -11.0383  -43.5658 H         1 UNK         0.0600 
    182 H182        1.7735  -10.4990  -43.2331 H         1 UNK         0.0600 
    183 H183        2.2698  -10.8091  -44.8870 H         1 UNK         0.0600 
    184 H184        2.0527  -13.6427  -45.5596 H         1 UNK         0.3000 
    185 H185        5.3122  -13.9263  -46.3379 H         1 UNK         0.0600 
    186 H186        5.3822  -16.3323  -46.6591 H         1 UNK         0.0600 
    187 H187        5.5495  -15.9900  -44.9453 H         1 UNK         0.0600 
    188 H188        4.0234  -16.5829  -45.5788 H         1 UNK         0.0600 
    189 H189        2.7972  -15.2282  -47.2103 H         1 UNK         0.3000 
    190 H190        0.4894  -17.4249  -49.0204 H         1 UNK         0.3000 
    191 H191       -1.3486  -18.4407  -50.8609 H         1 UNK         0.0600 
    192 H192       -1.1876  -15.5310  -49.9344 H         1 UNK         0.0600 
    193 H193       -1.7250  -16.1301  -51.4939 H         1 UNK         0.0600 
    194 H194       -0.0386  -16.2850  -51.0352 H         1 UNK         0.0600 
    195 H195       -2.0050  -17.4454  -47.5673 H         1 UNK         0.3000 
    196 H196       -4.8264  -16.9738  -47.8195 H         1 UNK         0.0600 
    197 H197       -4.7587  -17.2924  -45.3048 H         1 UNK         0.0600 
    198 H198       -3.5837  -16.1244  -45.8946 H         1 UNK         0.0600 
    199 H199       -3.0634  -17.7464  -45.4547 H         1 UNK         0.0600 
    200 H200       -2.9025  -19.9096  -47.6232 H         1 UNK         0.3000 
    201 H201       -5.3473  -21.6302  -47.4768 H         1 UNK         0.0600 
    202 H202       -3.5901  -22.2178  -45.8539 H         1 UNK         0.0600 
    203 H203       -2.3685  -22.2565  -47.1217 H         1 UNK         0.0600 
    204 H204       -3.6553  -23.4536  -47.1007 H         1 UNK         0.0600 
    205 H205       -2.4012  -20.8868  -49.3758 H         1 UNK         0.3000 
    206 H206       -2.9448  -22.9198  -51.3230 H         1 UNK         0.0600 
    207 H207       -0.6855  -22.4173  -50.4799 H         1 UNK         0.0600 
    208 H208       -0.7638  -22.2475  -52.2213 H         1 UNK         0.0600 
    209 H209       -0.7498  -20.8123  -51.1941 H         1 UNK         0.0600 
    210 H210       -4.3228  -19.8313  -51.2277 H         1 UNK         0.3000 
    211 H211       -4.4031  -19.5300  -54.1824 H         1 UNK         0.0600 
    212 H212       -5.6139  -17.7829  -51.9942 H         1 UNK         0.0600 
    213 H213       -5.5610  -17.4253  -53.7152 H         1 UNK         0.0600 
    214 H214       -4.0672  -17.4998  -52.7985 H         1 UNK         0.0600 
    215 H215       -5.4043  -21.9409  -53.5692 H         1 UNK         0.3000 
    216 H216       -7.0205  -23.3276  -54.0827 H         1 UNK         0.0600 
    217 H217       -8.9235  -22.6868  -55.4537 H         1 UNK         0.0600 
    218 H218       -7.5104  -21.8069  -56.0074 H         1 UNK         0.0600 
    219 H219       -8.7376  -20.9914  -55.0374 H         1 UNK         0.0600 
    220 H220       -6.9954  -21.7733  -51.3987 H         1 UNK         0.3000 
    221 H221       -9.7599  -22.1005  -50.4527 H         1 UNK         0.0600 
    222 H222       -7.2121  -21.2626  -48.9810 H         1 UNK         0.0600 
    223 H223       -8.4455  -20.1912  -49.6304 H         1 UNK         0.0600 
    224 H224       -8.8311  -21.2724  -48.3008 H         1 UNK         0.0600 
    225 H225       -6.5500  -23.5579  -49.7566 H         1 UNK         0.3000 
    226 H226       -7.8729  -26.1340  -49.0020 H         1 UNK         0.0600 
    227 H227       -7.2103  -24.9304  -46.9241 H         1 UNK         0.0600 
    228 H228       -6.1918  -26.3415  -47.1688 H         1 UNK         0.0600 
    229 H229       -5.5702  -24.7372  -47.5391 H         1 UNK         0.0600 
    230 H230       -5.3771  -24.4603  -50.7798 H         1 UNK         0.3000 
    231 H231       -4.5874  -26.9067  -52.1215 H         1 UNK         0.0600 
    232 H232       -2.9014  -26.8099  -50.2649 H         1 UNK         0.0600 
    233 H233       -2.5328  -25.1344  -50.6544 H         1 UNK         0.0600 
    234 H234       -2.1302  -26.4170  -51.7905 H         1 UNK         0.0600 
    235 H235       -2.9637  -26.1038  -53.9711 H         1 UNK         0.3000 
    236 H236       -3.7823  -23.4104  -54.9692 H         1 UNK         0.0600 
    237 H237       -3.9945  -24.4084  -57.2265 H         1 UNK         0.0600 
    238 H238       -3.7568  -26.0204  -56.5600 H         1 UNK         0.0600 
    239 H239       -5.1822  -25.0813  -56.1202 H         1 UNK         0.0600 
    240 H240       -1.9330  -22.2444  -55.0809 H         1 UNK         0.3000 
    241 H241        0.6623  -23.4808  -55.3983 H         1 UNK         0.0600 
    242 H242       -0.4759  -22.7125  -59.1668 H         1 UNK         0.3800 
    243 H243       -1.6283  -22.7566  -57.8583 H         1 UNK         0.3800 
    244 H244        0.4634  -21.5405  -53.9947 H         1 UNK         0.0800 
    245 H245        1.6224  -21.2594  -55.2503 H         1 UNK         0.0800 
    246 H246       -1.3069  -18.2368  -54.0468 H         1 UNK         0.0800 
    247 H247       -1.0228  -19.7426  -53.2331 H         1 UNK         0.0800 
@<TRIPOS>BOND
     1    1    2 1    
     2    1  127 1    
     3    1  128 1    
     4    1  129 1    
     5    2    3 2    
     6    2    4 am   BACKBONE|DICT|INTERRES
     7    4    5 1    
     8    4  130 1    
     9    5    6 1    
    10    5   65 1    
    11    5  131 1    
    12    6    7 1    
    13    6  132 1    
    14    6  133 1    
    15    7    8 1    
    16    8    9 1    
    17    8  134 1    
    18    8  135 1    
    19    9   10 ar   
    20    9   14 ar   
    21   10   11 ar   
    22   10  136 1    
    23   11   12 ar   
    24   11  126 1    
    25   12   13 ar   
    26   12  137 1    
    27   13   14 ar   
    28   13   15 1    
    29   14  138 1    
    30   15   16 1    
    31   15  139 1    
    32   15  140 1    
    33   16   17 1    
    34   17   18 1    
    35   17  141 1    
    36   17  142 1    
    37   18   19 1    
    38   18   67 1    
    39   18  143 1    
    40   19   20 am   BACKBONE|DICT|INTERRES
    41   19  144 1    
    42   20   21 2    
    43   20   22 1    
    44   22   23 1    
    45   22   24 1    
    46   22  145 1    
    47   23  146 1    
    48   23  147 1    
    49   23  148 1    
    50   24   25 am   BACKBONE|DICT|INTERRES
    51   24  149 1    
    52   25   26 2    
    53   25   27 1    
    54   27   28 1    
    55   27   29 1    
    56   27  150 1    
    57   28  151 1    
    58   28  152 1    
    59   28  153 1    
    60   29   30 am   BACKBONE|DICT|INTERRES
    61   29  154 1    
    62   30   31 2    
    63   30   32 1    
    64   32   33 1    
    65   32   34 1    
    66   32  155 1    
    67   33  156 1    
    68   33  157 1    
    69   33  158 1    
    70   34   35 am   BACKBONE|DICT|INTERRES
    71   34  159 1    
    72   35   36 2    
    73   35   37 1    
    74   37   38 1    
    75   37   39 1    
    76   37  160 1    
    77   38  161 1    
    78   38  162 1    
    79   38  163 1    
    80   39   40 am   BACKBONE|DICT|INTERRES
    81   39  164 1    
    82   40   41 2    
    83   40   42 1    
    84   42   43 1    
    85   42   44 1    
    86   42  165 1    
    87   43  166 1    
    88   43  167 1    
    89   43  168 1    
    90   44   45 am   BACKBONE|DICT|INTERRES
    91   44  169 1    
    92   45   46 2    
    93   45   47 1    
    94   47   48 1    
    95   47   49 1    
    96   47  170 1    
    97   48  171 1    
    98   48  172 1    
    99   48  173 1    
   100   49   50 am   BACKBONE|DICT|INTERRES
   101   49  174 1    
   102   50   51 2    
   103   50   52 1    
   104   52   53 1    
   105   52   54 1    
   106   52  175 1    
   107   53  176 1    
   108   53  177 1    
   109   53  178 1    
   110   54   55 am   BACKBONE|DICT|INTERRES
   111   54  179 1    
   112   55   56 2    
   113   55   57 1    
   114   57   58 1    
   115   57   59 1    
   116   57  180 1    
   117   58  181 1    
   118   58  182 1    
   119   58  183 1    
   120   59   60 am   BACKBONE|DICT|INTERRES
   121   59  184 1    
   122   60   61 2    
   123   60   62 1    
   124   62   63 1    
   125   62   64 1    
   126   62  185 1    
   127   63  186 1    
   128   63  187 1    
   129   63  188 1    
   130   64   65 am   BACKBONE|DICT|INTERRES
   131   64  189 1    
   132   65   66 2    
   133   67   68 2    
   134   67   69 am   BACKBONE|DICT|INTERRES
   135   69   70 1    
   136   69  190 1    
   137   70   71 1    
   138   70   72 1    
   139   70  191 1    
   140   71  192 1    
   141   71  193 1    
   142   71  194 1    
   143   72   73 2    
   144   72   74 am   BACKBONE|DICT|INTERRES
   145   74   75 1    
   146   74  195 1    
   147   75   76 1    
   148   75   77 1    
   149   75  196 1    
   150   76  197 1    
   151   76  198 1    
   152   76  199 1    
   153   77   78 2    
   154   77   79 am   BACKBONE|DICT|INTERRES
   155   79   80 1    
   156   79  200 1    
   157   80   81 1    
   158   80   82 1    
   159   80  201 1    
   160   81  202 1    
   161   81  203 1    
   162   81  204 1    
   163   82   83 2    
   164   82   84 am   BACKBONE|DICT|INTERRES
   165   84   85 1    
   166   84  205 1    
   167   85   86 1    
   168   85   87 1    
   169   85  206 1    
   170   86  207 1    
   171   86  208 1    
   172   86  209 1    
   173   87   88 2    
   174   87   89 am   BACKBONE|DICT|INTERRES
   175   89   90 1    
   176   89  210 1    
   177   90   91 1    
   178   90   92 1    
   179   90  211 1    
   180   91  212 1    
   181   91  213 1    
   182   91  214 1    
   183   92   93 2    
   184   92   94 am   BACKBONE|DICT|INTERRES
   185   94   95 1    
   186   94  215 1    
   187   95   96 1    
   188   95   97 1    
   189   95  216 1    
   190   96  217 1    
   191   96  218 1    
   192   96  219 1    
   193   97   98 2    
   194   97   99 am   BACKBONE|DICT|INTERRES
   195   99  100 1    
   196   99  220 1    
   197  100  101 1    
   198  100  102 1    
   199  100  221 1    
   200  101  222 1    
   201  101  223 1    
   202  101  224 1    
   203  102  103 2    
   204  102  104 am   BACKBONE|DICT|INTERRES
   205  104  105 1    
   206  104  225 1    
   207  105  106 1    
   208  105  107 1    
   209  105  226 1    
   210  106  227 1    
   211  106  228 1    
   212  106  229 1    
   213  107  108 2    
   214  107  109 am   BACKBONE|DICT|INTERRES
   215  109  110 1    
   216  109  230 1    
   217  110  111 1    
   218  110  112 1    
   219  110  231 1    
   220  111  232 1    
   221  111  233 1    
   222  111  234 1    
   223  112  113 2    
   224  112  114 am   BACKBONE|DICT|INTERRES
   225  114  115 1    
   226  114  235 1    
   227  115  116 1    
   228  115  117 1    
   229  115  236 1    
   230  116  237 1    
   231  116  238 1    
   232  116  239 1    
   233  117  118 2    
   234  117  119 am   BACKBONE|DICT|INTERRES
   235  119  120 1    
   236  119  240 1    
   237  120  121 1    
   238  120  124 1    
   239  120  241 1    
   240  121  122 am   BACKBONE|DICT|INTERRES
   241  121  123 2    
   242  122  242 1    
   243  122  243 1    
   244  124  125 1    
   245  124  244 1    
   246  124  245 1    
   247  125  126 1    
   248  126  246 1    
   249  126  247 1    
@<TRIPOS>SUBSTRUCTURE
     1 UNK         1 GROUP             0       ****    0 ROOT    
