@<TRIPOS>MOLECULE
3R540
247   249    1
SMALL
USER_CHARGES


@<TRIPOS>ATOM
      1 CA         -0.4933   -9.8204  -48.1349 C.3       0 UNK        -0.1800 
      2 C           0.2572  -10.9445  -47.4354 C.2       0 UNK         0.5000 
      3 O           1.3774  -10.7373  -46.9666 O.2       0 UNK        -0.5000 
      4 N          -0.3543  -12.1326  -47.3562 N.am      1 UNK        -0.5000 
      5 CA          0.2000  -13.3313  -46.7175 C.3       1 UNK         0.1400 
      6 C6         -0.3905  -14.6320  -47.3151 C.3       23 UNK        -0.0398 
      7 S7          0.0460  -14.8433  -49.0762 S.3       23 UNK        -0.2404 
      8 C8         -1.5830  -14.7820  -49.8880 C.3       23 UNK        -0.0205 
      9 C9         -2.3563  -16.0773  -49.6925 C.ar      23 UNK        -0.0193 
     10 C10        -2.1467  -17.1595  -50.5517 C.ar      23 UNK        -0.1150 
     11 C11        -2.8520  -18.3533  -50.3735 C.ar      23 UNK        -0.0193 
     12 C12        -3.7536  -18.4707  -49.3108 C.ar      23 UNK        -0.1150 
     13 C13        -3.9656  -17.3970  -48.4420 C.ar      23 UNK        -0.0193 
     14 C14        -3.2809  -16.1977  -48.6525 C.ar      23 UNK        -0.1150 
     15 C15        -4.9183  -17.5188  -47.2642 C.3       23 UNK        -0.0205 
     16 S16        -3.9884  -17.6205  -45.7020 S.3       23 UNK        -0.2404 
     17 C17        -4.3764  -19.3040  -45.1182 C.3       23 UNK        -0.0398 
     18 CA         -3.7740  -20.4516  -45.9702 C.3       11 UNK         0.1400 
     19 N          -2.3563  -20.2733  -46.2842 N.am      11 UNK        -0.5000 
     20 C          -1.7213  -20.9064  -47.2811 C.2       10 UNK         0.5000 
     21 O          -2.2861  -21.6445  -48.0857 O.2       10 UNK        -0.5000 
     22 CA         -0.1966  -20.7122  -47.3837 C.3       10 UNK         0.1400 
     23 CB          0.1255  -19.5313  -48.3120 C.3       10 UNK        -0.1800 
     24 N           0.4441  -20.5007  -46.0837 N.am      10 UNK        -0.5000 
     25 C           0.4643  -21.4019  -45.0873 C.2       9 UNK         0.5000 
     26 O           0.0118  -22.5408  -45.1930 O.2       9 UNK        -0.5000 
     27 CA          1.0188  -20.9427  -43.7220 C.3       9 UNK         0.1400 
     28 CB          2.5033  -21.3123  -43.5938 C.3       9 UNK        -0.1800 
     29 N           0.8624  -19.5082  -43.4826 N.am      9 UNK        -0.5000 
     30 C          -0.2969  -18.8338  -43.5118 C.2       8 UNK         0.5000 
     31 O          -1.3950  -19.3857  -43.5953 O.2       8 UNK        -0.5000 
     32 CA         -0.2157  -17.2917  -43.5177 C.3       8 UNK         0.1400 
     33 CB         -0.6927  -16.7283  -42.1723 C.3       8 UNK        -0.1800 
     34 N           1.1192  -16.7578  -43.8239 N.am      8 UNK        -0.5000 
     35 C           1.8033  -16.9644  -44.9607 C.2       7 UNK         0.5000 
     36 O           1.3663  -17.6213  -45.9051 O.2       7 UNK        -0.5000 
     37 CA          3.2339  -16.4047  -45.0345 C.3       7 UNK         0.1400 
     38 CB          3.2919  -15.1153  -45.8632 C.3       7 UNK        -0.1800 
     39 N           3.8011  -16.1415  -43.7144 N.am      7 UNK        -0.5000 
     40 C           4.3495  -17.0657  -42.9148 C.2       6 UNK         0.5000 
     41 O           4.3784  -18.2648  -43.1949 O.2       6 UNK        -0.5000 
     42 CA          4.9366  -16.5744  -41.5724 C.3       6 UNK         0.1400 
     43 CB          6.2156  -17.3372  -41.1711 C.3       6 UNK        -0.1800 
     44 N           5.1440  -15.1211  -41.5168 N.am      6 UNK        -0.5000 
     45 C           5.9834  -14.3730  -42.2530 C.2       5 UNK         0.5000 
     46 O           6.7997  -14.8408  -43.0471 O.2       5 UNK        -0.5000 
     47 CA          5.8616  -12.8400  -42.1227 C.3       5 UNK         0.1400 
     48 CB          5.4230  -12.2222  -43.4618 C.3       5 UNK        -0.1800 
     49 N           4.8965  -12.4410  -41.0975 N.am      5 UNK        -0.5000 
     50 C           5.1814  -12.2443  -39.8032 C.2       4 UNK         0.5000 
     51 O           6.3185  -12.3008  -39.3347 O.2       4 UNK        -0.5000 
     52 CA          3.9846  -11.9669  -38.8704 C.3       4 UNK         0.1400 
     53 CB          3.7740  -10.4544  -38.7034 C.3       4 UNK        -0.1800 
     54 N           2.7343  -12.5735  -39.3391 N.am      4 UNK        -0.5000 
     55 C           2.5055  -13.8921  -39.4288 C.2       3 UNK         0.5000 
     56 O           3.3200  -14.7500  -39.0916 O.2       3 UNK        -0.5000 
     57 CA          1.1740  -14.3261  -40.0667 C.3       3 UNK         0.1400 
     58 CB          0.0901  -14.5159  -38.9961 C.3       3 UNK        -0.1800 
     59 N           0.6993  -13.3801  -41.0794 N.am      3 UNK        -0.5000 
     60 C           1.2814  -13.1911  -42.2701 C.2       2 UNK         0.5000 
     61 O           2.2647  -13.8279  -42.6598 O.2       2 UNK        -0.5000 
     62 CA          0.7114  -12.0453  -43.1234 C.3       2 UNK         0.1400 
     63 CB          1.4998  -10.7539  -42.8566 C.3       2 UNK        -0.1800 
     64 N           0.7512  -12.3290  -44.5554 N.am      2 UNK        -0.5000 
     65 C           0.0144  -13.2510  -45.1860 C.2       1 UNK         0.5000 
     66 O          -0.8055  -13.9739  -44.6185 O.2       1 UNK        -0.5000 
     67 C          -3.9873  -21.8023  -45.2613 C.2       11 UNK         0.5000 
     68 O          -4.8800  -22.5617  -45.6408 O.2       11 UNK        -0.5000 
     69 N          -3.1482  -22.0705  -44.2486 N.am      12 UNK        -0.5000 
     70 CA         -3.2093  -23.2543  -43.3891 C.3       12 UNK         0.1400 
     71 CB         -2.1952  -23.1052  -42.2458 C.3       12 UNK        -0.1800 
     72 C          -2.9835  -24.5779  -44.1411 C.2       12 UNK         0.5000 
     73 O          -3.6521  -25.5676  -43.8391 O.2       12 UNK        -0.5000 
     74 N          -2.0782  -24.5704  -45.1281 N.am      13 UNK        -0.5000 
     75 CA         -1.7516  -25.6988  -46.0024 C.3       13 UNK         0.1400 
     76 CB         -0.3615  -25.4553  -46.6179 C.3       13 UNK        -0.1800 
     77 C          -2.8345  -25.9498  -47.0754 C.2       13 UNK         0.5000 
     78 O          -2.5276  -25.9595  -48.2685 O.2       13 UNK        -0.5000 
     79 N          -4.0892  -26.1235  -46.6332 N.am      14 UNK        -0.5000 
     80 CA         -5.2965  -26.3862  -47.4290 C.3       14 UNK         0.1400 
     81 CB         -5.2625  -27.8268  -47.9796 C.3       14 UNK        -0.1800 
     82 C          -5.5358  -25.3336  -48.5332 C.2       14 UNK         0.5000 
     83 O          -5.8819  -25.6856  -49.6639 O.2       14 UNK        -0.5000 
     84 N          -5.2763  -24.0599  -48.1971 N.am      15 UNK        -0.5000 
     85 CA         -5.2862  -22.8921  -49.0856 C.3       15 UNK         0.1400 
     86 CB         -6.7325  -22.5334  -49.4846 C.3       15 UNK        -0.1800 
     87 C          -4.3533  -23.0339  -50.3091 C.2       15 UNK         0.5000 
     88 O          -4.6380  -22.4528  -51.3546 O.2       15 UNK        -0.5000 
     89 N          -3.2935  -23.8497  -50.1824 N.am      16 UNK        -0.5000 
     90 CA         -2.3234  -24.2274  -51.2160 C.3       16 UNK         0.1400 
     91 CB         -1.4154  -23.0301  -51.5558 C.3       16 UNK        -0.1800 
     92 C          -2.9753  -24.8649  -52.4649 C.2       16 UNK         0.5000 
     93 O          -2.4424  -24.7415  -53.5680 O.2       16 UNK        -0.5000 
     94 N          -4.1331  -25.5154  -52.2648 N.am      17 UNK        -0.5000 
     95 CA         -5.0368  -26.0525  -53.2863 C.3       17 UNK         0.1400 
     96 CB         -4.3878  -27.2209  -54.0575 C.3       17 UNK        -0.1800 
     97 C          -5.6547  -24.9654  -54.1974 C.2       17 UNK         0.5000 
     98 O          -6.0121  -25.2524  -55.3418 O.2       17 UNK        -0.5000 
     99 N          -5.8069  -23.7470  -53.6539 N.am      18 UNK        -0.5000 
    100 CA        -6.4937  -22.5831  -54.2138 C.3       18 UNK         0.1400 
    101 CB        -8.0208  -22.8131  -54.2014 C.3       18 UNK        -0.1800 
    102 C         -5.9339  -22.1706  -55.5872 C.2       18 UNK         0.5000 
    103 O         -4.8235  -21.6387  -55.6548 O.2       18 UNK        -0.5000 
    104 N         -6.6962  -22.4189  -56.6616 N.am      19 UNK        -0.5000 
    105 CA        -6.3866  -22.0805  -58.0564 C.3       19 UNK         0.1400 
    106 CB        -7.5515  -22.5453  -58.9437 C.3       19 UNK        -0.1800 
    107 C         -5.0511  -22.6440  -58.5851 C.2       19 UNK         0.5000 
    108 O         -4.5220  -22.1227  -59.5672 O.2       19 UNK        -0.5000 
    109 N         -4.5211  -23.6765  -57.9181 N.am      20 UNK        -0.5000 
    110 CA        -3.2133  -24.2663  -58.1853 C.3       20 UNK         0.1400 
    111 CB        -3.1111  -25.5886  -57.4122 C.3       20 UNK        -0.1800 
    112 C         -2.0211  -23.3542  -57.8248 C.2       20 UNK         0.5000 
    113 O         -0.9342  -23.5822  -58.3593 O.2       20 UNK        -0.5000 
    114 N         -2.2123  -22.3727  -56.9277 N.am      21 UNK        -0.5000 
    115 CA        -1.1199  -21.5576  -56.3861 C.3       21 UNK         0.1400 
    116 CB        -0.6159  -22.1944  -55.0824 C.3       21 UNK        -0.1800 
    117 C         -1.4765  -20.0807  -56.1509 C.2       21 UNK         0.5000 
    118 O         -0.5971  -19.2333  -56.3161 O.2       21 UNK        -0.5000 
    119 N         -2.7176  -19.7807  -55.7520 N.am      22 UNK        -0.5000 
    120 CA        -3.1427  -18.4320  -55.3296 C.3       22 UNK         0.1400 
    121 C         -4.5656  -18.0139  -55.7950 C.2       22 UNK         0.5000 
    122 N         -5.3744  -18.9024  -56.3541 N.am      22 UNK        -0.7600 
    123 O         -4.9326  -16.8478  -55.6776 O.2       22 UNK        -0.5000 
    124 C124       -2.9244  -18.2013  -53.8092 C.3       23 UNK        -0.0398 
    125 S125       -3.7554  -19.4416  -52.7524 S.3       23 UNK        -0.2404 
    126 C126       -2.6350  -19.5226  -51.3190 C.3       23 UNK        -0.0205 
    127 H127        0.0853   -9.4549  -48.9833 H         1 UNK         0.0600 
    128 H128       -0.6525   -8.9907  -47.4463 H         1 UNK         0.0600 
    129 H129       -1.4656  -10.1492  -48.5029 H         1 UNK         0.0600 
    130 H130       -1.2828  -12.2332  -47.7390 H         1 UNK         0.3000 
    131 H131        1.2741  -13.3491  -46.9086 H         1 UNK         0.0600 
    132 H132       -1.4713  -14.6484  -47.1836 H         1 UNK         0.0800 
    133 H133       -0.0141  -15.5058  -46.7837 H         1 UNK         0.0800 
    134 H134       -2.1534  -13.9301  -49.5149 H         1 UNK         0.0800 
    135 H135       -1.4364  -14.6038  -50.9543 H         1 UNK         0.0800 
    136 H136       -1.4347  -17.0706  -51.3599 H         1 UNK         0.1150 
    137 H137       -4.2852  -19.3998  -49.1620 H         1 UNK         0.1150 
    138 H138       -3.4573  -15.3658  -47.9861 H         1 UNK         0.1150 
    139 H139       -5.5674  -16.6426  -47.2327 H         1 UNK         0.0800 
    140 H140       -5.5764  -18.3807  -47.3819 H         1 UNK         0.0800 
    141 H141       -5.4616  -19.4068  -45.0631 H         1 UNK         0.0800 
    142 H142       -4.0226  -19.3613  -44.0874 H         1 UNK         0.0800 
    143 H143       -4.3254  -20.4796  -46.9105 H         1 UNK         0.0600 
    144 H144       -1.8262  -19.7051  -45.6359 H         1 UNK         0.3000 
    145 H145        0.2252  -21.6195  -47.8210 H         1 UNK         0.0600 
    146 H146        1.2012  -19.3873  -48.4132 H         1 UNK         0.0600 
    147 H147       -0.2759  -19.7018  -49.3114 H         1 UNK         0.0600 
    148 H148       -0.3044  -18.5987  -47.9426 H         1 UNK         0.0600 
    149 H149        0.8248  -19.5738  -45.9197 H         1 UNK         0.3000 
    150 H150        0.4647  -21.4677  -42.9429 H         1 UNK         0.0600 
    151 H151        2.6541  -22.3826  -43.7412 H         1 UNK         0.0600 
    152 H152        2.8888  -21.0629  -42.6050 H         1 UNK         0.0600 
    153 H153        3.1127  -20.7886  -44.3317 H         1 UNK         0.0600 
    154 H154        1.7166  -18.9742  -43.4122 H         1 UNK         0.3000 
    155 H155       -0.8958  -16.9387  -44.2958 H         1 UNK         0.0600 
    156 H156       -1.7021  -17.0717  -41.9421 H         1 UNK         0.0600 
    157 H157       -0.7227  -15.6392  -42.1907 H         1 UNK         0.0600 
    158 H158       -0.0459  -17.0422  -41.3528 H         1 UNK         0.0600 
    159 H159        1.5512  -16.1799  -43.1171 H         1 UNK         0.3000 
    160 H160        3.8467  -17.1544  -45.5397 H         1 UNK         0.0600 
    161 H161        2.7955  -14.2911  -45.3533 H         1 UNK         0.0600 
    162 H162        2.8184  -15.2501  -46.8366 H         1 UNK         0.0600 
    163 H163        4.3243  -14.8150  -46.0435 H         1 UNK         0.0600 
    164 H164        3.7301  -15.1891  -43.3757 H         1 UNK         0.3000 
    165 H165        4.1775  -16.7951  -40.8210 H         1 UNK         0.0600 
    166 H166        7.0003  -17.2402  -41.9216 H         1 UNK         0.0600 
    167 H167        6.6100  -16.9731  -40.2224 H         1 UNK         0.0600 
    168 H168        6.0135  -18.4019  -41.0493 H         1 UNK         0.0600 
    169 H169        4.5376  -14.6381  -40.8663 H         1 UNK         0.3000 
    170 H170        6.8500  -12.4494  -41.8721 H         1 UNK         0.0600 
    171 H171        6.1425  -12.4442  -44.2509 H         1 UNK         0.0600 
    172 H172        4.4545  -12.6046  -43.7865 H         1 UNK         0.0600 
    173 H173        5.3479  -11.1371  -43.3899 H         1 UNK         0.0600 
    174 H174        3.9316  -12.3937  -41.3906 H         1 UNK         0.3000 
    175 H175        4.2219  -12.3920  -37.8929 H         1 UNK         0.0600 
    176 H176        3.5125   -9.9771  -39.6487 H         1 UNK         0.0600 
    177 H177        2.9788  -10.2431  -37.9882 H         1 UNK         0.0600 
    178 H178        4.6795   -9.9727  -38.3318 H         1 UNK         0.0600 
    179 H179        2.0061  -11.9394  -39.6324 H         1 UNK         0.3000 
    180 H180        1.3490  -15.2881  -40.5511 H         1 UNK         0.0600 
    181 H181       -0.1408  -13.5807  -38.4846 H         1 UNK         0.0600 
    182 H182        0.4101  -15.2341  -38.2399 H         1 UNK         0.0600 
    183 H183       -0.8328  -14.8970  -39.4338 H         1 UNK         0.0600 
    184 H184       -0.1022  -12.8188  -40.8288 H         1 UNK         0.3000 
    185 H185       -0.3313  -11.8826  -42.8427 H         1 UNK         0.0600 
    186 H186        1.4715  -10.4843  -41.8001 H         1 UNK         0.0600 
    187 H187        2.5477  -10.8552  -43.1424 H         1 UNK         0.0600 
    188 H188        1.0820   -9.9155  -43.4145 H         1 UNK         0.0600 
    189 H189        1.3605  -11.7472  -45.1189 H         1 UNK         0.3000 
    190 H190       -2.4423  -21.3821  -44.0196 H         1 UNK         0.3000 
    191 H191       -4.2099  -23.2891  -42.9535 H         1 UNK         0.0600 
    192 H192       -1.1701  -23.1179  -42.6156 H         1 UNK         0.0600 
    193 H193       -2.3459  -22.1747  -41.6980 H         1 UNK         0.0600 
    194 H194       -2.2931  -23.9234  -41.5312 H         1 UNK         0.0600 
    195 H195       -1.5391  -23.7222  -45.2792 H         1 UNK         0.3000 
    196 H196       -1.6898  -26.6030  -45.3937 H         1 UNK         0.0600 
    197 H197        0.3961  -25.3333  -45.8436 H         1 UNK         0.0600 
    198 H198       -0.3504  -24.5587  -47.2395 H         1 UNK         0.0600 
    199 H199       -0.0537  -26.2950  -47.2422 H         1 UNK         0.0600 
    200 H200       -4.2260  -26.0593  -45.6282 H         1 UNK         0.3000 
    201 H201       -6.1428  -26.3099  -46.7450 H         1 UNK         0.0600 
    202 H202       -6.1990  -28.0785  -48.4788 H         1 UNK         0.0600 
    203 H203       -5.1189  -28.5516  -47.1784 H         1 UNK         0.0600 
    204 H204       -4.4581  -27.9632  -48.7033 H         1 UNK         0.0600 
    205 H205       -5.0025  -23.8607  -47.2402 H         1 UNK         0.3000 
    206 H206       -4.8923  -22.0604  -48.5043 H         1 UNK         0.0600 
    207 H207       -7.3681  -22.4254  -48.6058 H         1 UNK         0.0600 
    208 H208       -7.1745  -23.2943  -50.1287 H         1 UNK         0.0600 
    209 H209       -6.7668  -21.5870  -50.0257 H         1 UNK         0.0600 
    210 H210       -3.1635  -24.3253  -49.2958 H         1 UNK         0.3000 
    211 H211       -1.6962  -25.0020  -50.7735 H         1 UNK         0.0600 
    212 H212       -0.9919  -22.5859  -50.6548 H         1 UNK         0.0600 
    213 H213       -0.5833  -23.3366  -52.1902 H         1 UNK         0.0600 
    214 H214       -1.9660  -22.2540  -52.0861 H         1 UNK         0.0600 
    215 H215       -4.4963  -25.5451  -51.3178 H         1 UNK         0.3000 
    216 H216       -5.8803  -26.4690  -52.7341 H         1 UNK         0.0600 
    217 H217       -5.0930  -27.6724  -54.7561 H         1 UNK         0.0600 
    218 H218       -3.5183  -26.9042  -54.6306 H         1 UNK         0.0600 
    219 H219       -4.0651  -28.0065  -53.3744 H         1 UNK         0.0600 
    220 H220       -5.3838  -23.5728  -52.7465 H         1 UNK         0.3000 
    221 H221       -6.2813  -21.7498  -53.5420 H         1 UNK         0.0600 
    222 H222       -8.3153  -23.6794  -54.7949 H         1 UNK         0.0600 
    223 H223       -8.3769  -22.9779  -53.1842 H         1 UNK         0.0600 
    224 H224       -8.5540  -21.9438  -54.5885 H         1 UNK         0.0600 
    225 H225       -7.5742  -22.8933  -56.5088 H         1 UNK         0.3000 
    226 H226       -6.3226  -20.9934  -58.1237 H         1 UNK         0.0600 
    227 H227       -8.4881  -22.0732  -58.6462 H         1 UNK         0.0600 
    228 H228       -7.3772  -22.2856  -59.9888 H         1 UNK         0.0600 
    229 H229       -7.6877  -23.6263  -58.8922 H         1 UNK         0.0600 
    230 H230       -5.0306  -24.0459  -57.1249 H         1 UNK         0.3000 
    231 H231       -3.1521  -24.4863  -59.2531 H         1 UNK         0.0600 
    232 H232       -2.1776  -26.1055  -57.6381 H         1 UNK         0.0600 
    233 H233       -3.9287  -26.2643  -57.6644 H         1 UNK         0.0600 
    234 H234       -3.1373  -25.4135  -56.3366 H         1 UNK         0.0600 
    235 H235       -3.1366  -22.2338  -56.5337 H         1 UNK         0.3000 
    236 H236       -0.2882  -21.5455  -57.0937 H         1 UNK         0.0600 
    237 H237       -0.2354  -23.2017  -55.2521 H         1 UNK         0.0600 
    238 H238        0.1905  -21.6095  -54.6383 H         1 UNK         0.0600 
    239 H239       -1.4199  -22.2608  -54.3505 H         1 UNK         0.0600 
    240 H240       -3.4000  -20.5193  -55.6059 H         1 UNK         0.3000 
    241 H241       -2.5065  -17.7091  -55.8436 H         1 UNK         0.0600 
    242 H242       -5.1175  -19.8805  -56.3746 H         1 UNK         0.3800 
    243 H243       -6.2868  -18.6083  -56.6637 H         1 UNK         0.3800 
    244 H244       -1.8538  -18.2272  -53.6040 H         1 UNK         0.0800 
    245 H245       -3.2568  -17.2057  -53.5104 H         1 UNK         0.0800 
    246 H246       -2.8175  -20.4540  -50.7826 H         1 UNK         0.0800 
    247 H247       -1.5969  -19.5657  -51.6508 H         1 UNK         0.0800 
@<TRIPOS>BOND
     1    1    2 1    
     2    1  127 1    
     3    1  128 1    
     4    1  129 1    
     5    2    3 2    
     6    2    4 am   BACKBONE|DICT|INTERRES
     7    4    5 1    
     8    4  130 1    
     9    5    6 1    
    10    5   65 1    
    11    5  131 1    
    12    6    7 1    
    13    6  132 1    
    14    6  133 1    
    15    7    8 1    
    16    8    9 1    
    17    8  134 1    
    18    8  135 1    
    19    9   10 ar   
    20    9   14 ar   
    21   10   11 ar   
    22   10  136 1    
    23   11   12 ar   
    24   11  126 1    
    25   12   13 ar   
    26   12  137 1    
    27   13   14 ar   
    28   13   15 1    
    29   14  138 1    
    30   15   16 1    
    31   15  139 1    
    32   15  140 1    
    33   16   17 1    
    34   17   18 1    
    35   17  141 1    
    36   17  142 1    
    37   18   19 1    
    38   18   67 1    
    39   18  143 1    
    40   19   20 am   BACKBONE|DICT|INTERRES
    41   19  144 1    
    42   20   21 2    
    43   20   22 1    
    44   22   23 1    
    45   22   24 1    
    46   22  145 1    
    47   23  146 1    
    48   23  147 1    
    49   23  148 1    
    50   24   25 am   BACKBONE|DICT|INTERRES
    51   24  149 1    
    52   25   26 2    
    53   25   27 1    
    54   27   28 1    
    55   27   29 1    
    56   27  150 1    
    57   28  151 1    
    58   28  152 1    
    59   28  153 1    
    60   29   30 am   BACKBONE|DICT|INTERRES
    61   29  154 1    
    62   30   31 2    
    63   30   32 1    
    64   32   33 1    
    65   32   34 1    
    66   32  155 1    
    67   33  156 1    
    68   33  157 1    
    69   33  158 1    
    70   34   35 am   BACKBONE|DICT|INTERRES
    71   34  159 1    
    72   35   36 2    
    73   35   37 1    
    74   37   38 1    
    75   37   39 1    
    76   37  160 1    
    77   38  161 1    
    78   38  162 1    
    79   38  163 1    
    80   39   40 am   BACKBONE|DICT|INTERRES
    81   39  164 1    
    82   40   41 2    
    83   40   42 1    
    84   42   43 1    
    85   42   44 1    
    86   42  165 1    
    87   43  166 1    
    88   43  167 1    
    89   43  168 1    
    90   44   45 am   BACKBONE|DICT|INTERRES
    91   44  169 1    
    92   45   46 2    
    93   45   47 1    
    94   47   48 1    
    95   47   49 1    
    96   47  170 1    
    97   48  171 1    
    98   48  172 1    
    99   48  173 1    
   100   49   50 am   BACKBONE|DICT|INTERRES
   101   49  174 1    
   102   50   51 2    
   103   50   52 1    
   104   52   53 1    
   105   52   54 1    
   106   52  175 1    
   107   53  176 1    
   108   53  177 1    
   109   53  178 1    
   110   54   55 am   BACKBONE|DICT|INTERRES
   111   54  179 1    
   112   55   56 2    
   113   55   57 1    
   114   57   58 1    
   115   57   59 1    
   116   57  180 1    
   117   58  181 1    
   118   58  182 1    
   119   58  183 1    
   120   59   60 am   BACKBONE|DICT|INTERRES
   121   59  184 1    
   122   60   61 2    
   123   60   62 1    
   124   62   63 1    
   125   62   64 1    
   126   62  185 1    
   127   63  186 1    
   128   63  187 1    
   129   63  188 1    
   130   64   65 am   BACKBONE|DICT|INTERRES
   131   64  189 1    
   132   65   66 2    
   133   67   68 2    
   134   67   69 am   BACKBONE|DICT|INTERRES
   135   69   70 1    
   136   69  190 1    
   137   70   71 1    
   138   70   72 1    
   139   70  191 1    
   140   71  192 1    
   141   71  193 1    
   142   71  194 1    
   143   72   73 2    
   144   72   74 am   BACKBONE|DICT|INTERRES
   145   74   75 1    
   146   74  195 1    
   147   75   76 1    
   148   75   77 1    
   149   75  196 1    
   150   76  197 1    
   151   76  198 1    
   152   76  199 1    
   153   77   78 2    
   154   77   79 am   BACKBONE|DICT|INTERRES
   155   79   80 1    
   156   79  200 1    
   157   80   81 1    
   158   80   82 1    
   159   80  201 1    
   160   81  202 1    
   161   81  203 1    
   162   81  204 1    
   163   82   83 2    
   164   82   84 am   BACKBONE|DICT|INTERRES
   165   84   85 1    
   166   84  205 1    
   167   85   86 1    
   168   85   87 1    
   169   85  206 1    
   170   86  207 1    
   171   86  208 1    
   172   86  209 1    
   173   87   88 2    
   174   87   89 am   BACKBONE|DICT|INTERRES
   175   89   90 1    
   176   89  210 1    
   177   90   91 1    
   178   90   92 1    
   179   90  211 1    
   180   91  212 1    
   181   91  213 1    
   182   91  214 1    
   183   92   93 2    
   184   92   94 am   BACKBONE|DICT|INTERRES
   185   94   95 1    
   186   94  215 1    
   187   95   96 1    
   188   95   97 1    
   189   95  216 1    
   190   96  217 1    
   191   96  218 1    
   192   96  219 1    
   193   97   98 2    
   194   97   99 am   BACKBONE|DICT|INTERRES
   195   99  100 1    
   196   99  220 1    
   197  100  101 1    
   198  100  102 1    
   199  100  221 1    
   200  101  222 1    
   201  101  223 1    
   202  101  224 1    
   203  102  103 2    
   204  102  104 am   BACKBONE|DICT|INTERRES
   205  104  105 1    
   206  104  225 1    
   207  105  106 1    
   208  105  107 1    
   209  105  226 1    
   210  106  227 1    
   211  106  228 1    
   212  106  229 1    
   213  107  108 2    
   214  107  109 am   BACKBONE|DICT|INTERRES
   215  109  110 1    
   216  109  230 1    
   217  110  111 1    
   218  110  112 1    
   219  110  231 1    
   220  111  232 1    
   221  111  233 1    
   222  111  234 1    
   223  112  113 2    
   224  112  114 am   BACKBONE|DICT|INTERRES
   225  114  115 1    
   226  114  235 1    
   227  115  116 1    
   228  115  117 1    
   229  115  236 1    
   230  116  237 1    
   231  116  238 1    
   232  116  239 1    
   233  117  118 2    
   234  117  119 am   BACKBONE|DICT|INTERRES
   235  119  120 1    
   236  119  240 1    
   237  120  121 1    
   238  120  124 1    
   239  120  241 1    
   240  121  122 am   BACKBONE|DICT|INTERRES
   241  121  123 2    
   242  122  242 1    
   243  122  243 1    
   244  124  125 1    
   245  124  244 1    
   246  124  245 1    
   247  125  126 1    
   248  126  246 1    
   249  126  247 1    
@<TRIPOS>SUBSTRUCTURE
     1 UNK         1 GROUP             0       ****    0 ROOT    
