@<TRIPOS>MOLECULE
3R540
247   249    1
SMALL
USER_CHARGES


@<TRIPOS>ATOM
      1 CA         -3.9273  -16.7350  -45.9566 C.3       0 UNK        -0.1800 
      2 C          -2.6620  -16.0721  -46.4820 C.2       0 UNK         0.5000 
      3 O          -1.6358  -16.1044  -45.8058 O.2       0 UNK        -0.5000 
      4 N          -2.7523  -15.4906  -47.6864 N.am      1 UNK        -0.5000 
      5 CA         -1.7171  -14.7332  -48.4052 C.3       1 UNK         0.1400 
      6 C6         -0.3644  -15.4805  -48.5763 C.3       23 UNK        -0.0398 
      7 S7         -0.5372  -17.0285  -49.5277 S.3       23 UNK        -0.2404 
      8 C8          1.2161  -17.5044  -49.6812 C.3       23 UNK        -0.0205 
      9 C9          1.4692  -18.7555  -50.5220 C.ar      23 UNK        -0.0193 
     10 C10         0.7248  -19.0333  -51.6758 C.ar      23 UNK        -0.1150 
     11 C11         1.0392  -20.1297  -52.4849 C.ar      23 UNK        -0.0193 
     12 C12         2.0997  -20.9650  -52.1246 C.ar      23 UNK        -0.1150 
     13 C13         2.8557  -20.7018  -50.9796 C.ar      23 UNK        -0.0193 
     14 C14         2.5327  -19.5989  -50.1827 C.ar      23 UNK        -0.1150 
     15 C15         4.0632  -21.5705  -50.6532 C.3       23 UNK        -0.0205 
     16 S16         3.6157  -23.0845  -49.7477 S.3       23 UNK        -0.2404 
     17 C17         3.4301  -22.4463  -48.0490 C.3       23 UNK        -0.0398 
     18 CA          2.2548  -23.0856  -47.2747 C.3       11 UNK         0.1400 
     19 N           2.3703  -22.8040  -45.8429 N.am      11 UNK        -0.5000 
     20 C           1.5984  -23.3072  -44.8741 C.2       10 UNK         0.5000 
     21 O           0.7202  -24.1460  -45.0743 O.2       10 UNK        -0.5000 
     22 CA          1.7952  -22.7290  -43.4610 C.3       10 UNK         0.1400 
     23 CB          3.0078  -23.3608  -42.7542 C.3       10 UNK        -0.1800 
     24 N           1.8480  -21.2604  -43.4221 N.am      10 UNK        -0.5000 
     25 C           2.7788  -20.4201  -43.9017 C.2       9 UNK         0.5000 
     26 O           3.7829  -20.7812  -44.5167 O.2       9 UNK        -0.5000 
     27 CA          2.5359  -18.9172  -43.6709 C.3       9 UNK         0.1400 
     28 CB          1.7014  -18.3216  -44.8146 C.3       9 UNK        -0.1800 
     29 N           1.8654  -18.6522  -42.3992 N.am      9 UNK        -0.5000 
     30 C           2.4393  -18.7857  -41.1954 C.2       8 UNK         0.5000 
     31 O           3.6292  -19.0543  -41.0261 O.2       8 UNK        -0.5000 
     32 CA          1.5149  -18.6238  -39.9775 C.3       8 UNK         0.1400 
     33 CB          1.2676  -17.1397  -39.6634 C.3       8 UNK        -0.1800 
     34 N           0.2373  -19.3079  -40.1819 N.am      8 UNK        -0.5000 
     35 C           0.0717  -20.6364  -40.1046 C.2       7 UNK         0.5000 
     36 O           0.9723  -21.4206  -39.8061 O.2       7 UNK        -0.5000 
     37 CA         -1.3328  -21.1898  -40.4114 C.3       7 UNK         0.1400 
     38 CB         -2.1227  -21.4006  -39.1110 C.3       7 UNK        -0.1800 
     39 N          -2.1098  -20.3303  -41.3047 N.am      7 UNK        -0.5000 
     40 C          -1.9020  -20.2275  -42.6231 C.2       6 UNK         0.5000 
     41 O          -1.0187  -20.8313  -43.2328 O.2       6 UNK        -0.5000 
     42 CA         -2.8175  -19.2485  -43.3772 C.3       6 UNK         0.1400 
     43 CB         -4.2083  -19.8623  -43.5993 C.3       6 UNK        -0.1800 
     44 N          -2.9467  -17.9341  -42.7417 N.am      6 UNK        -0.5000 
     45 C          -1.9170  -17.1289  -42.4484 C.2       5 UNK         0.5000 
     46 O          -0.7326  -17.4727  -42.5135 O.2       5 UNK        -0.5000 
     47 CA         -2.2597  -15.7076  -41.9853 C.3       5 UNK         0.1400 
     48 CB         -2.5207  -15.6744  -40.4714 C.3       5 UNK        -0.1800 
     49 N          -1.1088  -14.8697  -42.2962 N.am      5 UNK        -0.5000 
     50 C          -1.1338  -13.7173  -42.9684 C.2       4 UNK         0.5000 
     51 O          -2.1669  -13.1061  -43.2560 O.2       4 UNK        -0.5000 
     52 CA          0.2415  -13.1635  -43.3761 C.3       4 UNK         0.1400 
     53 CB          1.0173  -14.1518  -44.2696 C.3       4 UNK        -0.1800 
     54 N           0.0812  -11.8999  -44.0861 N.am      4 UNK        -0.5000 
     55 C           0.9681  -10.8986  -44.0965 C.2       3 UNK         0.5000 
     56 O           2.0232  -10.9211  -43.4590 O.2       3 UNK        -0.5000 
     57 CA          0.6145   -9.6702  -44.9660 C.3       3 UNK         0.1400 
     58 CB          1.8456   -8.8070  -45.3150 C.3       3 UNK        -0.1800 
     59 N          -0.1386  -10.0069  -46.1818 N.am      3 UNK        -0.5000 
     60 C           0.2486  -10.8219  -47.1744 C.2       2 UNK         0.5000 
     61 O           1.3335  -11.4066  -47.2187 O.2       2 UNK        -0.5000 
     62 CA         -0.7558  -11.0043  -48.3264 C.3       2 UNK         0.1400 
     63 CB         -0.2794  -10.2634  -49.5857 C.3       2 UNK        -0.1800 
     64 N          -0.9707  -12.4150  -48.6510 N.am      2 UNK        -0.5000 
     65 C          -1.5351  -13.3101  -47.8283 C.2       1 UNK         0.5000 
     66 O          -1.9391  -13.0231  -46.6988 O.2       1 UNK        -0.5000 
     67 C           0.8818  -22.6450  -47.8279 C.2       11 UNK         0.5000 
     68 O           0.2993  -23.3494  -48.6494 O.2       11 UNK        -0.5000 
     69 N           0.3574  -21.5252  -47.3107 N.am      12 UNK        -0.5000 
     70 CA         -0.9695  -21.0053  -47.6308 C.3       12 UNK         0.1400 
     71 CB         -1.1155  -19.6187  -46.9999 C.3       12 UNK        -0.1800 
     72 C          -2.1071  -21.9351  -47.1645 C.2       12 UNK         0.5000 
     73 O          -3.0737  -22.1238  -47.9030 O.2       12 UNK        -0.5000 
     74 N          -1.9575  -22.5246  -45.9677 N.am      13 UNK        -0.5000 
     75 CA         -2.8725  -23.5339  -45.4309 C.3       13 UNK         0.1400 
     76 CB         -2.6130  -23.7506  -43.9318 C.3       13 UNK        -0.1800 
     77 C          -2.7863  -24.8644  -46.1977 C.2       13 UNK         0.5000 
     78 O          -3.8233  -25.4699  -46.4661 O.2       13 UNK        -0.5000 
     79 N          -1.5662  -25.2752  -46.5741 N.am      14 UNK        -0.5000 
     80 CA         -1.3066  -26.4581  -47.4009 C.3       14 UNK         0.1400 
     81 CB          0.2038  -26.7332  -47.4471 C.3       14 UNK        -0.1800 
     82 C          -1.8876  -26.3305  -48.8237 C.2       14 UNK         0.5000 
     83 O          -2.4164  -27.3065  -49.3565 O.2       14 UNK        -0.5000 
     84 N          -1.8176  -25.1186  -49.3914 N.am      15 UNK        -0.5000 
     85 CA         -2.4295  -24.7378  -50.6657 C.3       15 UNK         0.1400 
     86 CB         -1.8248  -23.4005  -51.1209 C.3       15 UNK        -0.1800 
     87 C          -3.9685  -24.6377  -50.6080 C.2       15 UNK         0.5000 
     88 O          -4.6079  -24.6195  -51.6604 O.2       15 UNK        -0.5000 
     89 N          -4.5310  -24.5578  -49.3927 N.am      16 UNK        -0.5000 
     90 CA         -5.9468  -24.4848  -49.0103 C.3       16 UNK         0.1400 
     91 CB         -6.7291  -25.7169  -49.5021 C.3       16 UNK        -0.1800 
     92 C          -6.6476  -23.1749  -49.4135 C.2       16 UNK         0.5000 
     93 O          -7.2867  -22.5452  -48.5705 O.2       16 UNK        -0.5000 
     94 N          -6.5037  -22.7771  -50.6816 N.am      17 UNK        -0.5000 
     95 CA         -7.0361  -21.5364  -51.2466 C.3       17 UNK         0.1400 
     96 CB         -7.3499  -21.7707  -52.7334 C.3       17 UNK        -0.1800 
     97 C          -6.0801  -20.3395  -51.0621 C.2       17 UNK         0.5000 
     98 O          -6.4186  -19.2324  -51.4831 O.2       17 UNK        -0.5000 
     99 N          -4.9065  -20.5753  -50.4543 N.am      18 UNK        -0.5000 
    100 CA        -3.8181  -19.6207  -50.2379 C.3       18 UNK         0.1400 
    101 CB        -4.2227  -18.5654  -49.1861 C.3       18 UNK        -0.1800 
    102 C         -3.3125  -19.0402  -51.5734 C.2       18 UNK         0.5000 
    103 O         -3.0331  -19.8156  -52.4872 O.2       18 UNK        -0.5000 
    104 N         -3.2249  -17.7079  -51.6863 N.am      19 UNK        -0.5000 
    105 CA        -2.7407  -16.9857  -52.8663 C.3       19 UNK         0.1400 
    106 CB        -2.7374  -15.4792  -52.5709 C.3       19 UNK        -0.1800 
    107 C         -3.5182  -17.2844  -54.1614 C.2       19 UNK         0.5000 
    108 O         -2.9258  -17.2506  -55.2395 O.2       19 UNK        -0.5000 
    109 N         -4.8079  -17.6298  -54.0457 N.am      20 UNK        -0.5000 
    110 CA        -5.6562  -18.0212  -55.1738 C.3       20 UNK         0.1400 
    111 CB        -7.1227  -18.0521  -54.7196 C.3       20 UNK        -0.1800 
    112 C         -5.2492  -19.3594  -55.8281 C.2       20 UNK         0.5000 
    113 O         -5.6727  -19.6244  -56.9538 O.2       20 UNK        -0.5000 
    114 N         -4.4298  -20.1694  -55.1402 N.am      21 UNK        -0.5000 
    115 CA        -3.8839  -21.4201  -55.6650 C.3       21 UNK         0.1400 
    116 CB        -3.4546  -22.3162  -54.4943 C.3       21 UNK        -0.1800 
    117 C         -2.6912  -21.2155  -56.6199 C.2       21 UNK         0.5000 
    118 O         -2.3570  -22.1557  -57.3429 O.2       21 UNK        -0.5000 
    119 N         -2.0502  -20.0364  -56.6020 N.am      22 UNK        -0.5000 
    120 CA        -0.8224  -19.7721  -57.3731 C.3       22 UNK         0.1400 
    121 C         -0.6937  -18.3476  -57.9832 C.2       22 UNK         0.5000 
    122 N         -1.5024  -17.3658  -57.6089 N.am      22 UNK        -0.7600 
    123 O          0.1467  -18.1332  -58.8530 O.2       22 UNK        -0.5000 
    124 C124        0.4535  -20.2260  -56.6140 C.3       23 UNK        -0.0398 
    125 S125        0.8245  -19.2711  -55.0973 S.3       23 UNK        -0.2404 
    126 C126        0.2693  -20.3904  -53.7719 C.3       23 UNK        -0.0205 
    127 H127       -4.1430  -16.3866  -44.9471 H         1 UNK         0.0600 
    128 H128       -4.7923  -16.5138  -46.5823 H         1 UNK         0.0600 
    129 H129       -3.7970  -17.8158  -45.9305 H         1 UNK         0.0600 
    130 H130       -3.6539  -15.4865  -48.1394 H         1 UNK         0.3000 
    131 H131       -2.1309  -14.5873  -49.4038 H         1 UNK         0.0600 
    132 H132        0.0949  -15.7011  -47.6123 H         1 UNK         0.0800 
    133 H133        0.3508  -14.8514  -49.1085 H         1 UNK         0.0800 
    134 H134        1.7699  -16.6785  -50.1292 H         1 UNK         0.0800 
    135 H135        1.6182  -17.6420  -48.6761 H         1 UNK         0.0800 
    136 H136       -0.0787  -18.3763  -51.9686 H         1 UNK         0.1150 
    137 H137        2.3583  -21.8062  -52.7524 H         1 UNK         0.1150 
    138 H138        3.1351  -19.3735  -49.3142 H         1 UNK         0.1150 
    139 H139        4.5594  -21.8577  -51.5814 H         1 UNK         0.0800 
    140 H140        4.8027  -21.0048  -50.0841 H         1 UNK         0.0800 
    141 H141        3.3372  -21.3602  -48.0546 H         1 UNK         0.0800 
    142 H142        4.3676  -22.6584  -47.5327 H         1 UNK         0.0800 
    143 H143        2.3218  -24.1694  -47.3880 H         1 UNK         0.0600 
    144 H144        3.0588  -22.1092  -45.5622 H         1 UNK         0.3000 
    145 H145        0.9073  -23.0016  -42.8879 H         1 UNK         0.0600 
    146 H146        3.1012  -22.9905  -41.7330 H         1 UNK         0.0600 
    147 H147        2.9027  -24.4449  -42.6993 H         1 UNK         0.0600 
    148 H148        3.9426  -23.1507  -43.2742 H         1 UNK         0.0600 
    149 H149        1.0127  -20.8376  -43.0318 H         1 UNK         0.3000 
    150 H150        3.5089  -18.4215  -43.6629 H         1 UNK         0.0600 
    151 H151        2.1195  -18.5749  -45.7898 H         1 UNK         0.0600 
    152 H152        1.6658  -17.2347  -44.7500 H         1 UNK         0.0600 
    153 H153        0.6747  -18.6835  -44.7853 H         1 UNK         0.0600 
    154 H154        0.8877  -18.3733  -42.4476 H         1 UNK         0.3000 
    155 H155        2.0139  -19.0699  -39.1144 H         1 UNK         0.0600 
    156 H156        0.7920  -16.6196  -40.4942 H         1 UNK         0.0600 
    157 H157        2.2070  -16.6268  -39.4539 H         1 UNK         0.0600 
    158 H158        0.6316  -17.0230  -38.7858 H         1 UNK         0.0600 
    159 H159       -0.5385  -18.7409  -40.4912 H         1 UNK         0.3000 
    160 H160       -1.2050  -22.1620  -40.8931 H         1 UNK         0.0600 
    161 H161       -3.0917  -21.8595  -39.3084 H         1 UNK         0.0600 
    162 H162       -2.2960  -20.4595  -38.5876 H         1 UNK         0.0600 
    163 H163       -1.5847  -22.0612  -38.4297 H         1 UNK         0.0600 
    164 H164       -2.8496  -19.7851  -40.8868 H         1 UNK         0.3000 
    165 H165       -2.3733  -19.0715  -44.3542 H         1 UNK         0.0600 
    166 H166       -4.8415  -19.2082  -44.1983 H         1 UNK         0.0600 
    167 H167       -4.1344  -20.8119  -44.1310 H         1 UNK         0.0600 
    168 H168       -4.7225  -20.0517  -42.6564 H         1 UNK         0.0600 
    169 H169       -3.8870  -17.5870  -42.6204 H         1 UNK         0.3000 
    170 H170       -3.1461  -15.3662  -42.5241 H         1 UNK         0.0600 
    171 H171       -3.3791  -16.2932  -40.2076 H         1 UNK         0.0600 
    172 H172       -1.6640  -16.0401  -39.9042 H         1 UNK         0.0600 
    173 H173       -2.7354  -14.6604  -40.1337 H         1 UNK         0.0600 
    174 H174       -0.2239  -15.3461  -42.1843 H         1 UNK         0.3000 
    175 H175        0.8039  -12.9940  -42.4555 H         1 UNK         0.0600 
    176 H176        0.4643  -14.3811  -45.1815 H         1 UNK         0.0600 
    177 H177        1.9858  -13.7460  -44.5621 H         1 UNK         0.0600 
    178 H178        1.2073  -15.0926  -43.7531 H         1 UNK         0.0600 
    179 H179       -0.7866  -11.8124  -44.6009 H         1 UNK         0.3000 
    180 H180       -0.0510   -9.0571  -44.3567 H         1 UNK         0.0600 
    181 H181        2.5907   -9.3724  -45.8755 H         1 UNK         0.0600 
    182 H182        2.3305   -8.4321  -44.4129 H         1 UNK         0.0600 
    183 H183        1.5631   -7.9402  -45.9125 H         1 UNK         0.0600 
    184 H184       -1.0570   -9.5894  -46.2436 H         1 UNK         0.3000 
    185 H185       -1.7181  -10.5819  -48.0288 H         1 UNK         0.0600 
    186 H186        0.6660  -10.6634  -49.9548 H         1 UNK         0.0600 
    187 H187       -1.0125  -10.3366  -50.3892 H         1 UNK         0.0600 
    188 H188       -0.1285   -9.2028  -49.3801 H         1 UNK         0.0600 
    189 H189       -0.6507  -12.7115  -49.5611 H         1 UNK         0.3000 
    190 H190        0.8912  -21.0172  -46.6228 H         1 UNK         0.3000 
    191 H191       -1.0341  -20.9018  -48.7156 H         1 UNK         0.0600 
    192 H192       -1.0139  -19.6760  -45.9197 H         1 UNK         0.0600 
    193 H193       -2.0867  -19.1787  -47.2236 H         1 UNK         0.0600 
    194 H194       -0.3503  -18.9344  -47.3630 H         1 UNK         0.0600 
    195 H195       -1.1365  -22.3198  -45.4163 H         1 UNK         0.3000 
    196 H196       -3.8927  -23.1596  -45.5414 H         1 UNK         0.0600 
    197 H197       -1.5721  -24.0011  -43.7285 H         1 UNK         0.0600 
    198 H198       -3.2271  -24.5635  -43.5422 H         1 UNK         0.0600 
    199 H199       -2.8638  -22.8622  -43.3557 H         1 UNK         0.0600 
    200 H200       -0.7571  -24.7496  -46.2578 H         1 UNK         0.3000 
    201 H201       -1.7909  -27.3104  -46.9200 H         1 UNK         0.0600 
    202 H202        0.6172  -26.8426  -46.4443 H         1 UNK         0.0600 
    203 H203        0.7450  -25.9306  -47.9471 H         1 UNK         0.0600 
    204 H204        0.4141  -27.6556  -47.9896 H         1 UNK         0.0600 
    205 H205       -1.2705  -24.3990  -48.9260 H         1 UNK         0.3000 
    206 H206       -2.1787  -25.4985  -51.4076 H         1 UNK         0.0600 
    207 H207       -0.7446  -23.4753  -51.2476 H         1 UNK         0.0600 
    208 H208       -2.2409  -23.0909  -52.0770 H         1 UNK         0.0600 
    209 H209       -2.0229  -22.6023  -50.4057 H         1 UNK         0.0600 
    210 H210       -3.8943  -24.5460  -48.6067 H         1 UNK         0.3000 
    211 H211       -5.9531  -24.5139  -47.9197 H         1 UNK         0.0600 
    212 H212       -6.7851  -25.7611  -50.5900 H         1 UNK         0.0600 
    213 H213       -7.7523  -25.7026  -49.1249 H         1 UNK         0.0600 
    214 H214       -6.2664  -26.6400  -49.1524 H         1 UNK         0.0600 
    215 H215       -5.9379  -23.3617  -51.2929 H         1 UNK         0.3000 
    216 H216       -7.9713  -21.2849  -50.7422 H         1 UNK         0.0600 
    217 H217       -7.8729  -20.9160  -53.1615 H         1 UNK         0.0600 
    218 H218       -7.9941  -22.6396  -52.8690 H         1 UNK         0.0600 
    219 H219       -6.4454  -21.9295  -53.3192 H         1 UNK         0.0600 
    220 H220       -4.7217  -21.5198  -50.1495 H         1 UNK         0.3000 
    221 H221       -2.9849  -20.1916  -49.8311 H         1 UNK         0.0600 
    222 H222       -5.0413  -17.9311  -49.5277 H         1 UNK         0.0600 
    223 H223       -4.5420  -19.0455  -48.2608 H         1 UNK         0.0600 
    224 H224       -3.3803  -17.9227  -48.9353 H         1 UNK         0.0600 
    225 H225       -3.4870  -17.1439  -50.8925 H         1 UNK         0.3000 
    226 H226       -1.7104  -17.2955  -53.0444 H         1 UNK         0.0600 
    227 H227       -2.0651  -15.2429  -51.7467 H         1 UNK         0.0600 
    228 H228       -2.3950  -14.9111  -53.4369 H         1 UNK         0.0600 
    229 H229       -3.7330  -15.1168  -52.3122 H         1 UNK         0.0600 
    230 H230       -5.2170  -17.6945  -53.1230 H         1 UNK         0.3000 
    231 H231       -5.5623  -17.2512  -55.9425 H         1 UNK         0.0600 
    232 H232       -7.4352  -17.0844  -54.3271 H         1 UNK         0.0600 
    233 H233       -7.2865  -18.7971  -53.9431 H         1 UNK         0.0600 
    234 H234       -7.7857  -18.2946  -55.5511 H         1 UNK         0.0600 
    235 H235       -4.1031  -19.8884  -54.2210 H         1 UNK         0.3000 
    236 H236       -4.6701  -21.9402  -56.2164 H         1 UNK         0.0600 
    237 H237       -3.1958  -23.3166  -54.8429 H         1 UNK         0.0600 
    238 H238       -2.5757  -21.9111  -53.9942 H         1 UNK         0.0600 
    239 H239       -4.2430  -22.4258  -53.7512 H         1 UNK         0.0600 
    240 H240       -2.3763  -19.2946  -55.9974 H         1 UNK         0.3000 
    241 H241       -0.8724  -20.3949  -58.2685 H         1 UNK         0.0600 
    242 H242       -1.3960  -16.4645  -58.0456 H         1 UNK         0.3800 
    243 H243       -2.1326  -17.4508  -56.8145 H         1 UNK         0.3800 
    244 H244        0.3790  -21.2863  -56.3714 H         1 UNK         0.0800 
    245 H245        1.3207  -20.1481  -57.2716 H         1 UNK         0.0800 
    246 H246       -0.7969  -20.2453  -53.6078 H         1 UNK         0.0800 
    247 H247        0.3956  -21.4306  -54.0749 H         1 UNK         0.0800 
@<TRIPOS>BOND
     1    1    2 1    
     2    1  127 1    
     3    1  128 1    
     4    1  129 1    
     5    2    3 2    
     6    2    4 am   BACKBONE|DICT|INTERRES
     7    4    5 1    
     8    4  130 1    
     9    5    6 1    
    10    5   65 1    
    11    5  131 1    
    12    6    7 1    
    13    6  132 1    
    14    6  133 1    
    15    7    8 1    
    16    8    9 1    
    17    8  134 1    
    18    8  135 1    
    19    9   10 ar   
    20    9   14 ar   
    21   10   11 ar   
    22   10  136 1    
    23   11   12 ar   
    24   11  126 1    
    25   12   13 ar   
    26   12  137 1    
    27   13   14 ar   
    28   13   15 1    
    29   14  138 1    
    30   15   16 1    
    31   15  139 1    
    32   15  140 1    
    33   16   17 1    
    34   17   18 1    
    35   17  141 1    
    36   17  142 1    
    37   18   19 1    
    38   18   67 1    
    39   18  143 1    
    40   19   20 am   BACKBONE|DICT|INTERRES
    41   19  144 1    
    42   20   21 2    
    43   20   22 1    
    44   22   23 1    
    45   22   24 1    
    46   22  145 1    
    47   23  146 1    
    48   23  147 1    
    49   23  148 1    
    50   24   25 am   BACKBONE|DICT|INTERRES
    51   24  149 1    
    52   25   26 2    
    53   25   27 1    
    54   27   28 1    
    55   27   29 1    
    56   27  150 1    
    57   28  151 1    
    58   28  152 1    
    59   28  153 1    
    60   29   30 am   BACKBONE|DICT|INTERRES
    61   29  154 1    
    62   30   31 2    
    63   30   32 1    
    64   32   33 1    
    65   32   34 1    
    66   32  155 1    
    67   33  156 1    
    68   33  157 1    
    69   33  158 1    
    70   34   35 am   BACKBONE|DICT|INTERRES
    71   34  159 1    
    72   35   36 2    
    73   35   37 1    
    74   37   38 1    
    75   37   39 1    
    76   37  160 1    
    77   38  161 1    
    78   38  162 1    
    79   38  163 1    
    80   39   40 am   BACKBONE|DICT|INTERRES
    81   39  164 1    
    82   40   41 2    
    83   40   42 1    
    84   42   43 1    
    85   42   44 1    
    86   42  165 1    
    87   43  166 1    
    88   43  167 1    
    89   43  168 1    
    90   44   45 am   BACKBONE|DICT|INTERRES
    91   44  169 1    
    92   45   46 2    
    93   45   47 1    
    94   47   48 1    
    95   47   49 1    
    96   47  170 1    
    97   48  171 1    
    98   48  172 1    
    99   48  173 1    
   100   49   50 am   BACKBONE|DICT|INTERRES
   101   49  174 1    
   102   50   51 2    
   103   50   52 1    
   104   52   53 1    
   105   52   54 1    
   106   52  175 1    
   107   53  176 1    
   108   53  177 1    
   109   53  178 1    
   110   54   55 am   BACKBONE|DICT|INTERRES
   111   54  179 1    
   112   55   56 2    
   113   55   57 1    
   114   57   58 1    
   115   57   59 1    
   116   57  180 1    
   117   58  181 1    
   118   58  182 1    
   119   58  183 1    
   120   59   60 am   BACKBONE|DICT|INTERRES
   121   59  184 1    
   122   60   61 2    
   123   60   62 1    
   124   62   63 1    
   125   62   64 1    
   126   62  185 1    
   127   63  186 1    
   128   63  187 1    
   129   63  188 1    
   130   64   65 am   BACKBONE|DICT|INTERRES
   131   64  189 1    
   132   65   66 2    
   133   67   68 2    
   134   67   69 am   BACKBONE|DICT|INTERRES
   135   69   70 1    
   136   69  190 1    
   137   70   71 1    
   138   70   72 1    
   139   70  191 1    
   140   71  192 1    
   141   71  193 1    
   142   71  194 1    
   143   72   73 2    
   144   72   74 am   BACKBONE|DICT|INTERRES
   145   74   75 1    
   146   74  195 1    
   147   75   76 1    
   148   75   77 1    
   149   75  196 1    
   150   76  197 1    
   151   76  198 1    
   152   76  199 1    
   153   77   78 2    
   154   77   79 am   BACKBONE|DICT|INTERRES
   155   79   80 1    
   156   79  200 1    
   157   80   81 1    
   158   80   82 1    
   159   80  201 1    
   160   81  202 1    
   161   81  203 1    
   162   81  204 1    
   163   82   83 2    
   164   82   84 am   BACKBONE|DICT|INTERRES
   165   84   85 1    
   166   84  205 1    
   167   85   86 1    
   168   85   87 1    
   169   85  206 1    
   170   86  207 1    
   171   86  208 1    
   172   86  209 1    
   173   87   88 2    
   174   87   89 am   BACKBONE|DICT|INTERRES
   175   89   90 1    
   176   89  210 1    
   177   90   91 1    
   178   90   92 1    
   179   90  211 1    
   180   91  212 1    
   181   91  213 1    
   182   91  214 1    
   183   92   93 2    
   184   92   94 am   BACKBONE|DICT|INTERRES
   185   94   95 1    
   186   94  215 1    
   187   95   96 1    
   188   95   97 1    
   189   95  216 1    
   190   96  217 1    
   191   96  218 1    
   192   96  219 1    
   193   97   98 2    
   194   97   99 am   BACKBONE|DICT|INTERRES
   195   99  100 1    
   196   99  220 1    
   197  100  101 1    
   198  100  102 1    
   199  100  221 1    
   200  101  222 1    
   201  101  223 1    
   202  101  224 1    
   203  102  103 2    
   204  102  104 am   BACKBONE|DICT|INTERRES
   205  104  105 1    
   206  104  225 1    
   207  105  106 1    
   208  105  107 1    
   209  105  226 1    
   210  106  227 1    
   211  106  228 1    
   212  106  229 1    
   213  107  108 2    
   214  107  109 am   BACKBONE|DICT|INTERRES
   215  109  110 1    
   216  109  230 1    
   217  110  111 1    
   218  110  112 1    
   219  110  231 1    
   220  111  232 1    
   221  111  233 1    
   222  111  234 1    
   223  112  113 2    
   224  112  114 am   BACKBONE|DICT|INTERRES
   225  114  115 1    
   226  114  235 1    
   227  115  116 1    
   228  115  117 1    
   229  115  236 1    
   230  116  237 1    
   231  116  238 1    
   232  116  239 1    
   233  117  118 2    
   234  117  119 am   BACKBONE|DICT|INTERRES
   235  119  120 1    
   236  119  240 1    
   237  120  121 1    
   238  120  124 1    
   239  120  241 1    
   240  121  122 am   BACKBONE|DICT|INTERRES
   241  121  123 2    
   242  122  242 1    
   243  122  243 1    
   244  124  125 1    
   245  124  244 1    
   246  124  245 1    
   247  125  126 1    
   248  126  246 1    
   249  126  247 1    
@<TRIPOS>SUBSTRUCTURE
     1 UNK         1 GROUP             0       ****    0 ROOT    
