@<TRIPOS>MOLECULE
3R540
247   249    1
SMALL
USER_CHARGES


@<TRIPOS>ATOM
      1 CA         -2.4782  -12.2209  -45.4644 C.3       0 UNK        -0.1800 
      2 C          -1.6898  -13.4960  -45.7507 C.2       0 UNK         0.5000 
      3 O          -1.8085  -14.4626  -45.0032 O.2       0 UNK        -0.5000 
      4 N          -0.8781  -13.5562  -46.8154 N.am      1 UNK        -0.5000 
      5 CA         -0.6261  -12.5114  -47.8167 C.3       1 UNK         0.1400 
      6 C6         -0.3373  -13.1198  -49.2144 C.3       23 UNK        -0.0398 
      7 S7          1.1856  -14.1320  -49.3689 S.3       23 UNK        -0.2404 
      8 C8          0.7111  -15.8397  -48.9171 C.3       23 UNK        -0.0205 
      9 C9         -0.6521  -16.2721  -49.4340 C.ar      23 UNK        -0.0193 
     10 C10        -0.8198  -16.6921  -50.7553 C.ar      23 UNK        -0.1150 
     11 C11        -2.0785  -17.0957  -51.2157 C.ar      23 UNK        -0.0193 
     12 C12        -3.1776  -17.0480  -50.3502 C.ar      23 UNK        -0.1150 
     13 C13        -3.0207  -16.6180  -49.0301 C.ar      23 UNK        -0.0193 
     14 C14        -1.7529  -16.2551  -48.5765 C.ar      23 UNK        -0.1150 
     15 C15        -4.2159  -16.5039  -48.0949 C.3       23 UNK        -0.0205 
     16 S16        -4.7024  -18.0979  -47.3677 S.3       23 UNK        -0.2404 
     17 C17        -3.1883  -18.6196  -46.4912 C.3       23 UNK        -0.0398 
     18 CA         -2.5263  -19.8347  -47.1878 C.3       11 UNK         0.1400 
     19 N          -1.0797  -19.8948  -46.9588 N.am      11 UNK        -0.5000 
     20 C          -0.2537  -20.7741  -47.5459 C.2       10 UNK         0.5000 
     21 O          -0.6125  -21.5938  -48.3905 O.2       10 UNK        -0.5000 
     22 CA          1.2077  -20.7864  -47.0638 C.3       10 UNK         0.1400 
     23 CB          2.0227  -19.6872  -47.7623 C.3       10 UNK        -0.1800 
     24 N           1.3189  -20.6550  -45.6090 N.am      10 UNK        -0.5000 
     25 C           0.8312  -21.5437  -44.7297 C.2       9 UNK         0.5000 
     26 O           0.2990  -22.6028  -45.0579 O.2       9 UNK        -0.5000 
     27 CA          0.8928  -21.1698  -43.2373 C.3       9 UNK         0.1400 
     28 CB          2.2690  -21.5026  -42.6442 C.3       9 UNK        -0.1800 
     29 N           0.5728  -19.7631  -42.9943 N.am      9 UNK        -0.5000 
     30 C          -0.6096  -19.1911  -43.2669 C.2       8 UNK         0.5000 
     31 O          -1.5839  -19.8067  -43.7013 O.2       8 UNK        -0.5000 
     32 CA         -0.6931  -17.6642  -43.0850 C.3       8 UNK         0.1400 
     33 CB         -0.9352  -17.2897  -41.6154 C.3       8 UNK        -0.1800 
     34 N           0.5135  -16.9970  -43.5752 N.am      8 UNK        -0.5000 
     35 C           0.8654  -16.9499  -44.8675 C.2       7 UNK         0.5000 
     36 O           0.1709  -17.4009  -45.7784 O.2       7 UNK        -0.5000 
     37 CA          2.2520  -16.3638  -45.1886 C.3       7 UNK         0.1400 
     38 CB          2.2026  -14.8360  -45.3139 C.3       7 UNK        -0.1800 
     39 N           3.2429  -16.7335  -44.1791 N.am      7 UNK        -0.5000 
     40 C           3.7871  -17.9552  -44.0816 C.2       6 UNK         0.5000 
     41 O           3.5201  -18.8777  -44.8498 O.2       6 UNK        -0.5000 
     42 CA          4.7657  -18.2050  -42.9173 C.3       6 UNK         0.1400 
     43 CB          6.2056  -17.8971  -43.3536 C.3       6 UNK        -0.1800 
     44 N           4.4521  -17.4253  -41.7206 N.am      6 UNK        -0.5000 
     45 C           3.3175  -17.5207  -41.0133 C.2       5 UNK         0.5000 
     46 O           2.4301  -18.3377  -41.2574 O.2       5 UNK        -0.5000 
     47 CA          3.1169  -16.4918  -39.8829 C.3       5 UNK         0.1400 
     48 CB          3.5400  -17.0885  -38.5328 C.3       5 UNK        -0.1800 
     49 N           3.8354  -15.2299  -40.1015 N.am      5 UNK        -0.5000 
     50 C           3.6156  -14.3934  -41.1252 C.2       4 UNK         0.5000 
     51 O           2.7922  -14.6096  -42.0168 O.2       4 UNK        -0.5000 
     52 CA          4.5276  -13.1568  -41.2100 C.3       4 UNK         0.1400 
     53 CB          5.7052  -13.4372  -42.1570 C.3       4 UNK        -0.1800 
     54 N           3.8100  -11.9769  -41.6889 N.am      4 UNK        -0.5000 
     55 C           2.8689  -11.3179  -40.9993 C.2       3 UNK         0.5000 
     56 O           2.5360  -11.6117  -39.8500 O.2       3 UNK        -0.5000 
     57 CA          2.2005  -10.1118  -41.6927 C.3       3 UNK         0.1400 
     58 CB          2.7820   -8.7949  -41.1542 C.3       3 UNK        -0.1800 
     59 N           2.3245  -10.1188  -43.1543 N.am      3 UNK        -0.5000 
     60 C           1.6617  -10.9534  -43.9637 C.2       2 UNK         0.5000 
     61 O           0.8742  -11.8137  -43.5601 O.2       2 UNK        -0.5000 
     62 CA          1.9231  -10.8002  -45.4713 C.3       2 UNK         0.1400 
     63 CB          3.3787  -11.1404  -45.8384 C.3       2 UNK        -0.1800 
     64 N           1.0164  -11.6965  -46.1759 N.am      2 UNK        -0.5000 
     65 C           0.4445  -11.4881  -47.3660 C.2       1 UNK         0.5000 
     66 O           0.7029  -10.5209  -48.0833 O.2       1 UNK        -0.5000 
     67 C          -3.2275  -21.1479  -46.7811 C.2       11 UNK         0.5000 
     68 O          -4.0361  -21.6724  -47.5484 O.2       11 UNK        -0.5000 
     69 N          -2.8815  -21.6661  -45.5935 N.am      12 UNK        -0.5000 
     70 CA         -3.3902  -22.9272  -45.0558 C.3       12 UNK         0.1400 
     71 CB         -2.9355  -23.0889  -43.5976 C.3       12 UNK        -0.1800 
     72 C          -2.9781  -24.1430  -45.9050 C.2       12 UNK         0.5000 
     73 O          -3.8260  -24.9832  -46.2058 O.2       12 UNK        -0.5000 
     74 N          -1.7041  -24.1907  -46.3202 N.am      13 UNK        -0.5000 
     75 CA         -1.1464  -25.2187  -47.2035 C.3       13 UNK         0.1400 
     76 CB          0.3739  -25.0300  -47.3139 C.3       13 UNK        -0.1800 
     77 C          -1.7933  -25.2291  -48.6013 C.2       13 UNK         0.5000 
     78 O          -2.0058  -26.3026  -49.1653 O.2       13 UNK        -0.5000 
     79 N          -2.1314  -24.0389  -49.1139 N.am      14 UNK        -0.5000 
     80 CA         -2.8587  -23.8416  -50.3671 C.3       14 UNK         0.1400 
     81 CB         -2.5257  -22.4480  -50.9179 C.3       14 UNK        -0.1800 
     82 C          -4.3840  -24.0298  -50.2370 C.2       14 UNK         0.5000 
     83 O          -5.0889  -23.8799  -51.2368 O.2       14 UNK        -0.5000 
     84 N          -4.8748  -24.3273  -49.0240 N.am      15 UNK        -0.5000 
     85 CA         -6.2801  -24.5254  -48.6585 C.3       15 UNK         0.1400 
     86 CB         -6.8215  -25.8228  -49.2947 C.3       15 UNK        -0.1800 
     87 C          -7.1470  -23.2869  -48.9645 C.2       15 UNK         0.5000 
     88 O          -8.2273  -23.4142  -49.5403 O.2       15 UNK        -0.5000 
     89 N          -6.6269  -22.1037  -48.6065 N.am      16 UNK        -0.5000 
     90 CA         -7.1786  -20.7752  -48.8933 C.3       16 UNK         0.1400 
     91 CB         -8.5311  -20.5598  -48.1822 C.3       16 UNK        -0.1800 
     92 C          -7.2204  -20.4729  -50.4062 C.2       16 UNK         0.5000 
     93 O          -8.1901  -19.8953  -50.9003 O.2       16 UNK        -0.5000 
     94 N          -6.1536  -20.8885  -51.1055 N.am      17 UNK        -0.5000 
     95 CA         -5.9269  -20.7793  -52.5512 C.3       17 UNK         0.1400 
     96 CB         -5.8852  -19.3026  -52.9974 C.3       17 UNK        -0.1800 
     97 C          -6.8926  -21.6355  -53.3998 C.2       17 UNK         0.5000 
     98 O          -7.1180  -21.3220  -54.5703 O.2       17 UNK        -0.5000 
     99 N          -7.4391  -22.7082  -52.8101 N.am      18 UNK        -0.5000 
    100 CA        -8.2542  -23.7035  -53.5077 C.3       18 UNK         0.1400 
    101 CB        -9.1807  -24.4040  -52.5038 C.3       18 UNK        -0.1800 
    102 C         -7.3886  -24.7354  -54.2542 C.2       18 UNK         0.5000 
    103 O         -7.8355  -25.2788  -55.2659 O.2       18 UNK        -0.5000 
    104 N         -6.1726  -24.9883  -53.7508 N.am      19 UNK        -0.5000 
    105 CA        -5.1674  -25.8373  -54.3874 C.3       19 UNK         0.1400 
    106 CB        -4.1687  -26.2993  -53.3125 C.3       19 UNK        -0.1800 
    107 C         -4.4350  -25.0962  -55.5244 C.2       19 UNK         0.5000 
    108 O         -4.6170  -23.8909  -55.7099 O.2       19 UNK        -0.5000 
    109 N         -3.5817  -25.8331  -56.2484 N.am      20 UNK        -0.5000 
    110 CA        -2.6887  -25.2928  -57.2797 C.3       20 UNK         0.1400 
    111 CB        -2.1542  -26.4540  -58.1326 C.3       20 UNK        -0.1800 
    112 C         -1.5204  -24.4639  -56.7024 C.2       20 UNK         0.5000 
    113 O         -0.9338  -23.6563  -57.4254 O.2       20 UNK        -0.5000 
    114 N         -1.1999  -24.6794  -55.4183 N.am      21 UNK        -0.5000 
    115 CA        -0.2114  -23.9206  -54.6526 C.3       21 UNK         0.1400 
    116 CB        -0.0049  -24.6082  -53.2943 C.3       21 UNK        -0.1800 
    117 C         -0.6228  -22.4469  -54.4595 C.2       21 UNK         0.5000 
    118 O         -1.8131  -22.1353  -54.4657 O.2       21 UNK        -0.5000 
    119 N          0.3872  -21.5853  -54.2960 N.am      22 UNK        -0.5000 
    120 CA         0.3154  -20.1188  -54.1488 C.3       22 UNK         0.1400 
    121 C         -0.1320  -19.3191  -55.4126 C.2       22 UNK         0.5000 
    122 N         -0.4495  -19.9560  -56.5334 N.am      22 UNK        -0.7600 
    123 O         -0.1306  -18.0914  -55.3973 O.2       22 UNK        -0.5000 
    124 C124       -0.3296  -19.6462  -52.8075 C.3       23 UNK        -0.0398 
    125 S125       -2.1412  -19.3716  -52.8008 S.3       23 UNK        -0.2404 
    126 C126       -2.2611  -17.5601  -52.6525 C.3       23 UNK        -0.0205 
    127 H127       -3.2299  -12.0529  -46.2354 H         1 UNK         0.0600 
    128 H128       -1.8221  -11.3525  -45.4140 H         1 UNK         0.0600 
    129 H129       -2.9935  -12.2997  -44.5070 H         1 UNK         0.0600 
    130 H130       -0.3701  -14.4121  -46.9747 H         1 UNK         0.3000 
    131 H131       -1.5434  -11.9323  -47.9338 H         1 UNK         0.0600 
    132 H132       -0.2537  -12.3135  -49.9450 H         1 UNK         0.0800 
    133 H133       -1.2006  -13.6927  -49.5502 H         1 UNK         0.0800 
    134 H134        0.7434  -15.9380  -47.8348 H         1 UNK         0.0800 
    135 H135        1.4723  -16.5239  -49.2945 H         1 UNK         0.0800 
    136 H136        0.0304  -16.6998  -51.4218 H         1 UNK         0.1150 
    137 H137       -4.1560  -17.3401  -50.7035 H         1 UNK         0.1150 
    138 H138       -1.6286  -15.9478  -47.5498 H         1 UNK         0.1150 
    139 H139       -4.0061  -15.7954  -47.2916 H         1 UNK         0.0800 
    140 H140       -5.0656  -16.0947  -48.6432 H         1 UNK         0.0800 
    141 H141       -3.4406  -18.8360  -45.4517 H         1 UNK         0.0800 
    142 H142       -2.4961  -17.7810  -46.4393 H         1 UNK         0.0800 
    143 H143       -2.6481  -19.7209  -48.2677 H         1 UNK         0.0600 
    144 H144       -0.6903  -19.2236  -46.3059 H         1 UNK         0.3000 
    145 H145        1.6390  -21.7504  -47.3406 H         1 UNK         0.0600 
    146 H146        3.0730  -19.7310  -47.4742 H         1 UNK         0.0600 
    147 H147        1.6507  -18.6916  -47.5240 H         1 UNK         0.0600 
    148 H148        1.9778  -19.8000  -48.8462 H         1 UNK         0.0600 
    149 H149        1.8148  -19.8409  -45.2617 H         1 UNK         0.3000 
    150 H150        0.1463  -21.7704  -42.7138 H         1 UNK         0.0600 
    151 H151        2.4895  -22.5657  -42.7480 H         1 UNK         0.0600 
    152 H152        2.3107  -21.2629  -41.5815 H         1 UNK         0.0600 
    153 H153        3.0665  -20.9540  -43.1437 H         1 UNK         0.0600 
    154 H154        1.3036  -19.1935  -42.5776 H         1 UNK         0.3000 
    155 H155       -1.5411  -17.3025  -43.6710 H         1 UNK         0.0600 
    156 H156       -0.1237  -17.6249  -40.9695 H         1 UNK         0.0600 
    157 H157       -1.8555  -17.7441  -41.2465 H         1 UNK         0.0600 
    158 H158       -1.0349  -16.2107  -41.4963 H         1 UNK         0.0600 
    159 H159        1.1436  -16.6145  -42.8849 H         1 UNK         0.3000 
    160 H160        2.5756  -16.7675  -46.1504 H         1 UNK         0.0600 
    161 H161        1.7563  -14.3681  -44.4360 H         1 UNK         0.0600 
    162 H162        1.6186  -14.5352  -46.1804 H         1 UNK         0.0600 
    163 H163        3.2025  -14.4239  -45.4446 H         1 UNK         0.0600 
    164 H164        3.4516  -16.0362  -43.4749 H         1 UNK         0.3000 
    165 H165        4.7065  -19.2622  -42.6526 H         1 UNK         0.0600 
    166 H166        6.9183  -18.1450  -42.5668 H         1 UNK         0.0600 
    167 H167        6.4797  -18.4802  -44.2339 H         1 UNK         0.0600 
    168 H168        6.3340  -16.8433  -43.6044 H         1 UNK         0.0600 
    169 H169        5.1275  -16.7291  -41.4433 H         1 UNK         0.3000 
    170 H170        2.0499  -16.2639  -39.8377 H         1 UNK         0.0600 
    171 H171        3.0037  -18.0169  -38.3311 H         1 UNK         0.0600 
    172 H172        4.6069  -17.3138  -38.5084 H         1 UNK         0.0600 
    173 H173        3.3212  -16.4044  -37.7127 H         1 UNK         0.0600 
    174 H174        4.5393  -14.9921  -39.4172 H         1 UNK         0.3000 
    175 H175        4.9226  -12.9369  -40.2160 H         1 UNK         0.0600 
    176 H176        6.3841  -12.5856  -42.2054 H         1 UNK         0.0600 
    177 H177        6.2871  -14.2950  -41.8172 H         1 UNK         0.0600 
    178 H178        5.3646  -13.6527  -43.1709 H         1 UNK         0.0600 
    179 H179        3.9982  -11.6847  -42.6352 H         1 UNK         0.3000 
    180 H180        1.1384  -10.1413  -41.4396 H         1 UNK         0.0600 
    181 H181        2.2642   -7.9330  -41.5754 H         1 UNK         0.0600 
    182 H182        3.8429   -8.6982  -41.3880 H         1 UNK         0.0600 
    183 H183        2.6783   -8.7355  -40.0699 H         1 UNK         0.0600 
    184 H184        2.9501   -9.4348  -43.5554 H         1 UNK         0.3000 
    185 H185        1.7055   -9.7664  -45.7478 H         1 UNK         0.0600 
    186 H186        3.5306  -11.1106  -46.9175 H         1 UNK         0.0600 
    187 H187        4.0744  -10.4266  -45.3965 H         1 UNK         0.0600 
    188 H188        3.6621  -12.1328  -45.4891 H         1 UNK         0.0600 
    189 H189        0.6898  -12.4684  -45.6080 H         1 UNK         0.3000 
    190 H190       -2.2354  -21.1469  -45.0063 H         1 UNK         0.3000 
    191 H191       -4.4808  -22.8723  -45.0643 H         1 UNK         0.0600 
    192 H192       -3.2730  -22.2528  -42.9848 H         1 UNK         0.0600 
    193 H193       -1.8504  -23.1456  -43.5153 H         1 UNK         0.0600 
    194 H194       -3.3455  -24.0002  -43.1606 H         1 UNK         0.0600 
    195 H195       -1.0552  -23.4809  -45.9867 H         1 UNK         0.3000 
    196 H196       -1.3371  -26.1902  -46.7434 H         1 UNK         0.0600 
    197 H197        0.8517  -25.0994  -46.3365 H         1 UNK         0.0600 
    198 H198        0.6278  -24.0600  -47.7421 H         1 UNK         0.0600 
    199 H199        0.8187  -25.7971  -47.9490 H         1 UNK         0.0600 
    200 H200       -1.8629  -23.1971  -48.6134 H         1 UNK         0.3000 
    201 H201       -2.5103  -24.5824  -51.0858 H         1 UNK         0.0600 
    202 H202       -1.4507  -22.3214  -51.0457 H         1 UNK         0.0600 
    203 H203       -2.8790  -21.6556  -50.2568 H         1 UNK         0.0600 
    204 H204       -2.9817  -22.2938  -51.8959 H         1 UNK         0.0600 
    205 H205       -4.2194  -24.4053  -48.2561 H         1 UNK         0.3000 
    206 H206       -6.3040  -24.6531  -47.5755 H         1 UNK         0.0600 
    207 H207       -6.8234  -25.7727  -50.3835 H         1 UNK         0.0600 
    208 H208       -6.2177  -26.6822  -49.0031 H         1 UNK         0.0600 
    209 H209       -7.8443  -26.0215  -48.9728 H         1 UNK         0.0600 
    210 H210       -5.7061  -22.0973  -48.1690 H         1 UNK         0.3000 
    211 H211       -6.4735  -20.0638  -48.4670 H         1 UNK         0.0600 
    212 H212       -9.3177  -21.1879  -48.6008 H         1 UNK         0.0600 
    213 H213       -8.8579  -19.5237  -48.2762 H         1 UNK         0.0600 
    214 H214       -8.4552  -20.7797  -47.1174 H         1 UNK         0.0600 
    215 H215       -5.4404  -21.3940  -50.5999 H         1 UNK         0.3000 
    216 H216       -4.9349  -21.1964  -52.7278 H         1 UNK         0.0600 
    217 H217       -5.5103  -19.2150  -54.0177 H         1 UNK         0.0600 
    218 H218       -5.2233  -18.7181  -52.3602 H         1 UNK         0.0600 
    219 H219       -6.8722  -18.8406  -52.9710 H         1 UNK         0.0600 
    220 H220       -7.1923  -22.9104  -51.8499 H         1 UNK         0.3000 
    221 H221       -8.8817  -23.1972  -54.2441 H         1 UNK         0.0600 
    222 H222       -8.6169  -24.9691  -51.7619 H         1 UNK         0.0600 
    223 H223       -9.8051  -23.6845  -51.9737 H         1 UNK         0.0600 
    224 H224       -9.8467  -25.1034  -53.0106 H         1 UNK         0.0600 
    225 H225       -5.8697  -24.4800  -52.9250 H         1 UNK         0.3000 
    226 H226       -5.6609  -26.7161  -54.8076 H         1 UNK         0.0600 
    227 H227       -4.6812  -26.7222  -52.4479 H         1 UNK         0.0600 
    228 H228       -3.4981  -27.0684  -53.6969 H         1 UNK         0.0600 
    229 H229       -3.5519  -25.4713  -52.9648 H         1 UNK         0.0600 
    230 H230       -3.4944  -26.8201  -56.0524 H         1 UNK         0.3000 
    231 H231       -3.2693  -24.6328  -57.9279 H         1 UNK         0.0600 
    232 H232       -1.5085  -26.0869  -58.9316 H         1 UNK         0.0600 
    233 H233       -2.9682  -27.0059  -58.6029 H         1 UNK         0.0600 
    234 H234       -1.5707  -27.1566  -57.5362 H         1 UNK         0.0600 
    235 H235       -1.7539  -25.3439  -54.9017 H         1 UNK         0.3000 
    236 H236        0.7308  -23.9479  -55.2040 H         1 UNK         0.0600 
    237 H237       -0.9324  -24.6511  -52.7256 H         1 UNK         0.0600 
    238 H238        0.3593  -25.6281  -53.4188 H         1 UNK         0.0600 
    239 H239        0.7273  -24.0740  -52.6874 H         1 UNK         0.0600 
    240 H240        1.3273  -21.9540  -54.3223 H         1 UNK         0.3000 
    241 H241        1.3689  -19.8497  -54.0633 H         1 UNK         0.0600 
    242 H242       -0.7147  -19.4233  -57.3467 H         1 UNK         0.3800 
    243 H243       -0.4750  -20.9635  -56.5630 H         1 UNK         0.3800 
    244 H244        0.1569  -18.7210  -52.5030 H         1 UNK         0.0800 
    245 H245       -0.0977  -20.3565  -52.0132 H         1 UNK         0.0800 
    246 H246       -1.5315  -17.0814  -53.3068 H         1 UNK         0.0800 
    247 H247       -3.2403  -17.2450  -53.0154 H         1 UNK         0.0800 
@<TRIPOS>BOND
     1    1    2 1    
     2    1  127 1    
     3    1  128 1    
     4    1  129 1    
     5    2    3 2    
     6    2    4 am   BACKBONE|DICT|INTERRES
     7    4    5 1    
     8    4  130 1    
     9    5    6 1    
    10    5   65 1    
    11    5  131 1    
    12    6    7 1    
    13    6  132 1    
    14    6  133 1    
    15    7    8 1    
    16    8    9 1    
    17    8  134 1    
    18    8  135 1    
    19    9   10 ar   
    20    9   14 ar   
    21   10   11 ar   
    22   10  136 1    
    23   11   12 ar   
    24   11  126 1    
    25   12   13 ar   
    26   12  137 1    
    27   13   14 ar   
    28   13   15 1    
    29   14  138 1    
    30   15   16 1    
    31   15  139 1    
    32   15  140 1    
    33   16   17 1    
    34   17   18 1    
    35   17  141 1    
    36   17  142 1    
    37   18   19 1    
    38   18   67 1    
    39   18  143 1    
    40   19   20 am   BACKBONE|DICT|INTERRES
    41   19  144 1    
    42   20   21 2    
    43   20   22 1    
    44   22   23 1    
    45   22   24 1    
    46   22  145 1    
    47   23  146 1    
    48   23  147 1    
    49   23  148 1    
    50   24   25 am   BACKBONE|DICT|INTERRES
    51   24  149 1    
    52   25   26 2    
    53   25   27 1    
    54   27   28 1    
    55   27   29 1    
    56   27  150 1    
    57   28  151 1    
    58   28  152 1    
    59   28  153 1    
    60   29   30 am   BACKBONE|DICT|INTERRES
    61   29  154 1    
    62   30   31 2    
    63   30   32 1    
    64   32   33 1    
    65   32   34 1    
    66   32  155 1    
    67   33  156 1    
    68   33  157 1    
    69   33  158 1    
    70   34   35 am   BACKBONE|DICT|INTERRES
    71   34  159 1    
    72   35   36 2    
    73   35   37 1    
    74   37   38 1    
    75   37   39 1    
    76   37  160 1    
    77   38  161 1    
    78   38  162 1    
    79   38  163 1    
    80   39   40 am   BACKBONE|DICT|INTERRES
    81   39  164 1    
    82   40   41 2    
    83   40   42 1    
    84   42   43 1    
    85   42   44 1    
    86   42  165 1    
    87   43  166 1    
    88   43  167 1    
    89   43  168 1    
    90   44   45 am   BACKBONE|DICT|INTERRES
    91   44  169 1    
    92   45   46 2    
    93   45   47 1    
    94   47   48 1    
    95   47   49 1    
    96   47  170 1    
    97   48  171 1    
    98   48  172 1    
    99   48  173 1    
   100   49   50 am   BACKBONE|DICT|INTERRES
   101   49  174 1    
   102   50   51 2    
   103   50   52 1    
   104   52   53 1    
   105   52   54 1    
   106   52  175 1    
   107   53  176 1    
   108   53  177 1    
   109   53  178 1    
   110   54   55 am   BACKBONE|DICT|INTERRES
   111   54  179 1    
   112   55   56 2    
   113   55   57 1    
   114   57   58 1    
   115   57   59 1    
   116   57  180 1    
   117   58  181 1    
   118   58  182 1    
   119   58  183 1    
   120   59   60 am   BACKBONE|DICT|INTERRES
   121   59  184 1    
   122   60   61 2    
   123   60   62 1    
   124   62   63 1    
   125   62   64 1    
   126   62  185 1    
   127   63  186 1    
   128   63  187 1    
   129   63  188 1    
   130   64   65 am   BACKBONE|DICT|INTERRES
   131   64  189 1    
   132   65   66 2    
   133   67   68 2    
   134   67   69 am   BACKBONE|DICT|INTERRES
   135   69   70 1    
   136   69  190 1    
   137   70   71 1    
   138   70   72 1    
   139   70  191 1    
   140   71  192 1    
   141   71  193 1    
   142   71  194 1    
   143   72   73 2    
   144   72   74 am   BACKBONE|DICT|INTERRES
   145   74   75 1    
   146   74  195 1    
   147   75   76 1    
   148   75   77 1    
   149   75  196 1    
   150   76  197 1    
   151   76  198 1    
   152   76  199 1    
   153   77   78 2    
   154   77   79 am   BACKBONE|DICT|INTERRES
   155   79   80 1    
   156   79  200 1    
   157   80   81 1    
   158   80   82 1    
   159   80  201 1    
   160   81  202 1    
   161   81  203 1    
   162   81  204 1    
   163   82   83 2    
   164   82   84 am   BACKBONE|DICT|INTERRES
   165   84   85 1    
   166   84  205 1    
   167   85   86 1    
   168   85   87 1    
   169   85  206 1    
   170   86  207 1    
   171   86  208 1    
   172   86  209 1    
   173   87   88 2    
   174   87   89 am   BACKBONE|DICT|INTERRES
   175   89   90 1    
   176   89  210 1    
   177   90   91 1    
   178   90   92 1    
   179   90  211 1    
   180   91  212 1    
   181   91  213 1    
   182   91  214 1    
   183   92   93 2    
   184   92   94 am   BACKBONE|DICT|INTERRES
   185   94   95 1    
   186   94  215 1    
   187   95   96 1    
   188   95   97 1    
   189   95  216 1    
   190   96  217 1    
   191   96  218 1    
   192   96  219 1    
   193   97   98 2    
   194   97   99 am   BACKBONE|DICT|INTERRES
   195   99  100 1    
   196   99  220 1    
   197  100  101 1    
   198  100  102 1    
   199  100  221 1    
   200  101  222 1    
   201  101  223 1    
   202  101  224 1    
   203  102  103 2    
   204  102  104 am   BACKBONE|DICT|INTERRES
   205  104  105 1    
   206  104  225 1    
   207  105  106 1    
   208  105  107 1    
   209  105  226 1    
   210  106  227 1    
   211  106  228 1    
   212  106  229 1    
   213  107  108 2    
   214  107  109 am   BACKBONE|DICT|INTERRES
   215  109  110 1    
   216  109  230 1    
   217  110  111 1    
   218  110  112 1    
   219  110  231 1    
   220  111  232 1    
   221  111  233 1    
   222  111  234 1    
   223  112  113 2    
   224  112  114 am   BACKBONE|DICT|INTERRES
   225  114  115 1    
   226  114  235 1    
   227  115  116 1    
   228  115  117 1    
   229  115  236 1    
   230  116  237 1    
   231  116  238 1    
   232  116  239 1    
   233  117  118 2    
   234  117  119 am   BACKBONE|DICT|INTERRES
   235  119  120 1    
   236  119  240 1    
   237  120  121 1    
   238  120  124 1    
   239  120  241 1    
   240  121  122 am   BACKBONE|DICT|INTERRES
   241  121  123 2    
   242  122  242 1    
   243  122  243 1    
   244  124  125 1    
   245  124  244 1    
   246  124  245 1    
   247  125  126 1    
   248  126  246 1    
   249  126  247 1    
@<TRIPOS>SUBSTRUCTURE
     1 UNK         1 GROUP             0       ****    0 ROOT    
