@<TRIPOS>MOLECULE
3R540
247   249    1
SMALL
USER_CHARGES


@<TRIPOS>ATOM
      1 CA          3.7293  -11.7626  -50.6796 C.3       0 UNK        -0.1800 
      2 C           4.3167  -12.4226  -49.4401 C.2       0 UNK         0.5000 
      3 O           5.4751  -12.1752  -49.1048 O.2       0 UNK        -0.5000 
      4 N           3.5226  -13.2619  -48.7630 N.am      1 UNK        -0.5000 
      5 CA          3.9118  -13.9935  -47.5494 C.3       1 UNK         0.1400 
      6 C6          2.9105  -15.1241  -47.2140 C.3       23 UNK        -0.0398 
      7 S7          2.8472  -16.4325  -48.4832 S.3       23 UNK        -0.2404 
      8 C8          1.1513  -16.2435  -49.1158 C.3       23 UNK        -0.0205 
      9 C9          0.7795  -17.4015  -50.0275 C.ar      23 UNK        -0.0193 
     10 C10         1.0197  -17.3316  -51.4033 C.ar      23 UNK        -0.1150 
     11 C11         0.6877  -18.4052  -52.2366 C.ar      23 UNK        -0.0193 
     12 C12         0.1135  -19.5531  -51.6829 C.ar      23 UNK        -0.1150 
     13 C13        -0.1380  -19.6300  -50.3107 C.ar      23 UNK        -0.0193 
     14 C14         0.1948  -18.5505  -49.4896 C.ar      23 UNK        -0.1150 
     15 C15        -0.7799  -20.8761  -49.7254 C.3       23 UNK        -0.0205 
     16 S16         0.4657  -22.1244  -49.2875 S.3       23 UNK        -0.2404 
     17 C17         0.8744  -21.6137  -47.5846 C.3       23 UNK        -0.0398 
     18 CA          0.5061  -22.6673  -46.5136 C.3       11 UNK         0.1400 
     19 N           1.1148  -22.3092  -45.2342 N.am      11 UNK        -0.5000 
     20 C           1.3102  -23.1111  -44.1811 C.2       10 UNK         0.5000 
     21 O           1.0188  -24.3074  -44.1779 O.2       10 UNK        -0.5000 
     22 CA          1.8686  -22.4381  -42.9061 C.3       10 UNK         0.1400 
     23 CB          2.8776  -23.3305  -42.1557 C.3       10 UNK        -0.1800 
     24 N           2.4041  -21.0887  -43.1485 N.am      10 UNK        -0.5000 
     25 C           3.4956  -20.7460  -43.8517 C.2       9 UNK         0.5000 
     26 O           4.2945  -21.5559  -44.3213 O.2       9 UNK        -0.5000 
     27 CA          3.7027  -19.2434  -44.1332 C.3       9 UNK         0.1400 
     28 CB          3.3457  -18.9275  -45.5941 C.3       9 UNK        -0.1800 
     29 N           2.9172  -18.3638  -43.2654 N.am      9 UNK        -0.5000 
     30 C           3.1815  -18.1307  -41.9727 C.2       8 UNK         0.5000 
     31 O           4.1390  -18.6149  -41.3691 O.2       8 UNK        -0.5000 
     32 CA          2.1850  -17.2289  -41.2261 C.3       8 UNK         0.1400 
     33 CB          2.5080  -15.7446  -41.4632 C.3       8 UNK        -0.1800 
     34 N           0.8039  -17.5158  -41.6237 N.am      8 UNK        -0.5000 
     35 C           0.0951  -18.5610  -41.1691 C.2       7 UNK         0.5000 
     36 O           0.5118  -19.3451  -40.3168 O.2       7 UNK        -0.5000 
     37 CA         -1.2985  -18.7979  -41.7830 C.3       7 UNK         0.1400 
     38 CB         -2.3958  -18.1557  -40.9236 C.3       7 UNK        -0.1800 
     39 N          -1.4032  -18.3038  -43.1559 N.am      7 UNK        -0.5000 
     40 C          -0.8657  -18.9286  -44.2122 C.2       6 UNK         0.5000 
     41 O          -0.2754  -20.0056  -44.1368 O.2       6 UNK        -0.5000 
     42 CA         -0.9692  -18.2320  -45.5807 C.3       6 UNK         0.1400 
     43 CB         -2.1921  -18.7395  -46.3592 C.3       6 UNK        -0.1800 
     44 N          -1.0154  -16.7723  -45.4972 N.am      6 UNK        -0.5000 
     45 C          -0.0473  -16.0099  -44.9728 C.2       5 UNK         0.5000 
     46 O           0.9935  -16.4707  -44.5004 O.2       5 UNK        -0.5000 
     47 CA         -0.2750  -14.4884  -44.9462 C.3       5 UNK         0.1400 
     48 CB         -1.5210  -14.0094  -45.7241 C.3       5 UNK        -0.1800 
     49 N          -0.2800  -13.9731  -43.5789 N.am      5 UNK        -0.5000 
     50 C          -1.1430  -14.2595  -42.5937 C.2       4 UNK         0.5000 
     51 O          -2.0510  -15.0839  -42.7119 O.2       4 UNK        -0.5000 
     52 CA         -0.9666  -13.5131  -41.2502 C.3       4 UNK         0.1400 
     53 CB         -1.0439  -14.4738  -40.0512 C.3       4 UNK        -0.1800 
     54 N           0.2818  -12.7475  -41.1673 N.am      4 UNK        -0.5000 
     55 C           0.4724  -11.5161  -41.6600 C.2       3 UNK         0.5000 
     56 O          -0.4135  -10.8570  -42.2065 O.2       3 UNK        -0.5000 
     57 CA          1.8969  -10.9240  -41.5651 C.3       3 UNK         0.1400 
     58 CB          2.8841  -11.7707  -40.7285 C.3       3 UNK        -0.1800 
     59 N           2.4598  -10.6509  -42.8938 N.am      3 UNK        -0.5000 
     60 C           2.6314  -11.5329  -43.8902 C.2       2 UNK         0.5000 
     61 O           2.3182  -12.7220  -43.8003 O.2       2 UNK        -0.5000 
     62 CA          3.2111  -10.9706  -45.2084 C.3       2 UNK         0.1400 
     63 CB          4.5673  -10.2648  -44.9927 C.3       2 UNK        -0.1800 
     64 N           3.3078  -11.9716  -46.2812 N.am      2 UNK        -0.5000 
     65 C           4.0878  -13.0656  -46.3255 C.2       1 UNK         0.5000 
     66 O           4.9197  -13.3624  -45.4668 O.2       1 UNK        -0.5000 
     67 C          -1.0202  -22.8800  -46.3777 C.2       11 UNK         0.5000 
     68 O          -1.6142  -23.5700  -47.2055 O.2       11 UNK        -0.5000 
     69 N          -1.6317  -22.3483  -45.3079 N.am      12 UNK        -0.5000 
     70 CA         -3.0365  -22.5563  -44.9403 C.3       12 UNK         0.1400 
     71 CB         -3.3565  -21.7236  -43.6895 C.3       12 UNK        -0.1800 
     72 C          -3.4224  -24.0357  -44.7193 C.2       12 UNK         0.5000 
     73 O          -4.5944  -24.3781  -44.8729 O.2       12 UNK        -0.5000 
     74 N          -2.4365  -24.8878  -44.3985 N.am      13 UNK        -0.5000 
     75 CA         -2.5907  -26.3406  -44.3073 C.3       13 UNK         0.1400 
     76 CB         -1.3636  -26.9320  -43.5973 C.3       13 UNK        -0.1800 
     77 C          -2.7947  -27.0095  -45.6826 C.2       13 UNK         0.5000 
     78 O          -3.5170  -28.0033  -45.7681 O.2       13 UNK        -0.5000 
     79 N          -2.1687  -26.4528  -46.7298 N.am      14 UNK        -0.5000 
     80 CA         -2.3495  -26.8686  -48.1226 C.3       14 UNK         0.1400 
     81 CB         -1.0775  -26.5414  -48.9216 C.3       14 UNK        -0.1800 
     82 C          -3.5761  -26.1876  -48.7565 C.2       14 UNK         0.5000 
     83 O          -4.2513  -26.8007  -49.5833 O.2       14 UNK        -0.5000 
     84 N          -3.8360  -24.9382  -48.3423 N.am      15 UNK        -0.5000 
     85 CA         -4.9554  -24.0734  -48.7255 C.3       15 UNK         0.1400 
     86 CB         -6.3085  -24.6941  -48.3226 C.3       15 UNK        -0.1800 
     87 C          -4.9151  -23.6250  -50.2002 C.2       15 UNK         0.5000 
     88 O          -5.9537  -23.2858  -50.7705 O.2       15 UNK        -0.5000 
     89 N          -3.7107  -23.5632  -50.7883 N.am      16 UNK        -0.5000 
     90 CA         -3.4866  -23.1355  -52.1743 C.3       16 UNK         0.1400 
     91 CB         -2.0343  -23.4315  -52.5823 C.3       16 UNK        -0.1800 
     92 C          -3.8671  -21.6641  -52.4493 C.2       16 UNK         0.5000 
     93 O          -4.1105  -21.3138  -53.6017 O.2       16 UNK        -0.5000 
     94 N          -3.9463  -20.8467  -51.3890 N.am      17 UNK        -0.5000 
     95 CA         -4.4269  -19.4647  -51.4208 C.3       17 UNK         0.1400 
     96 CB         -3.9122  -18.7281  -50.1738 C.3       17 UNK        -0.1800 
     97 C          -5.9625  -19.3577  -51.5150 C.2       17 UNK         0.5000 
     98 O          -6.4637  -18.3290  -51.9701 O.2       17 UNK        -0.5000 
     99 N          -6.6839  -20.4011  -51.0795 N.am      18 UNK        -0.5000 
    100 CA        -8.1366  -20.5086  -51.2261 C.3       18 UNK         0.1400 
    101 CB        -8.7105  -21.3415  -50.0688 C.3       18 UNK        -0.1800 
    102 C         -8.5058  -21.1304  -52.5842 C.2       18 UNK         0.5000 
    103 O         -9.5211  -20.7543  -53.1720 O.2       18 UNK        -0.5000 
    104 N         -7.6676  -22.0608  -53.0601 N.am      19 UNK        -0.5000 
    105 CA        -7.7466  -22.6668  -54.3865 C.3       19 UNK         0.1400 
    106 CB        -6.8614  -23.9237  -54.3999 C.3       19 UNK        -0.1800 
    107 C         -7.3061  -21.6919  -55.4966 C.2       19 UNK         0.5000 
    108 O         -6.6947  -20.6562  -55.2245 O.2       19 UNK        -0.5000 
    109 N         -7.5713  -22.0766  -56.7510 N.am      20 UNK        -0.5000 
    110 CA        -7.2012  -21.3288  -57.9587 C.3       20 UNK         0.1400 
    111 CB        -7.9139  -21.9631  -59.1640 C.3       20 UNK        -0.1800 
    112 C         -5.6801  -21.2330  -58.2167 C.2       20 UNK         0.5000 
    113 O         -5.2663  -20.4583  -59.0801 O.2       20 UNK        -0.5000 
    114 N         -4.8800  -22.0190  -57.4813 N.am      21 UNK        -0.5000 
    115 CA        -3.4184  -22.0422  -57.5367 C.3       21 UNK         0.1400 
    116 CB        -2.9028  -23.1849  -56.6480 C.3       21 UNK        -0.1800 
    117 C         -2.7656  -20.7047  -57.1364 C.2       21 UNK         0.5000 
    118 O         -1.7925  -20.2976  -57.7729 O.2       21 UNK        -0.5000 
    119 N         -3.3100  -20.0462  -56.1064 N.am      22 UNK        -0.5000 
    120 CA        -2.8270  -18.7574  -55.5900 C.3       22 UNK         0.1400 
    121 C         -3.9498  -17.8359  -55.0294 C.2       22 UNK         0.5000 
    122 N         -5.2057  -18.2564  -54.9439 N.am      22 UNK        -0.7600 
    123 O         -3.6858  -16.6899  -54.6780 O.2       22 UNK        -0.5000 
    124 C124       -1.6537  -18.9489  -54.5866 C.3       23 UNK        -0.0398 
    125 S125       -0.4253  -17.5998  -54.6495 S.3       23 UNK        -0.2404 
    126 C126        0.9655  -18.3324  -53.7309 C.3       23 UNK        -0.0205 
    127 H127        3.7348  -10.6786  -50.5655 H         1 UNK         0.0600 
    128 H128        2.7023  -12.0804  -50.8611 H         1 UNK         0.0600 
    129 H129        4.3235  -12.0172  -51.5572 H         1 UNK         0.0600 
    130 H130        2.5905  -13.4407  -49.1059 H         1 UNK         0.3000 
    131 H131        4.8844  -14.4535  -47.7382 H         1 UNK         0.0600 
    132 H132        1.9137  -14.7089  -47.0791 H         1 UNK         0.0800 
    133 H133        3.1707  -15.6001  -46.2666 H         1 UNK         0.0800 
    134 H134        0.4501  -16.1965  -48.2809 H         1 UNK         0.0800 
    135 H135        1.0625  -15.2976  -49.6517 H         1 UNK         0.0800 
    136 H136        1.4711  -16.4444  -51.8248 H         1 UNK         0.1150 
    137 H137       -0.1389  -20.3887  -52.3205 H         1 UNK         0.1150 
    138 H138        0.0064  -18.6036  -48.4295 H         1 UNK         0.1150 
    139 H139       -1.3970  -20.6285  -48.8608 H         1 UNK         0.0800 
    140 H140       -1.4584  -21.3057  -50.4563 H         1 UNK         0.0800 
    141 H141        1.9505  -21.4346  -47.5650 H         1 UNK         0.0800 
    142 H142        0.4143  -20.6545  -47.3486 H         1 UNK         0.0800 
    143 H143        0.9326  -23.6247  -46.8205 H         1 UNK         0.0600 
    144 H144        1.2969  -21.3264  -45.0871 H         1 UNK         0.3000 
    145 H145        1.0094  -22.2962  -42.2489 H         1 UNK         0.0600 
    146 H146        3.2644  -22.8286  -41.2688 H         1 UNK         0.0600 
    147 H147        2.4061  -24.2563  -41.8242 H         1 UNK         0.0600 
    148 H148        3.7247  -23.6071  -42.7834 H         1 UNK         0.0600 
    149 H149        1.8044  -20.3337  -42.8448 H         1 UNK         0.3000 
    150 H150        4.7620  -19.0245  -43.9832 H         1 UNK         0.0600 
    151 H151        3.9071  -19.5576  -46.2852 H         1 UNK         0.0600 
    152 H152        3.5847  -17.8933  -45.8371 H         1 UNK         0.0600 
    153 H153        2.2854  -19.0817  -45.7945 H         1 UNK         0.0600 
    154 H154        2.1484  -17.8607  -43.6983 H         1 UNK         0.3000 
    155 H155        2.2947  -17.4259  -40.1574 H         1 UNK         0.0600 
    156 H156        2.3488  -15.4463  -42.4995 H         1 UNK         0.0600 
    157 H157        3.5495  -15.5294  -41.2209 H         1 UNK         0.0600 
    158 H158        1.8968  -15.1051  -40.8304 H         1 UNK         0.0600 
    159 H159        0.4245  -16.9589  -42.3771 H         1 UNK         0.3000 
    160 H160       -1.4717  -19.8763  -41.7892 H         1 UNK         0.0600 
    161 H161       -2.3020  -17.0714  -40.8965 H         1 UNK         0.0600 
    162 H162       -2.3497  -18.5161  -39.8952 H         1 UNK         0.0600 
    163 H163       -3.3870  -18.3961  -41.3084 H         1 UNK         0.0600 
    164 H164       -1.8559  -17.4080  -43.2876 H         1 UNK         0.3000 
    165 H165       -0.0706  -18.4968  -46.1388 H         1 UNK         0.0600 
    166 H166       -3.1233  -18.5038  -45.8425 H         1 UNK         0.0600 
    167 H167       -2.2410  -18.2970  -47.3543 H         1 UNK         0.0600 
    168 H168       -2.1551  -19.8211  -46.4893 H         1 UNK         0.0600 
    169 H169       -1.8539  -16.3230  -45.8358 H         1 UNK         0.3000 
    170 H170        0.5947  -14.0390  -45.4219 H         1 UNK         0.0600 
    171 H171       -1.4752  -14.3165  -46.7698 H         1 UNK         0.0600 
    172 H172       -2.4498  -14.3944  -45.3021 H         1 UNK         0.0600 
    173 H173       -1.5855  -12.9212  -45.7155 H         1 UNK         0.0600 
    174 H174        0.5001  -13.3583  -43.3682 H         1 UNK         0.3000 
    175 H175       -1.8046  -12.8183  -41.1665 H         1 UNK         0.0600 
    176 H176       -2.0362  -14.9188  -39.9761 H         1 UNK         0.0600 
    177 H177       -0.3247  -15.2883  -40.1301 H         1 UNK         0.0600 
    178 H178       -0.8593  -13.9515  -39.1123 H         1 UNK         0.0600 
    179 H179        1.0725  -13.2212  -40.7567 H         1 UNK         0.3000 
    180 H180        1.7896   -9.9590  -41.0677 H         1 UNK         0.0600 
    181 H181        3.8443  -11.2631  -40.6361 H         1 UNK         0.0600 
    182 H182        2.5111  -11.9295  -39.7160 H         1 UNK         0.0600 
    183 H183        3.0750  -12.7472  -41.1743 H         1 UNK         0.0600 
    184 H184        2.6986   -9.6847  -43.0667 H         1 UNK         0.3000 
    185 H185        2.4996  -10.2243  -45.5645 H         1 UNK         0.0600 
    186 H186        4.9922   -9.9310  -45.9394 H         1 UNK         0.0600 
    187 H187        4.4598   -9.3820  -44.3621 H         1 UNK         0.0600 
    188 H188        5.2951  -10.9190  -44.5119 H         1 UNK         0.0600 
    189 H189        2.6659  -11.8369  -47.0488 H         1 UNK         0.3000 
    190 H190       -1.0852  -21.7558  -44.6920 H         1 UNK         0.3000 
    191 H191       -3.6503  -22.1853  -45.7636 H         1 UNK         0.0600 
    192 H192       -4.3838  -21.8863  -43.3606 H         1 UNK         0.0600 
    193 H193       -3.2510  -20.6577  -43.8877 H         1 UNK         0.0600 
    194 H194       -2.6999  -21.9797  -42.8572 H         1 UNK         0.0600 
    195 H195       -1.5003  -24.5252  -44.2817 H         1 UNK         0.3000 
    196 H196       -3.4721  -26.5540  -43.6988 H         1 UNK         0.0600 
    197 H197       -1.4626  -28.0120  -43.4810 H         1 UNK         0.0600 
    198 H198       -1.2412  -26.5076  -42.6006 H         1 UNK         0.0600 
    199 H199       -0.4457  -26.7445  -44.1561 H         1 UNK         0.0600 
    200 H200       -1.6339  -25.6071  -46.5830 H         1 UNK         0.3000 
    201 H201       -2.5046  -27.9489  -48.1616 H         1 UNK         0.0600 
    202 H202       -0.8667  -25.4716  -48.9361 H         1 UNK         0.0600 
    203 H203       -1.1742  -26.8689  -49.9575 H         1 UNK         0.0600 
    204 H204       -0.2083  -27.0473  -48.5011 H         1 UNK         0.0600 
    205 H205       -3.1490  -24.5071  -47.7294 H         1 UNK         0.3000 
    206 H206       -4.8337  -23.1621  -48.1386 H         1 UNK         0.0600 
    207 H207       -6.3054  -24.9970  -47.2753 H         1 UNK         0.0600 
    208 H208       -7.1211  -23.9779  -48.4489 H         1 UNK         0.0600 
    209 H209       -6.5501  -25.5695  -48.9259 H         1 UNK         0.0600 
    210 H210       -2.9014  -23.8537  -50.2588 H         1 UNK         0.3000 
    211 H211       -4.1301  -23.7476  -52.8070 H         1 UNK         0.0600 
    212 H212       -1.3104  -22.9577  -51.9224 H         1 UNK         0.0600 
    213 H213       -1.8296  -23.0802  -53.5942 H         1 UNK         0.0600 
    214 H214       -1.8382  -24.5038  -52.5688 H         1 UNK         0.0600 
    215 H215       -3.7380  -21.2300  -50.4805 H         1 UNK         0.3000 
    216 H216       -4.0129  -18.9699  -52.2996 H         1 UNK         0.0600 
    217 H217       -4.2729  -17.6989  -50.1512 H         1 UNK         0.0600 
    218 H218       -2.8242  -18.6832  -50.1644 H         1 UNK         0.0600 
    219 H219       -4.2400  -19.2112  -49.2527 H         1 UNK         0.0600 
    220 H220       -6.2066  -21.2331  -50.7563 H         1 UNK         0.3000 
    221 H221       -8.5856  -19.5144  -51.1763 H         1 UNK         0.0600 
    222 H222       -8.3470  -22.3690  -50.0862 H         1 UNK         0.0600 
    223 H223       -8.4487  -20.9088  -49.1032 H         1 UNK         0.0600 
    224 H224       -9.7991  -21.3809  -50.1234 H         1 UNK         0.0600 
    225 H225       -6.8736  -22.3229  -52.4912 H         1 UNK         0.3000 
    226 H226       -8.7819  -22.9605  -54.5709 H         1 UNK         0.0600 
    227 H227       -7.0850  -24.5782  -53.5569 H         1 UNK         0.0600 
    228 H228       -7.0164  -24.5052  -55.3093 H         1 UNK         0.0600 
    229 H229       -5.8036  -23.6668  -54.3554 H         1 UNK         0.0600 
    230 H230       -8.0610  -22.9470  -56.9013 H         1 UNK         0.3000 
    231 H231       -7.5691  -20.3069  -57.8444 H         1 UNK         0.0600 
    232 H232       -7.7018  -21.4116  -60.0809 H         1 UNK         0.0600 
    233 H233       -8.9958  -21.9602  -59.0301 H         1 UNK         0.0600 
    234 H234       -7.5962  -22.9947  -59.3209 H         1 UNK         0.0600 
    235 H235       -5.3141  -22.6190  -56.7973 H         1 UNK         0.3000 
    236 H236       -3.1286  -22.2544  -58.5679 H         1 UNK         0.0600 
    237 H237       -3.2271  -23.0660  -55.6139 H         1 UNK         0.0600 
    238 H238       -3.2610  -24.1518  -57.0017 H         1 UNK         0.0600 
    239 H239       -1.8126  -23.2223  -56.6493 H         1 UNK         0.0600 
    240 H240       -4.0530  -20.4832  -55.5729 H         1 UNK         0.3000 
    241 H241       -2.4481  -18.2049  -56.4520 H         1 UNK         0.0600 
    242 H242       -5.5041  -19.2001  -55.1725 H         1 UNK         0.3800 
    243 H243       -5.8890  -17.6275  -54.5537 H         1 UNK         0.3800 
    244 H244       -1.1203  -19.8745  -54.8069 H         1 UNK         0.0800 
    245 H245       -2.0225  -19.0596  -53.5666 H         1 UNK         0.0800 
    246 H246        1.8572  -17.7291  -53.9078 H         1 UNK         0.0800 
    247 H247        1.1902  -19.3239  -54.1272 H         1 UNK         0.0800 
@<TRIPOS>BOND
     1    1    2 1    
     2    1  127 1    
     3    1  128 1    
     4    1  129 1    
     5    2    3 2    
     6    2    4 am   BACKBONE|DICT|INTERRES
     7    4    5 1    
     8    4  130 1    
     9    5    6 1    
    10    5   65 1    
    11    5  131 1    
    12    6    7 1    
    13    6  132 1    
    14    6  133 1    
    15    7    8 1    
    16    8    9 1    
    17    8  134 1    
    18    8  135 1    
    19    9   10 ar   
    20    9   14 ar   
    21   10   11 ar   
    22   10  136 1    
    23   11   12 ar   
    24   11  126 1    
    25   12   13 ar   
    26   12  137 1    
    27   13   14 ar   
    28   13   15 1    
    29   14  138 1    
    30   15   16 1    
    31   15  139 1    
    32   15  140 1    
    33   16   17 1    
    34   17   18 1    
    35   17  141 1    
    36   17  142 1    
    37   18   19 1    
    38   18   67 1    
    39   18  143 1    
    40   19   20 am   BACKBONE|DICT|INTERRES
    41   19  144 1    
    42   20   21 2    
    43   20   22 1    
    44   22   23 1    
    45   22   24 1    
    46   22  145 1    
    47   23  146 1    
    48   23  147 1    
    49   23  148 1    
    50   24   25 am   BACKBONE|DICT|INTERRES
    51   24  149 1    
    52   25   26 2    
    53   25   27 1    
    54   27   28 1    
    55   27   29 1    
    56   27  150 1    
    57   28  151 1    
    58   28  152 1    
    59   28  153 1    
    60   29   30 am   BACKBONE|DICT|INTERRES
    61   29  154 1    
    62   30   31 2    
    63   30   32 1    
    64   32   33 1    
    65   32   34 1    
    66   32  155 1    
    67   33  156 1    
    68   33  157 1    
    69   33  158 1    
    70   34   35 am   BACKBONE|DICT|INTERRES
    71   34  159 1    
    72   35   36 2    
    73   35   37 1    
    74   37   38 1    
    75   37   39 1    
    76   37  160 1    
    77   38  161 1    
    78   38  162 1    
    79   38  163 1    
    80   39   40 am   BACKBONE|DICT|INTERRES
    81   39  164 1    
    82   40   41 2    
    83   40   42 1    
    84   42   43 1    
    85   42   44 1    
    86   42  165 1    
    87   43  166 1    
    88   43  167 1    
    89   43  168 1    
    90   44   45 am   BACKBONE|DICT|INTERRES
    91   44  169 1    
    92   45   46 2    
    93   45   47 1    
    94   47   48 1    
    95   47   49 1    
    96   47  170 1    
    97   48  171 1    
    98   48  172 1    
    99   48  173 1    
   100   49   50 am   BACKBONE|DICT|INTERRES
   101   49  174 1    
   102   50   51 2    
   103   50   52 1    
   104   52   53 1    
   105   52   54 1    
   106   52  175 1    
   107   53  176 1    
   108   53  177 1    
   109   53  178 1    
   110   54   55 am   BACKBONE|DICT|INTERRES
   111   54  179 1    
   112   55   56 2    
   113   55   57 1    
   114   57   58 1    
   115   57   59 1    
   116   57  180 1    
   117   58  181 1    
   118   58  182 1    
   119   58  183 1    
   120   59   60 am   BACKBONE|DICT|INTERRES
   121   59  184 1    
   122   60   61 2    
   123   60   62 1    
   124   62   63 1    
   125   62   64 1    
   126   62  185 1    
   127   63  186 1    
   128   63  187 1    
   129   63  188 1    
   130   64   65 am   BACKBONE|DICT|INTERRES
   131   64  189 1    
   132   65   66 2    
   133   67   68 2    
   134   67   69 am   BACKBONE|DICT|INTERRES
   135   69   70 1    
   136   69  190 1    
   137   70   71 1    
   138   70   72 1    
   139   70  191 1    
   140   71  192 1    
   141   71  193 1    
   142   71  194 1    
   143   72   73 2    
   144   72   74 am   BACKBONE|DICT|INTERRES
   145   74   75 1    
   146   74  195 1    
   147   75   76 1    
   148   75   77 1    
   149   75  196 1    
   150   76  197 1    
   151   76  198 1    
   152   76  199 1    
   153   77   78 2    
   154   77   79 am   BACKBONE|DICT|INTERRES
   155   79   80 1    
   156   79  200 1    
   157   80   81 1    
   158   80   82 1    
   159   80  201 1    
   160   81  202 1    
   161   81  203 1    
   162   81  204 1    
   163   82   83 2    
   164   82   84 am   BACKBONE|DICT|INTERRES
   165   84   85 1    
   166   84  205 1    
   167   85   86 1    
   168   85   87 1    
   169   85  206 1    
   170   86  207 1    
   171   86  208 1    
   172   86  209 1    
   173   87   88 2    
   174   87   89 am   BACKBONE|DICT|INTERRES
   175   89   90 1    
   176   89  210 1    
   177   90   91 1    
   178   90   92 1    
   179   90  211 1    
   180   91  212 1    
   181   91  213 1    
   182   91  214 1    
   183   92   93 2    
   184   92   94 am   BACKBONE|DICT|INTERRES
   185   94   95 1    
   186   94  215 1    
   187   95   96 1    
   188   95   97 1    
   189   95  216 1    
   190   96  217 1    
   191   96  218 1    
   192   96  219 1    
   193   97   98 2    
   194   97   99 am   BACKBONE|DICT|INTERRES
   195   99  100 1    
   196   99  220 1    
   197  100  101 1    
   198  100  102 1    
   199  100  221 1    
   200  101  222 1    
   201  101  223 1    
   202  101  224 1    
   203  102  103 2    
   204  102  104 am   BACKBONE|DICT|INTERRES
   205  104  105 1    
   206  104  225 1    
   207  105  106 1    
   208  105  107 1    
   209  105  226 1    
   210  106  227 1    
   211  106  228 1    
   212  106  229 1    
   213  107  108 2    
   214  107  109 am   BACKBONE|DICT|INTERRES
   215  109  110 1    
   216  109  230 1    
   217  110  111 1    
   218  110  112 1    
   219  110  231 1    
   220  111  232 1    
   221  111  233 1    
   222  111  234 1    
   223  112  113 2    
   224  112  114 am   BACKBONE|DICT|INTERRES
   225  114  115 1    
   226  114  235 1    
   227  115  116 1    
   228  115  117 1    
   229  115  236 1    
   230  116  237 1    
   231  116  238 1    
   232  116  239 1    
   233  117  118 2    
   234  117  119 am   BACKBONE|DICT|INTERRES
   235  119  120 1    
   236  119  240 1    
   237  120  121 1    
   238  120  124 1    
   239  120  241 1    
   240  121  122 am   BACKBONE|DICT|INTERRES
   241  121  123 2    
   242  122  242 1    
   243  122  243 1    
   244  124  125 1    
   245  124  244 1    
   246  124  245 1    
   247  125  126 1    
   248  126  246 1    
   249  126  247 1    
@<TRIPOS>SUBSTRUCTURE
     1 UNK         1 GROUP             0       ****    0 ROOT    
