@<TRIPOS>MOLECULE
3R540
247   249    1
SMALL
USER_CHARGES


@<TRIPOS>ATOM
      1 CA          1.6158  -18.6986  -51.1530 C.3       0 UNK        -0.1800 
      2 C           1.4860  -17.9774  -49.8196 C.2       0 UNK         0.5000 
      3 O           1.8216  -18.5439  -48.7822 O.2       0 UNK        -0.5000 
      4 N           1.0320  -16.7162  -49.8377 N.am      1 UNK        -0.5000 
      5 CA          0.7851  -15.8971  -48.6388 C.3       1 UNK         0.1400 
      6 C6         -0.0839  -14.6470  -48.9552 C.3       23 UNK        -0.0398 
      7 S7         -1.5464  -14.5366  -47.8675 S.3       23 UNK        -0.2404 
      8 C8         -2.9238  -14.6519  -49.0531 C.3       23 UNK        -0.0205 
      9 C9         -3.2198  -16.0845  -49.4762 C.ar      23 UNK        -0.0193 
     10 C10        -2.5338  -16.6632  -50.5467 C.ar      23 UNK        -0.1150 
     11 C11        -2.8464  -17.9540  -50.9813 C.ar      23 UNK        -0.0193 
     12 C12        -3.8544  -18.6702  -50.3306 C.ar      23 UNK        -0.1150 
     13 C13        -4.5408  -18.1109  -49.2481 C.ar      23 UNK        -0.0193 
     14 C14        -4.2154  -16.8183  -48.8250 C.ar      23 UNK        -0.1150 
     15 C15        -5.6595  -18.8811  -48.5565 C.3       23 UNK        -0.0205 
     16 S16        -5.0983  -20.4415  -47.8060 S.3       23 UNK        -0.2404 
     17 C17        -3.9297  -19.8645  -46.5281 C.3       23 UNK        -0.0398 
     18 CA         -2.5135  -20.4696  -46.6893 C.3       11 UNK         0.1400 
     19 N          -1.5183  -19.7401  -45.9018 N.am      11 UNK        -0.5000 
     20 C          -0.2038  -20.0044  -45.8781 C.2       10 UNK         0.5000 
     21 O           0.3354  -20.8665  -46.5677 O.2       10 UNK        -0.5000 
     22 CA          0.6357  -19.2336  -44.8488 C.3       10 UNK         0.1400 
     23 CB          0.9314  -17.8116  -45.3333 C.3       10 UNK        -0.1800 
     24 N          -0.0160  -19.1818  -43.5445 N.am      10 UNK        -0.5000 
     25 C          -0.2457  -20.2476  -42.7665 C.2       9 UNK         0.5000 
     26 O           0.0929  -21.3938  -43.0558 O.2       9 UNK        -0.5000 
     27 CA         -1.0237  -19.9927  -41.4661 C.3       9 UNK         0.1400 
     28 CB         -0.0850  -19.5064  -40.3516 C.3       9 UNK        -0.1800 
     29 N          -2.1027  -19.0249  -41.6599 N.am      9 UNK        -0.5000 
     30 C          -3.1967  -19.2526  -42.4004 C.2       8 UNK         0.5000 
     31 O          -3.4340  -20.3211  -42.9659 O.2       8 UNK        -0.5000 
     32 CA         -4.1604  -18.0648  -42.5726 C.3       8 UNK         0.1400 
     33 CB         -5.0693  -17.9171  -41.3433 C.3       8 UNK        -0.1800 
     34 N          -3.4561  -16.8031  -42.8141 N.am      8 UNK        -0.5000 
     35 C          -2.7479  -16.5397  -43.9212 C.2       7 UNK         0.5000 
     36 O          -2.6230  -17.3314  -44.8531 O.2       7 UNK        -0.5000 
     37 CA         -2.0290  -15.1808  -43.9840 C.3       7 UNK         0.1400 
     38 CB         -2.9931  -14.0875  -44.4687 C.3       7 UNK        -0.1800 
     39 N          -1.4243  -14.7673  -42.7143 N.am      7 UNK        -0.5000 
     40 C          -0.4743  -15.4473  -42.0596 C.2       6 UNK         0.5000 
     41 O          -0.0653  -16.5600  -42.3972 O.2       6 UNK        -0.5000 
     42 CA          0.0930  -14.7929  -40.7949 C.3       6 UNK         0.1400 
     43 CB         -0.5491  -15.4083  -39.5416 C.3       6 UNK        -0.1800 
     44 N           1.5347  -15.0241  -40.7575 N.am      6 UNK        -0.5000 
     45 C           2.4727  -14.0740  -40.8554 C.2       5 UNK         0.5000 
     46 O           2.2229  -12.8692  -40.9152 O.2       5 UNK        -0.5000 
     47 CA          3.9443  -14.5359  -40.8847 C.3       5 UNK         0.1400 
     48 CB          4.5789  -14.3842  -39.4932 C.3       5 UNK        -0.1800 
     49 N           4.1251  -15.9181  -41.3379 N.am      5 UNK        -0.5000 
     50 C           3.9908  -16.3266  -42.6059 C.2       4 UNK         0.5000 
     51 O           3.6918  -15.5790  -43.5404 O.2       4 UNK        -0.5000 
     52 CA          4.2274  -17.8230  -42.8616 C.3       4 UNK         0.1400 
     53 CB          3.1648  -18.6839  -42.1554 C.3       4 UNK        -0.1800 
     54 N           4.2060  -18.0675  -44.3008 N.am      4 UNK        -0.5000 
     55 C           4.8264  -19.0721  -44.9288 C.2       3 UNK         0.5000 
     56 O           5.4227  -19.9724  -44.3363 O.2       3 UNK        -0.5000 
     57 CA          4.8007  -19.0855  -46.4734 C.3       3 UNK         0.1400 
     58 CB          3.9226  -20.2336  -46.9954 C.3       3 UNK        -0.1800 
     59 N           4.3773  -17.8286  -47.1044 N.am      3 UNK        -0.5000 
     60 C           5.0870  -16.6880  -47.0858 C.2       2 UNK         0.5000 
     61 O           6.1479  -16.5683  -46.4718 O.2       2 UNK        -0.5000 
     62 CA          4.5625  -15.4850  -47.8994 C.3       2 UNK         0.1400 
     63 CB          5.5409  -15.1331  -49.0323 C.3       2 UNK        -0.1800 
     64 N           3.2432  -15.7120  -48.4885 N.am      2 UNK        -0.5000 
     65 C           2.0730  -15.5090  -47.8692 C.2       1 UNK         0.5000 
     66 O           1.9834  -15.0418  -46.7348 O.2       1 UNK        -0.5000 
     67 C          -2.4947  -21.9784  -46.3632 C.2       11 UNK         0.5000 
     68 O          -2.4285  -22.7926  -47.2834 O.2       11 UNK        -0.5000 
     69 N          -2.4922  -22.3239  -45.0669 N.am      12 UNK        -0.5000 
     70 CA         -2.3899  -23.7024  -44.5864 C.3       12 UNK         0.1400 
     71 CB         -2.6006  -23.7387  -43.0652 C.3       12 UNK        -0.1800 
     72 C          -1.0642  -24.3819  -44.9831 C.2       12 UNK         0.5000 
     73 O          -1.0900  -25.5101  -45.4759 O.2       12 UNK        -0.5000 
     74 N           0.0603  -23.6754  -44.7992 N.am      13 UNK        -0.5000 
     75 CA          1.4082  -24.1331  -45.1473 C.3       13 UNK         0.1400 
     76 CB          2.4437  -23.1316  -44.6115 C.3       13 UNK        -0.1800 
     77 C           1.6058  -24.3615  -46.6580 C.2       13 UNK         0.5000 
     78 O           2.2295  -25.3493  -47.0474 O.2       13 UNK        -0.5000 
     79 N           1.0528  -23.4606  -47.4793 N.am      14 UNK        -0.5000 
     80 CA          1.0893  -23.5227  -48.9408 C.3       14 UNK         0.1400 
     81 CB          0.8515  -22.1084  -49.4980 C.3       14 UNK        -0.1800 
     82 C           0.0670  -24.5051  -49.5463 C.2       14 UNK         0.5000 
     83 O           0.0825  -24.6974  -50.7629 O.2       14 UNK        -0.5000 
     84 N          -0.8384  -25.0584  -48.7223 N.am      15 UNK        -0.5000 
     85 CA         -2.0100  -25.8599  -49.1073 C.3       15 UNK         0.1400 
     86 CB         -1.5788  -27.2346  -49.6569 C.3       15 UNK        -0.1800 
     87 C          -2.9375  -25.0836  -50.0690 C.2       15 UNK         0.5000 
     88 O          -3.3968  -25.6180  -51.0807 O.2       15 UNK        -0.5000 
     89 N          -3.1130  -23.7917  -49.7589 N.am      16 UNK        -0.5000 
     90 CA         -3.7918  -22.7403  -50.5182 C.3       16 UNK         0.1400 
     91 CB         -5.2970  -23.0485  -50.6305 C.3       16 UNK        -0.1800 
     92 C          -3.1626  -22.4245  -51.8920 C.2       16 UNK         0.5000 
     93 O          -3.7548  -21.6624  -52.6560 O.2       16 UNK        -0.5000 
     94 N          -2.0015  -23.0257  -52.2032 N.am      17 UNK        -0.5000 
     95 CA         -1.3219  -23.0337  -53.5048 C.3       17 UNK         0.1400 
     96 CB         -0.7082  -21.6517  -53.8029 C.3       17 UNK        -0.1800 
     97 C          -2.2290  -23.5415  -54.6496 C.2       17 UNK         0.5000 
     98 O          -2.0837  -23.1025  -55.7914 O.2       17 UNK        -0.5000 
     99 N          -3.1945  -24.4085  -54.3027 N.am      18 UNK        -0.5000 
    100 CA        -4.3280  -24.9118  -55.0903 C.3       18 UNK         0.1400 
    101 CB        -3.8482  -25.7080  -56.3185 C.3       18 UNK        -0.1800 
    102 C         -5.3703  -23.8428  -55.4935 C.2       18 UNK         0.5000 
    103 O         -6.5625  -24.1506  -55.5148 O.2       18 UNK        -0.5000 
    104 N         -4.9194  -22.6254  -55.8184 N.am      19 UNK        -0.5000 
    105 CA        -5.7339  -21.5113  -56.2998 C.3       19 UNK         0.1400 
    106 CB        -4.8064  -20.4337  -56.8842 C.3       19 UNK        -0.1800 
    107 C         -6.6580  -20.9027  -55.2293 C.2       19 UNK         0.5000 
    108 O         -7.8242  -20.6431  -55.5304 O.2       19 UNK        -0.5000 
    109 N         -6.1142  -20.6923  -54.0205 N.am      20 UNK        -0.5000 
    110 CA        -6.6851  -19.9883  -52.8653 C.3       20 UNK         0.1400 
    111 CB        -7.9952  -20.6463  -52.3900 C.3       20 UNK        -0.1800 
    112 C         -6.8694  -18.4706  -53.0828 C.2       20 UNK         0.5000 
    113 O         -7.1711  -18.0229  -54.1906 O.2       20 UNK        -0.5000 
    114 N         -6.7025  -17.7072  -51.9899 N.am      21 UNK        -0.5000 
    115 CA        -6.8381  -16.2458  -51.8923 C.3       21 UNK         0.1400 
    116 CB        -8.3241  -15.8417  -51.9774 C.3       21 UNK        -0.1800 
    117 C         -5.9475  -15.4961  -52.9066 C.2       21 UNK         0.5000 
    118 O         -6.4211  -14.6202  -53.6329 O.2       21 UNK        -0.5000 
    119 N         -4.6751  -15.9046  -52.9614 N.am      22 UNK        -0.5000 
    120 CA        -3.7028  -15.5426  -54.0058 C.3       22 UNK         0.1400 
    121 C         -3.2250  -14.0596  -54.0052 C.2       22 UNK         0.5000 
    122 N         -3.5267  -13.2609  -52.9892 N.am      22 UNK        -0.7600 
    123 O         -2.5649  -13.6274  -54.9461 O.2       22 UNK        -0.5000 
    124 C124       -2.4810  -16.5035  -54.0292 C.3       23 UNK        -0.0398 
    125 S125       -2.8906  -18.2663  -53.7528 S.3       23 UNK        -0.2404 
    126 C126       -2.0903  -18.5794  -52.1444 C.3       23 UNK        -0.0205 
    127 H127        1.4340  -18.0314  -51.9956 H         1 UNK         0.0600 
    128 H128        0.9012  -19.5198  -51.2031 H         1 UNK         0.0600 
    129 H129        2.6183  -19.1132  -51.2584 H         1 UNK         0.0600 
    130 H130        0.8139  -16.2833  -50.7229 H         1 UNK         0.3000 
    131 H131        0.2248  -16.5439  -47.9603 H         1 UNK         0.0600 
    132 H132       -0.4104  -14.6449  -49.9941 H         1 UNK         0.0800 
    133 H133        0.4782  -13.7169  -48.8502 H         1 UNK         0.0800 
    134 H134       -2.7162  -14.0334  -49.9275 H         1 UNK         0.0800 
    135 H135       -3.8105  -14.2183  -48.5884 H         1 UNK         0.0800 
    136 H136       -1.7638  -16.1016  -51.0512 H         1 UNK         0.1150 
    137 H137       -4.1029  -19.6652  -50.6671 H         1 UNK         0.1150 
    138 H138       -4.7478  -16.3736  -47.9958 H         1 UNK         0.1150 
    139 H139       -6.1334  -18.2717  -47.7853 H         1 UNK         0.0800 
    140 H140       -6.4391  -19.1106  -49.2831 H         1 UNK         0.0800 
    141 H141       -4.3446  -20.0844  -45.5434 H         1 UNK         0.0800 
    142 H142       -3.8705  -18.7781  -46.5867 H         1 UNK         0.0800 
    143 H143       -2.2156  -20.3565  -47.7342 H         1 UNK         0.0600 
    144 H144       -1.8703  -18.9731  -45.3341 H         1 UNK         0.3000 
    145 H145        1.5860  -19.7551  -44.7217 H         1 UNK         0.0600 
    146 H146        1.4841  -17.2382  -44.5900 H         1 UNK         0.0600 
    147 H147        1.5391  -17.8446  -46.2352 H         1 UNK         0.0600 
    148 H148        0.0204  -17.2606  -45.5655 H         1 UNK         0.0600 
    149 H149       -0.2730  -18.2602  -43.2011 H         1 UNK         0.3000 
    150 H150       -1.4669  -20.9395  -41.1502 H         1 UNK         0.0600 
    151 H151        0.7154  -20.2264  -40.1761 H         1 UNK         0.0600 
    152 H152       -0.6212  -19.3801  -39.4111 H         1 UNK         0.0600 
    153 H153        0.3824  -18.5542  -40.6018 H         1 UNK         0.0600 
    154 H154       -1.9613  -18.1029  -41.2759 H         1 UNK         0.3000 
    155 H155       -4.7914  -18.2727  -43.4395 H         1 UNK         0.0600 
    156 H156       -4.4995  -17.6774  -40.4446 H         1 UNK         0.0600 
    157 H157       -5.6155  -18.8412  -41.1492 H         1 UNK         0.0600 
    158 H158       -5.8082  -17.1296  -41.4923 H         1 UNK         0.0600 
    159 H159       -3.5061  -16.1001  -42.0917 H         1 UNK         0.3000 
    160 H160       -1.2242  -15.2720  -44.7166 H         1 UNK         0.0600 
    161 H161       -3.7860  -13.8969  -43.7445 H         1 UNK         0.0600 
    162 H162       -3.4691  -14.3742  -45.4076 H         1 UNK         0.0600 
    163 H163       -2.4669  -13.1498  -44.6481 H         1 UNK         0.0600 
    164 H164       -1.7139  -13.8687  -42.3561 H         1 UNK         0.3000 
    165 H165       -0.1327  -13.7248  -40.8145 H         1 UNK         0.0600 
    166 H166       -0.1590  -14.9452  -38.6351 H         1 UNK         0.0600 
    167 H167       -1.6298  -15.2610  -39.5423 H         1 UNK         0.0600 
    168 H168       -0.3627  -16.4804  -39.4738 H         1 UNK         0.0600 
    169 H169        1.8229  -15.9908  -40.7943 H         1 UNK         0.3000 
    170 H170        4.4782  -13.8777  -41.5737 H         1 UNK         0.0600 
    171 H171        4.4930  -13.3578  -39.1338 H         1 UNK         0.0600 
    172 H172        4.0969  -15.0303  -38.7584 H         1 UNK         0.0600 
    173 H173        5.6406  -14.6309  -39.5141 H         1 UNK         0.0600 
    174 H174        4.3771  -16.5915  -40.6287 H         1 UNK         0.3000 
    175 H175        5.2170  -18.0767  -42.4758 H         1 UNK         0.0600 
    176 H176        2.1640  -18.3049  -42.3510 H         1 UNK         0.0600 
    177 H177        3.2016  -19.7248  -42.4775 H         1 UNK         0.0600 
    178 H178        3.3071  -18.6756  -41.0746 H         1 UNK         0.0600 
    179 H179        3.7946  -17.3180  -44.8435 H         1 UNK         0.3000 
    180 H180        5.8245  -19.2834  -46.7971 H         1 UNK         0.0600 
    181 H181        2.8739  -20.0792  -46.7483 H         1 UNK         0.0600 
    182 H182        4.2235  -21.1906  -46.5675 H         1 UNK         0.0600 
    183 H183        3.9965  -20.3267  -48.0790 H         1 UNK         0.0600 
    184 H184        3.5169  -17.8660  -47.6394 H         1 UNK         0.3000 
    185 H185        4.5111  -14.6322  -47.2192 H         1 UNK         0.0600 
    186 H186        6.5329  -14.9068  -48.6393 H         1 UNK         0.0600 
    187 H187        5.6484  -15.9551  -49.7411 H         1 UNK         0.0600 
    188 H188        5.2057  -14.2548  -49.5843 H         1 UNK         0.0600 
    189 H189        3.2252  -16.1053  -49.4181 H         1 UNK         0.3000 
    190 H190       -2.5646  -21.5981  -44.3619 H         1 UNK         0.3000 
    191 H191       -3.2001  -24.2700  -45.0490 H         1 UNK         0.0600 
    192 H192       -1.8355  -23.1717  -42.5355 H         1 UNK         0.0600 
    193 H193       -2.5674  -24.7628  -42.6916 H         1 UNK         0.0600 
    194 H194       -3.5711  -23.3236  -42.7924 H         1 UNK         0.0600 
    195 H195       -0.0037  -22.7646  -44.3504 H         1 UNK         0.3000 
    196 H196        1.5714  -25.0891  -44.6459 H         1 UNK         0.0600 
    197 H197        3.4591  -23.4503  -44.8499 H         1 UNK         0.0600 
    198 H198        2.3779  -23.0382  -43.5275 H         1 UNK         0.0600 
    199 H199        2.3021  -22.1392  -45.0398 H         1 UNK         0.0600 
    200 H200        0.6106  -22.6362  -47.0763 H         1 UNK         0.3000 
    201 H201        2.0828  -23.8495  -49.2539 H         1 UNK         0.0600 
    202 H202        1.5902  -21.4039  -49.1147 H         1 UNK         0.0600 
    203 H203       -0.1368  -21.7322  -49.2295 H         1 UNK         0.0600 
    204 H204        0.9245  -22.0937  -50.5861 H         1 UNK         0.0600 
    205 H205       -0.7831  -24.8161  -47.7412 H         1 UNK         0.3000 
    206 H206       -2.5824  -26.0289  -48.1941 H         1 UNK         0.0600 
    207 H207       -2.4457  -27.8718  -49.8354 H         1 UNK         0.0600 
    208 H208       -0.9332  -27.7553  -48.9497 H         1 UNK         0.0600 
    209 H209       -1.0398  -27.1454  -50.6005 H         1 UNK         0.0600 
    210 H210       -2.7108  -23.4717  -48.8767 H         1 UNK         0.3000 
    211 H211       -3.6746  -21.8355  -49.9241 H         1 UNK         0.0600 
    212 H212       -5.4914  -23.8893  -51.2971 H         1 UNK         0.0600 
    213 H213       -5.8426  -22.1910  -51.0187 H         1 UNK         0.0600 
    214 H214       -5.7249  -23.2834  -49.6559 H         1 UNK         0.0600 
    215 H215       -1.5838  -23.6376  -51.5114 H         1 UNK         0.3000 
    216 H216       -0.5045  -23.7507  -53.4184 H         1 UNK         0.0600 
    217 H217       -0.0449  -21.6978  -54.6671 H         1 UNK         0.0600 
    218 H218       -0.1199  -21.2873  -52.9609 H         1 UNK         0.0600 
    219 H219       -1.4775  -20.9126  -54.0246 H         1 UNK         0.0600 
    220 H220       -3.2175  -24.6802  -53.3275 H         1 UNK         0.3000 
    221 H221       -4.8459  -25.6108  -54.4316 H         1 UNK         0.0600 
    222 H222       -3.3439  -25.0726  -57.0467 H         1 UNK         0.0600 
    223 H223       -3.1589  -26.5014  -56.0296 H         1 UNK         0.0600 
    224 H224       -4.6901  -26.1784  -56.8279 H         1 UNK         0.0600 
    225 H225       -3.9144  -22.4852  -55.7994 H         1 UNK         0.3000 
    226 H226       -6.3656  -21.8854  -57.1083 H         1 UNK         0.0600 
    227 H227       -4.1097  -20.0540  -56.1354 H         1 UNK         0.0600 
    228 H228       -4.2219  -20.8252  -57.7169 H         1 UNK         0.0600 
    229 H229       -5.3799  -19.5848  -57.2589 H         1 UNK         0.0600 
    230 H230       -5.1524  -20.9897  -53.8796 H         1 UNK         0.3000 
    231 H231       -5.9477  -20.1090  -52.0727 H         1 UNK         0.0600 
    232 H232       -7.8797  -21.7236  -52.2715 H         1 UNK         0.0600 
    233 H233       -8.8144  -20.4730  -53.0882 H         1 UNK         0.0600 
    234 H234       -8.3037  -20.2432  -51.4248 H         1 UNK         0.0600 
    235 H235       -6.4411  -18.1646  -51.1301 H         1 UNK         0.3000 
    236 H236       -6.4762  -15.9646  -50.9021 H         1 UNK         0.0600 
    237 H237       -8.4488  -14.7711  -51.8111 H         1 UNK         0.0600 
    238 H238       -8.7513  -16.0742  -52.9534 H         1 UNK         0.0600 
    239 H239       -8.9162  -16.3578  -51.2216 H         1 UNK         0.0600 
    240 H240       -4.3777  -16.6407  -52.3367 H         1 UNK         0.3000 
    241 H241       -4.2257  -15.6779  -54.9546 H         1 UNK         0.0600 
    242 H242       -3.2175  -12.3019  -53.0019 H         1 UNK         0.3800 
    243 H243       -4.0983  -13.5965  -52.2318 H         1 UNK         0.3800 
    244 H244       -1.9838  -16.4332  -54.9980 H         1 UNK         0.0800 
    245 H245       -1.7309  -16.1920  -53.3030 H         1 UNK         0.0800 
    246 H246       -2.0163  -19.6552  -51.9895 H         1 UNK         0.0800 
    247 H247       -1.0646  -18.2129  -52.1722 H         1 UNK         0.0800 
@<TRIPOS>BOND
     1    1    2 1    
     2    1  127 1    
     3    1  128 1    
     4    1  129 1    
     5    2    3 2    
     6    2    4 am   BACKBONE|DICT|INTERRES
     7    4    5 1    
     8    4  130 1    
     9    5    6 1    
    10    5   65 1    
    11    5  131 1    
    12    6    7 1    
    13    6  132 1    
    14    6  133 1    
    15    7    8 1    
    16    8    9 1    
    17    8  134 1    
    18    8  135 1    
    19    9   10 ar   
    20    9   14 ar   
    21   10   11 ar   
    22   10  136 1    
    23   11   12 ar   
    24   11  126 1    
    25   12   13 ar   
    26   12  137 1    
    27   13   14 ar   
    28   13   15 1    
    29   14  138 1    
    30   15   16 1    
    31   15  139 1    
    32   15  140 1    
    33   16   17 1    
    34   17   18 1    
    35   17  141 1    
    36   17  142 1    
    37   18   19 1    
    38   18   67 1    
    39   18  143 1    
    40   19   20 am   BACKBONE|DICT|INTERRES
    41   19  144 1    
    42   20   21 2    
    43   20   22 1    
    44   22   23 1    
    45   22   24 1    
    46   22  145 1    
    47   23  146 1    
    48   23  147 1    
    49   23  148 1    
    50   24   25 am   BACKBONE|DICT|INTERRES
    51   24  149 1    
    52   25   26 2    
    53   25   27 1    
    54   27   28 1    
    55   27   29 1    
    56   27  150 1    
    57   28  151 1    
    58   28  152 1    
    59   28  153 1    
    60   29   30 am   BACKBONE|DICT|INTERRES
    61   29  154 1    
    62   30   31 2    
    63   30   32 1    
    64   32   33 1    
    65   32   34 1    
    66   32  155 1    
    67   33  156 1    
    68   33  157 1    
    69   33  158 1    
    70   34   35 am   BACKBONE|DICT|INTERRES
    71   34  159 1    
    72   35   36 2    
    73   35   37 1    
    74   37   38 1    
    75   37   39 1    
    76   37  160 1    
    77   38  161 1    
    78   38  162 1    
    79   38  163 1    
    80   39   40 am   BACKBONE|DICT|INTERRES
    81   39  164 1    
    82   40   41 2    
    83   40   42 1    
    84   42   43 1    
    85   42   44 1    
    86   42  165 1    
    87   43  166 1    
    88   43  167 1    
    89   43  168 1    
    90   44   45 am   BACKBONE|DICT|INTERRES
    91   44  169 1    
    92   45   46 2    
    93   45   47 1    
    94   47   48 1    
    95   47   49 1    
    96   47  170 1    
    97   48  171 1    
    98   48  172 1    
    99   48  173 1    
   100   49   50 am   BACKBONE|DICT|INTERRES
   101   49  174 1    
   102   50   51 2    
   103   50   52 1    
   104   52   53 1    
   105   52   54 1    
   106   52  175 1    
   107   53  176 1    
   108   53  177 1    
   109   53  178 1    
   110   54   55 am   BACKBONE|DICT|INTERRES
   111   54  179 1    
   112   55   56 2    
   113   55   57 1    
   114   57   58 1    
   115   57   59 1    
   116   57  180 1    
   117   58  181 1    
   118   58  182 1    
   119   58  183 1    
   120   59   60 am   BACKBONE|DICT|INTERRES
   121   59  184 1    
   122   60   61 2    
   123   60   62 1    
   124   62   63 1    
   125   62   64 1    
   126   62  185 1    
   127   63  186 1    
   128   63  187 1    
   129   63  188 1    
   130   64   65 am   BACKBONE|DICT|INTERRES
   131   64  189 1    
   132   65   66 2    
   133   67   68 2    
   134   67   69 am   BACKBONE|DICT|INTERRES
   135   69   70 1    
   136   69  190 1    
   137   70   71 1    
   138   70   72 1    
   139   70  191 1    
   140   71  192 1    
   141   71  193 1    
   142   71  194 1    
   143   72   73 2    
   144   72   74 am   BACKBONE|DICT|INTERRES
   145   74   75 1    
   146   74  195 1    
   147   75   76 1    
   148   75   77 1    
   149   75  196 1    
   150   76  197 1    
   151   76  198 1    
   152   76  199 1    
   153   77   78 2    
   154   77   79 am   BACKBONE|DICT|INTERRES
   155   79   80 1    
   156   79  200 1    
   157   80   81 1    
   158   80   82 1    
   159   80  201 1    
   160   81  202 1    
   161   81  203 1    
   162   81  204 1    
   163   82   83 2    
   164   82   84 am   BACKBONE|DICT|INTERRES
   165   84   85 1    
   166   84  205 1    
   167   85   86 1    
   168   85   87 1    
   169   85  206 1    
   170   86  207 1    
   171   86  208 1    
   172   86  209 1    
   173   87   88 2    
   174   87   89 am   BACKBONE|DICT|INTERRES
   175   89   90 1    
   176   89  210 1    
   177   90   91 1    
   178   90   92 1    
   179   90  211 1    
   180   91  212 1    
   181   91  213 1    
   182   91  214 1    
   183   92   93 2    
   184   92   94 am   BACKBONE|DICT|INTERRES
   185   94   95 1    
   186   94  215 1    
   187   95   96 1    
   188   95   97 1    
   189   95  216 1    
   190   96  217 1    
   191   96  218 1    
   192   96  219 1    
   193   97   98 2    
   194   97   99 am   BACKBONE|DICT|INTERRES
   195   99  100 1    
   196   99  220 1    
   197  100  101 1    
   198  100  102 1    
   199  100  221 1    
   200  101  222 1    
   201  101  223 1    
   202  101  224 1    
   203  102  103 2    
   204  102  104 am   BACKBONE|DICT|INTERRES
   205  104  105 1    
   206  104  225 1    
   207  105  106 1    
   208  105  107 1    
   209  105  226 1    
   210  106  227 1    
   211  106  228 1    
   212  106  229 1    
   213  107  108 2    
   214  107  109 am   BACKBONE|DICT|INTERRES
   215  109  110 1    
   216  109  230 1    
   217  110  111 1    
   218  110  112 1    
   219  110  231 1    
   220  111  232 1    
   221  111  233 1    
   222  111  234 1    
   223  112  113 2    
   224  112  114 am   BACKBONE|DICT|INTERRES
   225  114  115 1    
   226  114  235 1    
   227  115  116 1    
   228  115  117 1    
   229  115  236 1    
   230  116  237 1    
   231  116  238 1    
   232  116  239 1    
   233  117  118 2    
   234  117  119 am   BACKBONE|DICT|INTERRES
   235  119  120 1    
   236  119  240 1    
   237  120  121 1    
   238  120  124 1    
   239  120  241 1    
   240  121  122 am   BACKBONE|DICT|INTERRES
   241  121  123 2    
   242  122  242 1    
   243  122  243 1    
   244  124  125 1    
   245  124  244 1    
   246  124  245 1    
   247  125  126 1    
   248  126  246 1    
   249  126  247 1    
@<TRIPOS>SUBSTRUCTURE
     1 UNK         1 GROUP             0       ****    0 ROOT    
