@<TRIPOS>MOLECULE
3R540
247   249    1
SMALL
USER_CHARGES


@<TRIPOS>ATOM
      1 CA         -1.4837  -11.8684  -43.3053 C.3       0 UNK        -0.1800 
      2 C          -1.4645  -11.6321  -44.8099 C.2       0 UNK         0.5000 
      3 O          -1.3789  -10.4853  -45.2515 O.2       0 UNK        -0.5000 
      4 N          -1.5578  -12.7094  -45.6004 N.am      1 UNK        -0.5000 
      5 CA         -1.5118  -12.6982  -47.0647 C.3       1 UNK         0.1400 
      6 C6         -2.1949  -13.9568  -47.6651 C.3       23 UNK        -0.0398 
      7 S7         -2.8357  -13.6429  -49.3441 S.3       23 UNK        -0.2404 
      8 C8         -1.7117  -14.6388  -50.3816 C.3       23 UNK        -0.0205 
      9 C9         -1.9635  -16.1425  -50.3032 C.ar      23 UNK        -0.0193 
     10 C10        -3.2634  -16.6610  -50.3620 C.ar      23 UNK        -0.1150 
     11 C11        -3.4843  -18.0407  -50.3311 C.ar      23 UNK        -0.0193 
     12 C12        -2.3913  -18.9050  -50.2395 C.ar      23 UNK        -0.1150 
     13 C13        -1.0865  -18.4079  -50.2168 C.ar      23 UNK        -0.0193 
     14 C14        -0.8794  -17.0250  -50.2405 C.ar      23 UNK        -0.1150 
     15 C15         0.0839  -19.3822  -50.2497 C.3       23 UNK        -0.0205 
     16 S16         1.3071  -19.1351  -48.9257 S.3       23 UNK        -0.2404 
     17 C17         0.2928  -19.2803  -47.4219 C.3       23 UNK        -0.0398 
     18 CA         -0.0882  -20.7429  -47.0562 C.3       11 UNK         0.1400 
     19 N           0.1855  -21.0430  -45.6473 N.am      11 UNK        -0.5000 
     20 C           0.0273  -22.2331  -45.0517 C.2       10 UNK         0.5000 
     21 O          -0.3036  -23.2582  -45.6469 O.2       10 UNK        -0.5000 
     22 CA          0.2093  -22.2668  -43.5216 C.3       10 UNK         0.1400 
     23 CB          1.6887  -22.4196  -43.1386 C.3       10 UNK        -0.1800 
     24 N          -0.3538  -21.0808  -42.8710 N.am      10 UNK        -0.5000 
     25 C          -1.6644  -20.7967  -42.8381 C.2       9 UNK         0.5000 
     26 O          -2.5331  -21.5395  -43.2934 O.2       9 UNK        -0.5000 
     27 CA         -2.0721  -19.4340  -42.2497 C.3       9 UNK         0.1400 
     28 CB         -2.1198  -19.4939  -40.7159 C.3       9 UNK        -0.1800 
     29 N          -1.1900  -18.3476  -42.6786 N.am      9 UNK        -0.5000 
     30 C          -1.0428  -17.9480  -43.9502 C.2       8 UNK         0.5000 
     31 O          -1.6847  -18.4129  -44.8905 O.2       8 UNK        -0.5000 
     32 CA          0.0395  -16.8922  -44.2335 C.3       8 UNK         0.1400 
     33 CB         -0.4986  -15.4797  -43.9780 C.3       8 UNK        -0.1800 
     34 N           1.2547  -17.1036  -43.4504 N.am      8 UNK        -0.5000 
     35 C           2.0406  -18.1859  -43.5167 C.2       7 UNK         0.5000 
     36 O           1.8457  -19.1247  -44.2859 O.2       7 UNK        -0.5000 
     37 CA          3.2045  -18.2560  -42.5160 C.3       7 UNK         0.1400 
     38 CB          4.4069  -17.4327  -42.9997 C.3       7 UNK        -0.1800 
     39 N           2.7974  -17.7958  -41.1899 N.am      7 UNK        -0.5000 
     40 C           2.0219  -18.4966  -40.3527 C.2       6 UNK         0.5000 
     41 O           1.6031  -19.6291  -40.5960 O.2       6 UNK        -0.5000 
     42 CA          1.6294  -17.8015  -39.0347 C.3       6 UNK         0.1400 
     43 CB          2.7281  -17.9877  -37.9776 C.3       6 UNK        -0.1800 
     44 N           1.3550  -16.3714  -39.2010 N.am      6 UNK        -0.5000 
     45 C           0.2973  -15.8839  -39.8635 C.2       5 UNK         0.5000 
     46 O          -0.5539  -16.5911  -40.4014 O.2       5 UNK        -0.5000 
     47 CA          0.1899  -14.3503  -39.9842 C.3       5 UNK         0.1400 
     48 CB         -0.4371  -13.7538  -38.7153 C.3       5 UNK        -0.1800 
     49 N           1.4464  -13.6494  -40.2803 N.am      5 UNK        -0.5000 
     50 C           2.2807  -13.9423  -41.2866 C.2       4 UNK         0.5000 
     51 O           2.1811  -14.9524  -41.9830 O.2       4 UNK        -0.5000 
     52 CA          3.4347  -12.9566  -41.5535 C.3       4 UNK         0.1400 
     53 CB          4.6335  -13.2880  -40.6518 C.3       4 UNK        -0.1800 
     54 N           3.8702  -13.0029  -42.9532 N.am      4 UNK        -0.5000 
     55 C           3.0978  -12.6896  -44.0028 C.2       3 UNK         0.5000 
     56 O           1.9737  -12.1913  -43.8970 O.2       3 UNK        -0.5000 
     57 CA          3.6716  -13.0336  -45.3925 C.3       3 UNK         0.1400 
     58 CB          3.7168  -14.5575  -45.5977 C.3       3 UNK        -0.1800 
     59 N           2.8631  -12.4589  -46.4634 N.am      3 UNK        -0.5000 
     60 C           2.8453  -11.1742  -46.8295 C.2       2 UNK         0.5000 
     61 O           3.6273  -10.3290  -46.3914 O.2       2 UNK        -0.5000 
     62 CA          1.7578  -10.7531  -47.8391 C.3       2 UNK         0.1400 
     63 CB          2.1651  -11.0994  -49.2844 C.3       2 UNK        -0.1800 
     64 N           0.4131  -11.2552  -47.5178 N.am      2 UNK        -0.5000 
     65 C          -0.0545  -12.5117  -47.5388 C.2       1 UNK         0.5000 
     66 O           0.6254  -13.4924  -47.8465 O.2       1 UNK        -0.5000 
     67 C          -1.5584  -21.0419  -47.4182 C.2       11 UNK         0.5000 
     68 O          -1.8212  -21.7599  -48.3824 O.2       11 UNK        -0.5000 
     69 N          -2.4878  -20.5175  -46.6083 N.am      12 UNK        -0.5000 
     70 CA         -3.9293  -20.7111  -46.7515 C.3       12 UNK         0.1400 
     71 CB         -4.6659  -19.7611  -45.7965 C.3       12 UNK        -0.1800 
     72 C          -4.3775  -22.1673  -46.5319 C.2       12 UNK         0.5000 
     73 O          -5.3190  -22.6077  -47.1899 O.2       12 UNK        -0.5000 
     74 N          -3.6947  -22.8926  -45.6347 N.am      13 UNK        -0.5000 
     75 CA         -3.9023  -24.3222  -45.4007 C.3       13 UNK         0.1400 
     76 CB         -3.1983  -24.7450  -44.1025 C.3       13 UNK        -0.1800 
     77 C          -3.4338  -25.1856  -46.5872 C.2       13 UNK         0.5000 
     78 O          -4.1094  -26.1568  -46.9298 O.2       13 UNK        -0.5000 
     79 N          -2.3022  -24.8106  -47.2019 N.am      14 UNK        -0.5000 
     80 CA         -1.7784  -25.4268  -48.4222 C.3       14 UNK         0.1400 
     81 CB         -0.3297  -24.9693  -48.6479 C.3       14 UNK        -0.1800 
     82 C          -2.6541  -25.1244  -49.6528 C.2       14 UNK         0.5000 
     83 O          -2.8765  -26.0181  -50.4713 O.2       14 UNK        -0.5000 
     84 N          -3.1528  -23.8821  -49.7432 N.am      15 UNK        -0.5000 
     85 CA         -4.0795  -23.3679  -50.7539 C.3       15 UNK         0.1400 
     86 CB         -5.4878  -23.9648  -50.5332 C.3       15 UNK        -0.1800 
     87 C          -3.5266  -23.5740  -52.1778 C.2       15 UNK         0.5000 
     88 O          -2.4701  -23.0275  -52.4935 O.2       15 UNK        -0.5000 
     89 N          -4.2021  -24.4012  -52.9858 N.am      16 UNK        -0.5000 
     90 CA         -3.8367  -24.7770  -54.3539 C.3       16 UNK         0.1400 
     91 CB         -4.9468  -25.6779  -54.9186 C.3       16 UNK        -0.1800 
     92 C          -2.4654  -25.4739  -54.4997 C.2       16 UNK         0.5000 
     93 O          -1.9501  -25.5511  -55.6153 O.2       16 UNK        -0.5000 
     94 N          -1.8965  -25.9806  -53.3959 N.am      17 UNK        -0.5000 
     95 CA         -0.5512  -26.5561  -53.3643 C.3       17 UNK         0.1400 
     96 CB         -0.4514  -27.5434  -52.1910 C.3       17 UNK        -0.1800 
     97 C           0.5610  -25.4904  -53.2708 C.2       17 UNK         0.5000 
     98 O           1.7181  -25.8231  -53.5317 O.2       17 UNK        -0.5000 
     99 N           0.2142  -24.2523  -52.8894 N.am      18 UNK        -0.5000 
    100 CA         1.1553  -23.1488  -52.6819 C.3       18 UNK         0.1400 
    101 CB         1.1427  -22.7614  -51.1953 C.3       18 UNK        -0.1800 
    102 C          0.8389  -21.9322  -53.5693 C.2       18 UNK         0.5000 
    103 O          1.7669  -21.3028  -54.0792 O.2       18 UNK        -0.5000 
    104 N         -0.4498  -21.6256  -53.7444 N.am      19 UNK        -0.5000 
    105 CA        -0.9759  -20.5553  -54.5880 C.3       19 UNK         0.1400 
    106 CB        -1.8065  -19.6114  -53.7046 C.3       19 UNK        -0.1800 
    107 C         -1.8082  -21.1494  -55.7399 C.2       19 UNK         0.5000 
    108 O         -1.7807  -22.3606  -55.9631 O.2       19 UNK        -0.5000 
    109 N         -2.5088  -20.2810  -56.4817 N.am      20 UNK        -0.5000 
    110 CA        -3.2716  -20.6325  -57.6814 C.3       20 UNK         0.1400 
    111 CB        -3.7335  -19.3453  -58.3823 C.3       20 UNK        -0.1800 
    112 C         -4.4705  -21.5646  -57.4213 C.2       20 UNK         0.5000 
    113 O         -4.6948  -22.4823  -58.2117 O.2       20 UNK        -0.5000 
    114 N         -5.2136  -21.3187  -56.3334 N.am      21 UNK        -0.5000 
    115 CA        -6.3949  -22.0939  -55.9477 C.3       21 UNK         0.1400 
    116 CB        -7.5570  -21.8883  -56.9427 C.3       21 UNK        -0.1800 
    117 C         -6.8481  -21.7462  -54.5246 C.2       21 UNK         0.5000 
    118 O         -7.0281  -22.6524  -53.7113 O.2       21 UNK        -0.5000 
    119 N         -7.0275  -20.4428  -54.2645 N.am      22 UNK        -0.5000 
    120 CA        -7.6239  -19.8699  -53.0401 C.3       22 UNK         0.1400 
    121 C         -9.1512  -20.1660  -52.9004 C.2       22 UNK         0.5000 
    122 N         -9.7866  -19.7411  -51.8155 N.am      22 UNK        -0.7600 
    123 O         -9.7893  -20.7395  -53.7811 O.2       22 UNK        -0.5000 
    124 C124       -6.8269  -20.2014  -51.7438 C.3       23 UNK        -0.0398 
    125 S125       -5.0790  -19.7030  -51.8629 S.3       23 UNK        -0.2404 
    126 C126       -4.8962  -18.6031  -50.4229 C.3       23 UNK        -0.0205 
    127 H127       -1.6812  -12.9115  -43.0592 H         1 UNK         0.0600 
    128 H128       -2.2578  -11.2592  -42.8391 H         1 UNK         0.0600 
    129 H129       -0.5235  -11.5925  -42.8697 H         1 UNK         0.0600 
    130 H130       -1.6006  -13.6223  -45.1740 H         1 UNK         0.3000 
    131 H131       -2.0809  -11.8267  -47.3973 H         1 UNK         0.0600 
    132 H132       -3.0606  -14.2294  -47.0600 H         1 UNK         0.0800 
    133 H133       -1.5452  -14.8340  -47.6514 H         1 UNK         0.0800 
    134 H134       -0.6806  -14.4037  -50.1132 H         1 UNK         0.0800 
    135 H135       -1.8356  -14.3285  -51.4197 H         1 UNK         0.0800 
    136 H136       -4.1047  -15.9876  -50.4445 H         1 UNK         0.1150 
    137 H137       -2.5609  -19.9728  -50.2374 H         1 UNK         0.1150 
    138 H138        0.1303  -16.6388  -50.2333 H         1 UNK         0.1150 
    139 H139       -0.2785  -20.4079  -50.1978 H         1 UNK         0.0800 
    140 H140        0.5902  -19.2886  -51.2112 H         1 UNK         0.0800 
    141 H141        0.9027  -18.8420  -46.6346 H         1 UNK         0.0800 
    142 H142       -0.5727  -18.6187  -47.4955 H         1 UNK         0.0800 
    143 H143        0.5319  -21.4305  -47.6355 H         1 UNK         0.0600 
    144 H144        0.5326  -20.2737  -45.0818 H         1 UNK         0.3000 
    145 H145       -0.3255  -23.1405  -43.1438 H         1 UNK         0.0600 
    146 H146        1.8109  -22.4826  -42.0571 H         1 UNK         0.0600 
    147 H147        2.1082  -23.3302  -43.5678 H         1 UNK         0.0600 
    148 H148        2.2912  -21.5841  -43.4937 H         1 UNK         0.0600 
    149 H149        0.3007  -20.4223  -42.4691 H         1 UNK         0.3000 
    150 H150       -3.0775  -19.2070  -42.6102 H         1 UNK         0.0600 
    151 H151       -2.7706  -20.3006  -40.3761 H         1 UNK         0.0600 
    152 H152       -2.5094  -18.5655  -40.2983 H         1 UNK         0.0600 
    153 H153       -1.1322  -19.6648  -40.2872 H         1 UNK         0.0600 
    154 H154       -0.6770  -17.8632  -41.9488 H         1 UNK         0.3000 
    155 H155        0.3076  -16.9625  -45.2890 H         1 UNK         0.0600 
    156 H156        0.2307  -14.7219  -44.2674 H         1 UNK         0.0600 
    157 H157       -0.7399  -15.3282  -42.9262 H         1 UNK         0.0600 
    158 H158       -1.4089  -15.3081  -44.5523 H         1 UNK         0.0600 
    159 H159        1.5217  -16.3541  -42.8129 H         1 UNK         0.3000 
    160 H160        3.5176  -19.2999  -42.4434 H         1 UNK         0.0600 
    161 H161        4.1856  -16.3662  -43.0134 H         1 UNK         0.0600 
    162 H162        4.7010  -17.7230  -44.0092 H         1 UNK         0.0600 
    163 H163        5.2707  -17.5839  -42.3524 H         1 UNK         0.0600 
    164 H164        3.0209  -16.8386  -40.9563 H         1 UNK         0.3000 
    165 H165        0.7199  -18.2817  -38.6671 H         1 UNK         0.0600 
    166 H166        3.6603  -17.5056  -38.2747 H         1 UNK         0.0600 
    167 H167        2.4253  -17.5711  -37.0168 H         1 UNK         0.0600 
    168 H168        2.9414  -19.0457  -37.8191 H         1 UNK         0.0600 
    169 H169        2.0168  -15.7234  -38.7997 H         1 UNK         0.3000 
    170 H170       -0.4865  -14.1440  -40.8157 H         1 UNK         0.0600 
    171 H171       -1.3831  -14.2430  -38.4786 H         1 UNK         0.0600 
    172 H172        0.2175  -13.8686  -37.8505 H         1 UNK         0.0600 
    173 H173       -0.6463  -12.6912  -38.8400 H         1 UNK         0.0600 
    174 H174        1.6224  -12.8157  -39.7385 H         1 UNK         0.3000 
    175 H175        3.0898  -11.9440  -41.3350 H         1 UNK         0.0600 
    176 H176        5.4512  -12.5841  -40.8079 H         1 UNK         0.0600 
    177 H177        4.3590  -13.2351  -39.5975 H         1 UNK         0.0600 
    178 H178        5.0141  -14.2927  -40.8418 H         1 UNK         0.0600 
    179 H179        4.7680  -13.4304  -43.1233 H         1 UNK         0.3000 
    180 H180        4.6851  -12.6334  -45.4623 H         1 UNK         0.0600 
    181 H181        4.0372  -14.8125  -46.6081 H         1 UNK         0.0600 
    182 H182        4.4239  -15.0236  -44.9126 H         1 UNK         0.0600 
    183 H183        2.7411  -15.0168  -45.4300 H         1 UNK         0.0600 
    184 H184        2.1517  -13.0597  -46.8706 H         1 UNK         0.3000 
    185 H185        1.6824   -9.6663  -47.7771 H         1 UNK         0.0600 
    186 H186        1.4190  -10.7507  -49.9985 H         1 UNK         0.0600 
    187 H187        3.1113  -10.6231  -49.5438 H         1 UNK         0.0600 
    188 H188        2.2931  -12.1723  -49.4296 H         1 UNK         0.0600 
    189 H189       -0.2090  -10.5585  -47.1240 H         1 UNK         0.3000 
    190 H190       -2.1878  -19.8973  -45.8588 H         1 UNK         0.3000 
    191 H191       -4.1955  -20.4407  -47.7744 H         1 UNK         0.0600 
    192 H192       -5.7469  -19.8615  -45.9006 H         1 UNK         0.0600 
    193 H193       -4.4133  -18.7210  -46.0042 H         1 UNK         0.0600 
    194 H194       -4.4139  -19.9649  -44.7553 H         1 UNK         0.0600 
    195 H195       -2.9908  -22.4323  -45.0676 H         1 UNK         0.3000 
    196 H196       -4.9735  -24.4899  -45.2706 H         1 UNK         0.0600 
    197 H197       -3.3728  -25.8006  -43.8910 H         1 UNK         0.0600 
    198 H198       -3.5696  -24.1768  -43.2495 H         1 UNK         0.0600 
    199 H199       -2.1203  -24.5967  -44.1599 H         1 UNK         0.0600 
    200 H200       -1.7718  -24.0347  -46.8189 H         1 UNK         0.3000 
    201 H201       -1.7710  -26.5095  -48.2807 H         1 UNK         0.0600 
    202 H202        0.3119  -25.2779  -47.8225 H         1 UNK         0.0600 
    203 H203       -0.2578  -23.8856  -48.7343 H         1 UNK         0.0600 
    204 H204        0.0827  -25.4002  -49.5605 H         1 UNK         0.0600 
    205 H205       -2.8117  -23.1911  -49.0789 H         1 UNK         0.3000 
    206 H206       -4.1417  -22.2906  -50.5977 H         1 UNK         0.0600 
    207 H207       -5.8660  -23.7108  -49.5439 H         1 UNK         0.0600 
    208 H208       -6.2037  -23.5726  -51.2556 H         1 UNK         0.0600 
    209 H209       -5.4938  -25.0524  -50.6133 H         1 UNK         0.0600 
    210 H210       -5.0480  -24.8180  -52.6258 H         1 UNK         0.3000 
    211 H211       -3.8020  -23.8598  -54.9442 H         1 UNK         0.0600 
    212 H212       -4.9902  -26.6338  -54.3949 H         1 UNK         0.0600 
    213 H213       -4.7779  -25.8892  -55.9753 H         1 UNK         0.0600 
    214 H214       -5.9268  -25.2090  -54.8335 H         1 UNK         0.0600 
    215 H215       -2.3837  -25.9106  -52.5083 H         1 UNK         0.3000 
    216 H216       -0.3864  -27.1205  -54.2846 H         1 UNK         0.0600 
    217 H217        0.5075  -28.0630  -52.2001 H         1 UNK         0.0600 
    218 H218       -1.2323  -28.3021  -52.2439 H         1 UNK         0.0600 
    219 H219       -0.5378  -27.0392  -51.2293 H         1 UNK         0.0600 
    220 H220       -0.7666  -24.0441  -52.7360 H         1 UNK         0.3000 
    221 H221        2.1719  -23.4577  -52.9333 H         1 UNK         0.0600 
    222 H222        0.1291  -22.5675  -50.8432 H         1 UNK         0.0600 
    223 H223        1.5602  -23.5600  -50.5827 H         1 UNK         0.0600 
    224 H224        1.7406  -21.8678  -51.0116 H         1 UNK         0.0600 
    225 H225       -1.1638  -22.2075  -53.3090 H         1 UNK         0.3000 
    226 H226       -0.1636  -19.9840  -55.0408 H         1 UNK         0.0600 
    227 H227       -1.1834  -19.1568  -52.9371 H         1 UNK         0.0600 
    228 H228       -2.2512  -18.7930  -54.2706 H         1 UNK         0.0600 
    229 H229       -2.6104  -20.1505  -53.2058 H         1 UNK         0.0600 
    230 H230       -2.4771  -19.3007  -56.2428 H         1 UNK         0.3000 
    231 H231       -2.5939  -21.1570  -58.3586 H         1 UNK         0.0600 
    232 H232       -4.2896  -19.5741  -59.2925 H         1 UNK         0.0600 
    233 H233       -2.8839  -18.7258  -58.6704 H         1 UNK         0.0600 
    234 H234       -4.3839  -18.7479  -57.7422 H         1 UNK         0.0600 
    235 H235       -4.9279  -20.5852  -55.6999 H         1 UNK         0.3000 
    236 H236       -6.1226  -23.1500  -55.9543 H         1 UNK         0.0600 
    237 H237       -7.7929  -20.8320  -57.0746 H         1 UNK         0.0600 
    238 H238       -7.3277  -22.3036  -57.9236 H         1 UNK         0.0600 
    239 H239       -8.4631  -22.3849  -56.5924 H         1 UNK         0.0600 
    240 H240       -6.8970  -19.7859  -55.0191 H         1 UNK         0.3000 
    241 H241       -7.5685  -18.7906  -53.1864 H         1 UNK         0.0600 
    242 H242      -10.7760  -19.9190  -51.7344 H         1 UNK         0.3800 
    243 H243       -9.3192  -19.2294  -51.0841 H         1 UNK         0.3800 
    244 H244       -6.8704  -21.2669  -51.5203 H         1 UNK         0.0800 
    245 H245       -7.2675  -19.7014  -50.8811 H         1 UNK         0.0800 
    246 H246       -5.1251  -19.1545  -49.5111 H         1 UNK         0.0800 
    247 H247       -5.6276  -17.7968  -50.4954 H         1 UNK         0.0800 
@<TRIPOS>BOND
     1    1    2 1    
     2    1  127 1    
     3    1  128 1    
     4    1  129 1    
     5    2    3 2    
     6    2    4 am   BACKBONE|DICT|INTERRES
     7    4    5 1    
     8    4  130 1    
     9    5    6 1    
    10    5   65 1    
    11    5  131 1    
    12    6    7 1    
    13    6  132 1    
    14    6  133 1    
    15    7    8 1    
    16    8    9 1    
    17    8  134 1    
    18    8  135 1    
    19    9   10 ar   
    20    9   14 ar   
    21   10   11 ar   
    22   10  136 1    
    23   11   12 ar   
    24   11  126 1    
    25   12   13 ar   
    26   12  137 1    
    27   13   14 ar   
    28   13   15 1    
    29   14  138 1    
    30   15   16 1    
    31   15  139 1    
    32   15  140 1    
    33   16   17 1    
    34   17   18 1    
    35   17  141 1    
    36   17  142 1    
    37   18   19 1    
    38   18   67 1    
    39   18  143 1    
    40   19   20 am   BACKBONE|DICT|INTERRES
    41   19  144 1    
    42   20   21 2    
    43   20   22 1    
    44   22   23 1    
    45   22   24 1    
    46   22  145 1    
    47   23  146 1    
    48   23  147 1    
    49   23  148 1    
    50   24   25 am   BACKBONE|DICT|INTERRES
    51   24  149 1    
    52   25   26 2    
    53   25   27 1    
    54   27   28 1    
    55   27   29 1    
    56   27  150 1    
    57   28  151 1    
    58   28  152 1    
    59   28  153 1    
    60   29   30 am   BACKBONE|DICT|INTERRES
    61   29  154 1    
    62   30   31 2    
    63   30   32 1    
    64   32   33 1    
    65   32   34 1    
    66   32  155 1    
    67   33  156 1    
    68   33  157 1    
    69   33  158 1    
    70   34   35 am   BACKBONE|DICT|INTERRES
    71   34  159 1    
    72   35   36 2    
    73   35   37 1    
    74   37   38 1    
    75   37   39 1    
    76   37  160 1    
    77   38  161 1    
    78   38  162 1    
    79   38  163 1    
    80   39   40 am   BACKBONE|DICT|INTERRES
    81   39  164 1    
    82   40   41 2    
    83   40   42 1    
    84   42   43 1    
    85   42   44 1    
    86   42  165 1    
    87   43  166 1    
    88   43  167 1    
    89   43  168 1    
    90   44   45 am   BACKBONE|DICT|INTERRES
    91   44  169 1    
    92   45   46 2    
    93   45   47 1    
    94   47   48 1    
    95   47   49 1    
    96   47  170 1    
    97   48  171 1    
    98   48  172 1    
    99   48  173 1    
   100   49   50 am   BACKBONE|DICT|INTERRES
   101   49  174 1    
   102   50   51 2    
   103   50   52 1    
   104   52   53 1    
   105   52   54 1    
   106   52  175 1    
   107   53  176 1    
   108   53  177 1    
   109   53  178 1    
   110   54   55 am   BACKBONE|DICT|INTERRES
   111   54  179 1    
   112   55   56 2    
   113   55   57 1    
   114   57   58 1    
   115   57   59 1    
   116   57  180 1    
   117   58  181 1    
   118   58  182 1    
   119   58  183 1    
   120   59   60 am   BACKBONE|DICT|INTERRES
   121   59  184 1    
   122   60   61 2    
   123   60   62 1    
   124   62   63 1    
   125   62   64 1    
   126   62  185 1    
   127   63  186 1    
   128   63  187 1    
   129   63  188 1    
   130   64   65 am   BACKBONE|DICT|INTERRES
   131   64  189 1    
   132   65   66 2    
   133   67   68 2    
   134   67   69 am   BACKBONE|DICT|INTERRES
   135   69   70 1    
   136   69  190 1    
   137   70   71 1    
   138   70   72 1    
   139   70  191 1    
   140   71  192 1    
   141   71  193 1    
   142   71  194 1    
   143   72   73 2    
   144   72   74 am   BACKBONE|DICT|INTERRES
   145   74   75 1    
   146   74  195 1    
   147   75   76 1    
   148   75   77 1    
   149   75  196 1    
   150   76  197 1    
   151   76  198 1    
   152   76  199 1    
   153   77   78 2    
   154   77   79 am   BACKBONE|DICT|INTERRES
   155   79   80 1    
   156   79  200 1    
   157   80   81 1    
   158   80   82 1    
   159   80  201 1    
   160   81  202 1    
   161   81  203 1    
   162   81  204 1    
   163   82   83 2    
   164   82   84 am   BACKBONE|DICT|INTERRES
   165   84   85 1    
   166   84  205 1    
   167   85   86 1    
   168   85   87 1    
   169   85  206 1    
   170   86  207 1    
   171   86  208 1    
   172   86  209 1    
   173   87   88 2    
   174   87   89 am   BACKBONE|DICT|INTERRES
   175   89   90 1    
   176   89  210 1    
   177   90   91 1    
   178   90   92 1    
   179   90  211 1    
   180   91  212 1    
   181   91  213 1    
   182   91  214 1    
   183   92   93 2    
   184   92   94 am   BACKBONE|DICT|INTERRES
   185   94   95 1    
   186   94  215 1    
   187   95   96 1    
   188   95   97 1    
   189   95  216 1    
   190   96  217 1    
   191   96  218 1    
   192   96  219 1    
   193   97   98 2    
   194   97   99 am   BACKBONE|DICT|INTERRES
   195   99  100 1    
   196   99  220 1    
   197  100  101 1    
   198  100  102 1    
   199  100  221 1    
   200  101  222 1    
   201  101  223 1    
   202  101  224 1    
   203  102  103 2    
   204  102  104 am   BACKBONE|DICT|INTERRES
   205  104  105 1    
   206  104  225 1    
   207  105  106 1    
   208  105  107 1    
   209  105  226 1    
   210  106  227 1    
   211  106  228 1    
   212  106  229 1    
   213  107  108 2    
   214  107  109 am   BACKBONE|DICT|INTERRES
   215  109  110 1    
   216  109  230 1    
   217  110  111 1    
   218  110  112 1    
   219  110  231 1    
   220  111  232 1    
   221  111  233 1    
   222  111  234 1    
   223  112  113 2    
   224  112  114 am   BACKBONE|DICT|INTERRES
   225  114  115 1    
   226  114  235 1    
   227  115  116 1    
   228  115  117 1    
   229  115  236 1    
   230  116  237 1    
   231  116  238 1    
   232  116  239 1    
   233  117  118 2    
   234  117  119 am   BACKBONE|DICT|INTERRES
   235  119  120 1    
   236  119  240 1    
   237  120  121 1    
   238  120  124 1    
   239  120  241 1    
   240  121  122 am   BACKBONE|DICT|INTERRES
   241  121  123 2    
   242  122  242 1    
   243  122  243 1    
   244  124  125 1    
   245  124  244 1    
   246  124  245 1    
   247  125  126 1    
   248  126  246 1    
   249  126  247 1    
@<TRIPOS>SUBSTRUCTURE
     1 UNK         1 GROUP             0       ****    0 ROOT    
