@<TRIPOS>MOLECULE
3R540
247   249    1
SMALL
USER_CHARGES


@<TRIPOS>ATOM
      1 CA          4.5720  -15.3930  -45.6117 C.3       0 UNK        -0.1800 
      2 C           5.0927  -15.1402  -47.0254 C.2       0 UNK         0.5000 
      3 O           6.2888  -14.9138  -47.1936 O.2       0 UNK        -0.5000 
      4 N           4.2556  -15.1708  -48.0719 N.am      1 UNK        -0.5000 
      5 CA          2.8018  -15.3790  -48.0447 C.3       1 UNK         0.1400 
      6 C6          2.2901  -16.0999  -49.3151 C.3       23 UNK        -0.0398 
      7 S7          2.7493  -15.2964  -50.8930 S.3       23 UNK        -0.2404 
      8 C8          4.1308  -16.3357  -51.4798 C.3       23 UNK        -0.0205 
      9 C9          3.7269  -17.7875  -51.6989 C.ar      23 UNK        -0.0193 
     10 C10         2.7779  -18.1168  -52.6705 C.ar      23 UNK        -0.1150 
     11 C11         2.3877  -19.4449  -52.8637 C.ar      23 UNK        -0.0193 
     12 C12         2.9703  -20.4503  -52.0857 C.ar      23 UNK        -0.1150 
     13 C13         3.9105  -20.1338  -51.1006 C.ar      23 UNK        -0.0193 
     14 C14         4.2953  -18.8017  -50.9222 C.ar      23 UNK        -0.1150 
     15 C15         4.4806  -21.2307  -50.2094 C.3       23 UNK        -0.0205 
     16 S16         4.1008  -20.9810  -48.4401 S.3       23 UNK        -0.2404 
     17 C17         2.2813  -20.8399  -48.4405 C.3       23 UNK        -0.0398 
     18 CA          1.5676  -22.1486  -48.0384 C.3       11 UNK         0.1400 
     19 N           1.8424  -22.5368  -46.6520 N.am      11 UNK        -0.5000 
     20 C           1.5531  -23.7402  -46.1366 C.2       10 UNK         0.5000 
     21 O           1.0527  -24.6571  -46.7872 O.2       10 UNK        -0.5000 
     22 CA          1.8144  -23.9410  -44.6315 C.3       10 UNK         0.1400 
     23 CB          3.2542  -24.4194  -44.3953 C.3       10 UNK        -0.1800 
     24 N           1.5678  -22.7402  -43.8317 N.am      10 UNK        -0.5000 
     25 C           0.4007  -22.0862  -43.7553 C.2       9 UNK         0.5000 
     26 O          -0.6215  -22.4515  -44.3358 O.2       9 UNK        -0.5000 
     27 CA          0.3749  -20.7840  -42.9324 C.3       9 UNK         0.1400 
     28 CB          1.4485  -20.7306  -41.8244 C.3       9 UNK        -0.1800 
     29 N           0.4665  -19.5870  -43.7718 N.am      9 UNK        -0.5000 
     30 C           1.4100  -19.2822  -44.6765 C.2       8 UNK         0.5000 
     31 O           2.3008  -20.0511  -45.0391 O.2       8 UNK        -0.5000 
     32 CA          1.3697  -17.8563  -45.2560 C.3       8 UNK         0.1400 
     33 CB          0.3886  -17.7665  -46.4334 C.3       8 UNK        -0.1800 
     34 N           1.0150  -16.8467  -44.2571 N.am      8 UNK        -0.5000 
     35 C           1.7577  -16.5292  -43.1856 C.2       7 UNK         0.5000 
     36 O           2.8632  -17.0155  -42.9479 O.2       7 UNK        -0.5000 
     37 CA          1.1571  -15.5058  -42.2068 C.3       7 UNK         0.1400 
     38 CB          1.5219  -14.0739  -42.6273 C.3       7 UNK        -0.1800 
     39 N          -0.2980  -15.6361  -42.1276 N.am      7 UNK        -0.5000 
     40 C          -0.9351  -16.5131  -41.3384 C.2       6 UNK         0.5000 
     41 O          -0.3641  -17.2427  -40.5274 O.2       6 UNK        -0.5000 
     42 CA         -2.4675  -16.6079  -41.4880 C.3       6 UNK         0.1400 
     43 CB         -3.1630  -15.6390  -40.5200 C.3       6 UNK        -0.1800 
     44 N          -2.9372  -16.3415  -42.8490 N.am      6 UNK        -0.5000 
     45 C          -2.6649  -17.1064  -43.9152 C.2       5 UNK         0.5000 
     46 O          -2.0252  -18.1556  -43.8539 O.2       5 UNK        -0.5000 
     47 CA         -3.1394  -16.5869  -45.2879 C.3       5 UNK         0.1400 
     48 CB         -4.5184  -17.1691  -45.6332 C.3       5 UNK        -0.1800 
     49 N          -3.1940  -15.1254  -45.4047 N.am      5 UNK        -0.5000 
     50 C          -2.1821  -14.2760  -45.1772 C.2       4 UNK         0.5000 
     51 O          -1.0686  -14.6233  -44.7747 O.2       4 UNK        -0.5000 
     52 CA         -2.5019  -12.7886  -45.3750 C.3       4 UNK         0.1400 
     53 CB         -3.4638  -12.2874  -44.2795 C.3       4 UNK        -0.1800 
     54 N          -1.2736  -11.9994  -45.3419 N.am      4 UNK        -0.5000 
     55 C          -1.1313  -10.7841  -45.8847 C.2       3 UNK         0.5000 
     56 O          -2.0151  -10.2270  -46.5368 O.2       3 UNK        -0.5000 
     57 CA          0.2004  -10.0416  -45.6559 C.3       3 UNK         0.1400 
     58 CB         -0.0184   -8.8539  -44.7048 C.3       3 UNK        -0.1800 
     59 N           1.2502  -10.8909  -45.0860 N.am      3 UNK        -0.5000 
     60 C           2.1528  -11.6330  -45.7406 C.2       2 UNK         0.5000 
     61 O           3.0020  -12.2786  -45.1260 O.2       2 UNK        -0.5000 
     62 CA          2.1740  -11.6548  -47.2871 C.3       2 UNK         0.1400 
     63 CB          3.0653  -10.5269  -47.8318 C.3       2 UNK        -0.1800 
     64 N           2.6969  -12.9303  -47.7706 N.am      2 UNK        -0.5000 
     65 C           2.0155  -14.0830  -47.7454 C.2       1 UNK         0.5000 
     66 O           0.8189  -14.1522  -47.4675 O.2       1 UNK        -0.5000 
     67 C           0.0534  -22.0330  -48.3065 C.2       11 UNK         0.5000 
     68 O          -0.3967  -22.4266  -49.3814 O.2       11 UNK        -0.5000 
     69 N          -0.7102  -21.5316  -47.3232 N.am      12 UNK        -0.5000 
     70 CA         -2.1699  -21.4685  -47.3892 C.3       12 UNK         0.1400 
     71 CB         -2.7209  -20.5082  -46.3267 C.3       12 UNK        -0.1800 
     72 C          -2.8035  -22.8612  -47.2565 C.2       12 UNK         0.5000 
     73 O          -3.7379  -23.1665  -47.9959 O.2       12 UNK        -0.5000 
     74 N          -2.2664  -23.6938  -46.3539 N.am      13 UNK        -0.5000 
     75 CA         -2.6794  -25.0840  -46.1508 C.3       13 UNK         0.1400 
     76 CB         -1.9346  -25.6766  -44.9461 C.3       13 UNK        -0.1800 
     77 C          -2.4769  -25.9504  -47.4077 C.2       13 UNK         0.5000 
     78 O          -3.3956  -26.6702  -47.8008 O.2       13 UNK        -0.5000 
     79 N          -1.3102  -25.8109  -48.0556 N.am      14 UNK        -0.5000 
     80 CA         -0.9775  -26.4459  -49.3358 C.3       14 UNK         0.1400 
     81 CB          0.4961  -26.1677  -49.6685 C.3       14 UNK        -0.1800 
     82 C          -1.8842  -25.9916  -50.4978 C.2       14 UNK         0.5000 
     83 O          -2.1347  -26.7698  -51.4180 O.2       14 UNK        -0.5000 
     84 N          -2.3881  -24.7555  -50.4093 N.am      15 UNK        -0.5000 
     85 CA         -3.3483  -24.1459  -51.3264 C.3       15 UNK         0.1400 
     86 CB         -3.0674  -22.6375  -51.3793 C.3       15 UNK        -0.1800 
     87 C          -4.8177  -24.4381  -50.9602 C.2       15 UNK         0.5000 
     88 O          -5.7026  -23.7662  -51.4915 O.2       15 UNK        -0.5000 
     89 N          -5.0575  -25.4120  -50.0679 N.am      16 UNK        -0.5000 
     90 CA         -6.3615  -25.8825  -49.5895 C.3       16 UNK         0.1400 
     91 CB         -7.1700  -26.5264  -50.7355 C.3       16 UNK        -0.1800 
     92 C          -7.1369  -24.7867  -48.8326 C.2       16 UNK         0.5000 
     93 O          -8.2901  -24.4998  -49.1566 O.2       16 UNK        -0.5000 
     94 N          -6.4585  -24.1879  -47.8437 N.am      17 UNK        -0.5000 
     95 CA         -6.8897  -23.0493  -47.0251 C.3       17 UNK         0.1400 
     96 CB         -8.1524  -23.3828  -46.2025 C.3       17 UNK        -0.1800 
     97 C          -7.0167  -21.7631  -47.8656 C.2       17 UNK         0.5000 
     98 O          -7.9966  -21.0269  -47.7386 O.2       17 UNK        -0.5000 
     99 N          -6.0020  -21.5360  -48.7129 N.am      18 UNK        -0.5000 
    100 CA        -5.8551  -20.4218  -49.6532 C.3       18 UNK         0.1400 
    101 CB        -5.5999  -19.1009  -48.8980 C.3       18 UNK        -0.1800 
    102 C         -7.0079  -20.3344  -50.6767 C.2       18 UNK         0.5000 
    103 O         -7.5004  -19.2423  -50.9679 O.2       18 UNK        -0.5000 
    104 N         -7.4113  -21.4938  -51.2160 N.am      19 UNK        -0.5000 
    105 CA        -8.3092  -21.5946  -52.3659 C.3       19 UNK         0.1400 
    106 CB        -8.9166  -23.0039  -52.4321 C.3       19 UNK        -0.1800 
    107 C         -7.5566  -21.2524  -53.6642 C.2       19 UNK         0.5000 
    108 O         -8.0927  -20.5321  -54.5077 O.2       19 UNK        -0.5000 
    109 N         -6.3082  -21.7309  -53.7724 N.am      20 UNK        -0.5000 
    110 CA        -5.3260  -21.2428  -54.7406 C.3       20 UNK         0.1400 
    111 CB        -4.2826  -22.3381  -55.0140 C.3       20 UNK        -0.1800 
    112 C         -4.6668  -19.9506  -54.2176 C.2       20 UNK         0.5000 
    113 O         -4.6956  -19.6842  -53.0124 O.2       20 UNK        -0.5000 
    114 N         -4.0841  -19.1668  -55.1327 N.am      21 UNK        -0.5000 
    115 CA        -3.5390  -17.8232  -54.9045 C.3       21 UNK         0.1400 
    116 CB        -3.4259  -17.1101  -56.2648 C.3       21 UNK        -0.1800 
    117 C         -2.2150  -17.7862  -54.1030 C.2       21 UNK         0.5000 
    118 O         -1.2434  -17.1701  -54.5452 O.2       21 UNK        -0.5000 
    119 N         -2.2087  -18.4285  -52.9321 N.am      22 UNK        -0.5000 
    120 CA        -1.1055  -18.4485  -51.9568 C.3       22 UNK         0.1400 
    121 C         -1.4938  -17.7983  -50.5959 C.2       22 UNK         0.5000 
    122 N         -2.6343  -17.1289  -50.4762 N.am      22 UNK        -0.7600 
    123 O         -0.7491  -17.8999  -49.6266 O.2       22 UNK        -0.5000 
    124 C124       -0.5385  -19.8744  -51.7375 C.3       23 UNK        -0.0398 
    125 S125       -0.0614  -20.7714  -53.2582 S.3       23 UNK        -0.2404 
    126 C126        1.3286  -19.7801  -53.9074 C.3       23 UNK        -0.0205 
    127 H127        5.2638  -14.9834  -44.8756 H         1 UNK         0.0600 
    128 H128        4.4851  -16.4635  -45.4279 H         1 UNK         0.0600 
    129 H129        3.6036  -14.9275  -45.4344 H         1 UNK         0.0600 
    130 H130        4.6342  -14.9992  -48.9923 H         1 UNK         0.3000 
    131 H131        2.5760  -16.0478  -47.2172 H         1 UNK         0.0600 
    132 H132        2.6493  -17.1285  -49.3080 H         1 UNK         0.0800 
    133 H133        1.2030  -16.1849  -49.2877 H         1 UNK         0.0800 
    134 H134        4.9584  -16.2672  -50.7726 H         1 UNK         0.0800 
    135 H135        4.5011  -15.9274  -52.4211 H         1 UNK         0.0800 
    136 H136        2.3327  -17.3312  -53.2651 H         1 UNK         0.1150 
    137 H137        2.6643  -21.4773  -52.2288 H         1 UNK         0.1150 
    138 H138        5.0203  -18.5556  -50.1590 H         1 UNK         0.1150 
    139 H139        4.1058  -22.2097  -50.5119 H         1 UNK         0.0800 
    140 H140        5.5633  -21.2639  -50.3370 H         1 UNK         0.0800 
    141 H141        1.9389  -20.4987  -49.4167 H         1 UNK         0.0800 
    142 H142        2.0218  -20.0442  -47.7458 H         1 UNK         0.0800 
    143 H143        1.9420  -22.9443  -48.6866 H         1 UNK         0.0600 
    144 H144        2.2261  -21.8179  -46.0459 H         1 UNK         0.3000 
    145 H145        1.1347  -24.7177  -44.2772 H         1 UNK         0.0600 
    146 H146        3.4272  -24.6474  -43.3434 H         1 UNK         0.0600 
    147 H147        3.4613  -25.3282  -44.9621 H         1 UNK         0.0600 
    148 H148        3.9831  -23.6678  -44.7014 H         1 UNK         0.0600 
    149 H149        2.3663  -22.3408  -43.3605 H         1 UNK         0.3000 
    150 H150       -0.6020  -20.7470  -42.4480 H         1 UNK         0.0600 
    151 H151        1.3994  -21.6123  -41.1841 H         1 UNK         0.0600 
    152 H152        1.2975  -19.8602  -41.1851 H         1 UNK         0.0600 
    153 H153        2.4594  -20.6651  -42.2283 H         1 UNK         0.0600 
    154 H154       -0.2892  -18.9187  -43.6430 H         1 UNK         0.3000 
    155 H155        2.3717  -17.6244  -45.6172 H         1 UNK         0.0600 
    156 H156       -0.5614  -18.2402  -46.1974 H         1 UNK         0.0600 
    157 H157        0.7830  -18.2624  -47.3178 H         1 UNK         0.0600 
    158 H158        0.1835  -16.7333  -46.7139 H         1 UNK         0.0600 
    159 H159        0.1443  -16.3489  -44.3972 H         1 UNK         0.3000 
    160 H160        1.5905  -15.6867  -41.2208 H         1 UNK         0.0600 
    161 H161        1.1553  -13.8386  -43.6261 H         1 UNK         0.0600 
    162 H162        2.6040  -13.9368  -42.6406 H         1 UNK         0.0600 
    163 H163        1.1087  -13.3402  -41.9353 H         1 UNK         0.0600 
    164 H164       -0.8302  -15.1144  -42.8141 H         1 UNK         0.3000 
    165 H165       -2.7617  -17.6261  -41.2244 H         1 UNK         0.0600 
    166 H166       -4.2464  -15.7540  -40.5569 H         1 UNK         0.0600 
    167 H167       -2.8525  -15.8251  -39.4910 H         1 UNK         0.0600 
    168 H168       -2.9266  -14.5996  -40.7516 H         1 UNK         0.0600 
    169 H169       -3.4683  -15.4952  -42.9899 H         1 UNK         0.3000 
    170 H170       -2.4291  -16.9393  -46.0357 H         1 UNK         0.0600 
    171 H171       -4.5202  -18.2563  -45.5505 H         1 UNK         0.0600 
    172 H172       -5.2930  -16.7908  -44.9650 H         1 UNK         0.0600 
    173 H173       -4.8064  -16.9232  -46.6555 H         1 UNK         0.0600 
    174 H174       -4.0774  -14.7448  -45.7120 H         1 UNK         0.3000 
    175 H175       -2.9727  -12.6806  -46.3544 H         1 UNK         0.0600 
    176 H176       -3.0238  -12.3850  -43.2862 H         1 UNK         0.0600 
    177 H177       -3.7219  -11.2386  -44.4269 H         1 UNK         0.0600 
    178 H178       -4.3994  -12.8476  -44.2816 H         1 UNK         0.0600 
    179 H179       -0.4902  -12.4505  -44.8877 H         1 UNK         0.3000 
    180 H180        0.5191   -9.6311  -46.6144 H         1 UNK         0.0600 
    181 H181       -0.3597   -9.1816  -43.7220 H         1 UNK         0.0600 
    182 H182       -0.7680   -8.1666  -45.0996 H         1 UNK         0.0600 
    183 H183        0.9006   -8.2836  -44.5682 H         1 UNK         0.0600 
    184 H184        1.2889  -10.8963  -44.0777 H         1 UNK         0.3000 
    185 H185        1.1641  -11.5362  -47.6817 H         1 UNK         0.0600 
    186 H186        2.7111   -9.5477  -47.5088 H         1 UNK         0.0600 
    187 H187        4.0958  -10.6285  -47.4887 H         1 UNK         0.0600 
    188 H188        3.0744  -10.5241  -48.9220 H         1 UNK         0.0600 
    189 H189        3.6858  -12.9666  -47.9692 H         1 UNK         0.3000 
    190 H190       -0.2844  -21.3026  -46.4369 H         1 UNK         0.3000 
    191 H191       -2.4534  -21.0697  -48.3653 H         1 UNK         0.0600 
    192 H192       -2.3594  -20.7445  -45.3261 H         1 UNK         0.0600 
    193 H193       -3.8106  -20.5437  -46.2966 H         1 UNK         0.0600 
    194 H194       -2.4420  -19.4805  -46.5518 H         1 UNK         0.0600 
    195 H195       -1.5395  -23.3369  -45.7391 H         1 UNK         0.3000 
    196 H196       -3.7463  -25.0783  -45.9186 H         1 UNK         0.0600 
    197 H197       -2.2868  -26.6858  -44.7296 H         1 UNK         0.0600 
    198 H198       -2.0919  -25.0765  -44.0496 H         1 UNK         0.0600 
    199 H199       -0.8617  -25.7368  -45.1250 H         1 UNK         0.0600 
    200 H200       -0.5854  -25.2320  -47.6395 H         1 UNK         0.3000 
    201 H201       -1.1065  -27.5236  -49.2180 H         1 UNK         0.0600 
    202 H202        1.1559  -26.5607  -48.8948 H         1 UNK         0.0600 
    203 H203        0.6905  -25.0985  -49.7627 H         1 UNK         0.0600 
    204 H204        0.7819  -26.6390  -50.6097 H         1 UNK         0.0600 
    205 H205       -2.1140  -24.1862  -49.6197 H         1 UNK         0.3000 
    206 H206       -3.1959  -24.5485  -52.3296 H         1 UNK         0.0600 
    207 H207       -2.1068  -22.4609  -51.8593 H         1 UNK         0.0600 
    208 H208       -3.8182  -22.0907  -51.9469 H         1 UNK         0.0600 
    209 H209       -3.0338  -22.1958  -50.3854 H         1 UNK         0.0600 
    210 H210       -4.2585  -25.8654  -49.6420 H         1 UNK         0.3000 
    211 H211       -6.1532  -26.6665  -48.8599 H         1 UNK         0.0600 
    212 H212       -7.4480  -25.8000  -51.4986 H         1 UNK         0.0600 
    213 H213       -8.0917  -26.9713  -50.3590 H         1 UNK         0.0600 
    214 H214       -6.6013  -27.3197  -51.2203 H         1 UNK         0.0600 
    215 H215       -5.4827  -24.4368  -47.7384 H         1 UNK         0.3000 
    216 H216       -6.0821  -22.8658  -46.3149 H         1 UNK         0.0600 
    217 H217       -8.3731  -22.5855  -45.4920 H         1 UNK         0.0600 
    218 H218       -8.0186  -24.3001  -45.6294 H         1 UNK         0.0600 
    219 H219       -9.0325  -23.5058  -46.8339 H         1 UNK         0.0600 
    220 H220       -5.2421  -22.2103  -48.7049 H         1 UNK         0.3000 
    221 H221       -4.9595  -20.6324  -50.2379 H         1 UNK         0.0600 
    222 H222       -6.4586  -18.8050  -48.2950 H         1 UNK         0.0600 
    223 H223       -4.7373  -19.1853  -48.2377 H         1 UNK         0.0600 
    224 H224       -5.3918  -18.2878  -49.5942 H         1 UNK         0.0600 
    225 H225       -6.9309  -22.3491  -50.9542 H         1 UNK         0.3000 
    226 H226       -9.1248  -20.8791  -52.2417 H         1 UNK         0.0600 
    227 H227       -9.4367  -23.2533  -51.5070 H         1 UNK         0.0600 
    228 H228       -9.6405  -23.0766  -53.2444 H         1 UNK         0.0600 
    229 H229       -8.1559  -23.7654  -52.6034 H         1 UNK         0.0600 
    230 H230       -5.9555  -22.3052  -53.0158 H         1 UNK         0.3000 
    231 H231       -5.8332  -21.0150  -55.6806 H         1 UNK         0.0600 
    232 H232       -4.7589  -23.2580  -55.3537 H         1 UNK         0.0600 
    233 H233       -3.6898  -22.5765  -54.1336 H         1 UNK         0.0600 
    234 H234       -3.5877  -22.0272  -55.7948 H         1 UNK         0.0600 
    235 H235       -4.0624  -19.4855  -56.0905 H         1 UNK         0.3000 
    236 H236       -4.2685  -17.2684  -54.3107 H         1 UNK         0.0600 
    237 H237       -3.0934  -16.0784  -56.1427 H         1 UNK         0.0600 
    238 H238       -2.7137  -17.6104  -56.9222 H         1 UNK         0.0600 
    239 H239       -4.3887  -17.0770  -56.7752 H         1 UNK         0.0600 
    240 H240       -3.0549  -18.9292  -52.6701 H         1 UNK         0.3000 
    241 H241       -0.2874  -17.8296  -52.3275 H         1 UNK         0.0600 
    242 H242       -2.8627  -16.7082  -49.5908 H         1 UNK         0.3800 
    243 H243       -3.2538  -17.0177  -51.2618 H         1 UNK         0.3800 
    244 H244        0.3286  -19.8401  -51.0779 H         1 UNK         0.0800 
    245 H245       -1.2735  -20.4784  -51.2082 H         1 UNK         0.0800 
    246 H246        0.9236  -18.8692  -54.3500 H         1 UNK         0.0800 
    247 H247        1.8005  -20.3302  -54.7222 H         1 UNK         0.0800 
@<TRIPOS>BOND
     1    1    2 1    
     2    1  127 1    
     3    1  128 1    
     4    1  129 1    
     5    2    3 2    
     6    2    4 am   BACKBONE|DICT|INTERRES
     7    4    5 1    
     8    4  130 1    
     9    5    6 1    
    10    5   65 1    
    11    5  131 1    
    12    6    7 1    
    13    6  132 1    
    14    6  133 1    
    15    7    8 1    
    16    8    9 1    
    17    8  134 1    
    18    8  135 1    
    19    9   10 ar   
    20    9   14 ar   
    21   10   11 ar   
    22   10  136 1    
    23   11   12 ar   
    24   11  126 1    
    25   12   13 ar   
    26   12  137 1    
    27   13   14 ar   
    28   13   15 1    
    29   14  138 1    
    30   15   16 1    
    31   15  139 1    
    32   15  140 1    
    33   16   17 1    
    34   17   18 1    
    35   17  141 1    
    36   17  142 1    
    37   18   19 1    
    38   18   67 1    
    39   18  143 1    
    40   19   20 am   BACKBONE|DICT|INTERRES
    41   19  144 1    
    42   20   21 2    
    43   20   22 1    
    44   22   23 1    
    45   22   24 1    
    46   22  145 1    
    47   23  146 1    
    48   23  147 1    
    49   23  148 1    
    50   24   25 am   BACKBONE|DICT|INTERRES
    51   24  149 1    
    52   25   26 2    
    53   25   27 1    
    54   27   28 1    
    55   27   29 1    
    56   27  150 1    
    57   28  151 1    
    58   28  152 1    
    59   28  153 1    
    60   29   30 am   BACKBONE|DICT|INTERRES
    61   29  154 1    
    62   30   31 2    
    63   30   32 1    
    64   32   33 1    
    65   32   34 1    
    66   32  155 1    
    67   33  156 1    
    68   33  157 1    
    69   33  158 1    
    70   34   35 am   BACKBONE|DICT|INTERRES
    71   34  159 1    
    72   35   36 2    
    73   35   37 1    
    74   37   38 1    
    75   37   39 1    
    76   37  160 1    
    77   38  161 1    
    78   38  162 1    
    79   38  163 1    
    80   39   40 am   BACKBONE|DICT|INTERRES
    81   39  164 1    
    82   40   41 2    
    83   40   42 1    
    84   42   43 1    
    85   42   44 1    
    86   42  165 1    
    87   43  166 1    
    88   43  167 1    
    89   43  168 1    
    90   44   45 am   BACKBONE|DICT|INTERRES
    91   44  169 1    
    92   45   46 2    
    93   45   47 1    
    94   47   48 1    
    95   47   49 1    
    96   47  170 1    
    97   48  171 1    
    98   48  172 1    
    99   48  173 1    
   100   49   50 am   BACKBONE|DICT|INTERRES
   101   49  174 1    
   102   50   51 2    
   103   50   52 1    
   104   52   53 1    
   105   52   54 1    
   106   52  175 1    
   107   53  176 1    
   108   53  177 1    
   109   53  178 1    
   110   54   55 am   BACKBONE|DICT|INTERRES
   111   54  179 1    
   112   55   56 2    
   113   55   57 1    
   114   57   58 1    
   115   57   59 1    
   116   57  180 1    
   117   58  181 1    
   118   58  182 1    
   119   58  183 1    
   120   59   60 am   BACKBONE|DICT|INTERRES
   121   59  184 1    
   122   60   61 2    
   123   60   62 1    
   124   62   63 1    
   125   62   64 1    
   126   62  185 1    
   127   63  186 1    
   128   63  187 1    
   129   63  188 1    
   130   64   65 am   BACKBONE|DICT|INTERRES
   131   64  189 1    
   132   65   66 2    
   133   67   68 2    
   134   67   69 am   BACKBONE|DICT|INTERRES
   135   69   70 1    
   136   69  190 1    
   137   70   71 1    
   138   70   72 1    
   139   70  191 1    
   140   71  192 1    
   141   71  193 1    
   142   71  194 1    
   143   72   73 2    
   144   72   74 am   BACKBONE|DICT|INTERRES
   145   74   75 1    
   146   74  195 1    
   147   75   76 1    
   148   75   77 1    
   149   75  196 1    
   150   76  197 1    
   151   76  198 1    
   152   76  199 1    
   153   77   78 2    
   154   77   79 am   BACKBONE|DICT|INTERRES
   155   79   80 1    
   156   79  200 1    
   157   80   81 1    
   158   80   82 1    
   159   80  201 1    
   160   81  202 1    
   161   81  203 1    
   162   81  204 1    
   163   82   83 2    
   164   82   84 am   BACKBONE|DICT|INTERRES
   165   84   85 1    
   166   84  205 1    
   167   85   86 1    
   168   85   87 1    
   169   85  206 1    
   170   86  207 1    
   171   86  208 1    
   172   86  209 1    
   173   87   88 2    
   174   87   89 am   BACKBONE|DICT|INTERRES
   175   89   90 1    
   176   89  210 1    
   177   90   91 1    
   178   90   92 1    
   179   90  211 1    
   180   91  212 1    
   181   91  213 1    
   182   91  214 1    
   183   92   93 2    
   184   92   94 am   BACKBONE|DICT|INTERRES
   185   94   95 1    
   186   94  215 1    
   187   95   96 1    
   188   95   97 1    
   189   95  216 1    
   190   96  217 1    
   191   96  218 1    
   192   96  219 1    
   193   97   98 2    
   194   97   99 am   BACKBONE|DICT|INTERRES
   195   99  100 1    
   196   99  220 1    
   197  100  101 1    
   198  100  102 1    
   199  100  221 1    
   200  101  222 1    
   201  101  223 1    
   202  101  224 1    
   203  102  103 2    
   204  102  104 am   BACKBONE|DICT|INTERRES
   205  104  105 1    
   206  104  225 1    
   207  105  106 1    
   208  105  107 1    
   209  105  226 1    
   210  106  227 1    
   211  106  228 1    
   212  106  229 1    
   213  107  108 2    
   214  107  109 am   BACKBONE|DICT|INTERRES
   215  109  110 1    
   216  109  230 1    
   217  110  111 1    
   218  110  112 1    
   219  110  231 1    
   220  111  232 1    
   221  111  233 1    
   222  111  234 1    
   223  112  113 2    
   224  112  114 am   BACKBONE|DICT|INTERRES
   225  114  115 1    
   226  114  235 1    
   227  115  116 1    
   228  115  117 1    
   229  115  236 1    
   230  116  237 1    
   231  116  238 1    
   232  116  239 1    
   233  117  118 2    
   234  117  119 am   BACKBONE|DICT|INTERRES
   235  119  120 1    
   236  119  240 1    
   237  120  121 1    
   238  120  124 1    
   239  120  241 1    
   240  121  122 am   BACKBONE|DICT|INTERRES
   241  121  123 2    
   242  122  242 1    
   243  122  243 1    
   244  124  125 1    
   245  124  244 1    
   246  124  245 1    
   247  125  126 1    
   248  126  246 1    
   249  126  247 1    
@<TRIPOS>SUBSTRUCTURE
     1 UNK         1 GROUP             0       ****    0 ROOT    
