@<TRIPOS>MOLECULE
3R540
247   249    1
SMALL
USER_CHARGES


@<TRIPOS>ATOM
      1 CA         -3.8594  -12.5428  -51.4184 C.3       0 UNK        -0.1800 
      2 C          -2.7459  -13.4965  -51.0080 C.2       0 UNK         0.5000 
      3 O          -1.7085  -13.5484  -51.6691 O.2       0 UNK        -0.5000 
      4 N          -2.9582  -14.2470  -49.9205 N.am      1 UNK        -0.5000 
      5 CA         -1.9845  -15.1716  -49.3320 C.3       1 UNK         0.1400 
      6 C6         -2.6286  -16.0664  -48.2473 C.3       23 UNK        -0.0398 
      7 S7         -3.8090  -17.2520  -48.9678 S.3       23 UNK        -0.2404 
      8 C8         -2.8786  -18.8083  -48.8395 C.3       23 UNK        -0.0205 
      9 C9         -1.5776  -18.7865  -49.6272 C.ar      23 UNK        -0.0193 
     10 C10        -1.5982  -18.8492  -51.0229 C.ar      23 UNK        -0.1150 
     11 C11        -0.4041  -18.8574  -51.7585 C.ar      23 UNK        -0.0193 
     12 C12         0.8107  -18.8113  -51.0665 C.ar      23 UNK        -0.1150 
     13 C13         0.8466  -18.7449  -49.6709 C.ar      23 UNK        -0.0193 
     14 C14        -0.3533  -18.7240  -48.9569 C.ar      23 UNK        -0.1150 
     15 C15         2.1838  -18.6790  -48.9470 C.3       23 UNK        -0.0205 
     16 S16         2.7119  -20.3013  -48.3155 S.3       23 UNK        -0.2404 
     17 C17         2.0181  -20.2752  -46.6276 C.3       23 UNK        -0.0398 
     18 CA          1.5146  -21.6521  -46.1432 C.3       11 UNK         0.1400 
     19 N           1.2743  -21.6471  -44.7022 N.am      11 UNK        -0.5000 
     20 C           1.4052  -22.7122  -43.9016 C.2       10 UNK         0.5000 
     21 O           1.8173  -23.8092  -44.2788 O.2       10 UNK        -0.5000 
     22 CA          0.9849  -22.5215  -42.4312 C.3       10 UNK         0.1400 
     23 CB          2.1719  -22.0150  -41.5988 C.3       10 UNK        -0.1800 
     24 N          -0.1376  -21.5954  -42.2691 N.am      10 UNK        -0.5000 
     25 C          -1.3722  -21.8015  -42.7486 C.2       9 UNK         0.5000 
     26 O          -1.7096  -22.8132  -43.3650 O.2       9 UNK        -0.5000 
     27 CA         -2.3880  -20.6632  -42.5427 C.3       9 UNK         0.1400 
     28 CB         -3.0682  -20.7963  -41.1723 C.3       9 UNK        -0.1800 
     29 N          -1.8270  -19.3156  -42.6641 N.am      9 UNK        -0.5000 
     30 C          -1.1211  -18.8128  -43.6849 C.2       8 UNK         0.5000 
     31 O          -0.7761  -19.4761  -44.6626 O.2       8 UNK        -0.5000 
     32 CA         -0.7001  -17.3317  -43.6031 C.3       8 UNK         0.1400 
     33 CB         -1.7357  -16.4230  -44.2883 C.3       8 UNK        -0.1800 
     34 N          -0.3680  -16.8459  -42.2560 N.am      8 UNK        -0.5000 
     35 C          -1.1540  -16.7169  -41.1751 C.2       7 UNK         0.5000 
     36 O          -2.3556  -16.9875  -41.1745 O.2       7 UNK        -0.5000 
     37 CA         -0.4895  -16.2255  -39.8715 C.3       7 UNK         0.1400 
     38 CB         -1.1437  -16.8291  -38.6110 C.3       7 UNK        -0.1800 
     39 N           0.9659  -16.4063  -39.8397 N.am      7 UNK        -0.5000 
     40 C           1.6610  -17.5561  -39.8637 C.2       6 UNK         0.5000 
     41 O           1.1360  -18.6698  -39.9126 O.2       6 UNK        -0.5000 
     42 CA          3.2008  -17.4369  -39.8654 C.3       6 UNK         0.1400 
     43 CB          3.8465  -18.4654  -40.8103 C.3       6 UNK        -0.1800 
     44 N           3.6246  -16.0972  -40.2764 N.am      6 UNK        -0.5000 
     45 C           4.0914  -15.1363  -39.4675 C.2       5 UNK         0.5000 
     46 O           4.3057  -15.2985  -38.2661 O.2       5 UNK        -0.5000 
     47 CA          4.3336  -13.7471  -40.0979 C.3       5 UNK         0.1400 
     48 CB          5.8192  -13.5692  -40.4462 C.3       5 UNK        -0.1800 
     49 N           3.5319  -13.4990  -41.3006 N.am      5 UNK        -0.5000 
     50 C           2.1948  -13.4006  -41.3324 C.2       4 UNK         0.5000 
     51 O           1.4872  -13.4396  -40.3262 O.2       4 UNK        -0.5000 
     52 CA          1.5305  -13.3181  -42.7227 C.3       4 UNK         0.1400 
     53 CB          1.2606  -11.8564  -43.1070 C.3       4 UNK        -0.1800 
     54 N           2.2994  -13.9634  -43.7936 N.am      4 UNK        -0.5000 
     55 C           2.6462  -15.2582  -43.8253 C.2       3 UNK         0.5000 
     56 O           2.3670  -16.0534  -42.9256 O.2       3 UNK        -0.5000 
     57 CA          3.4652  -15.7198  -45.0467 C.3       3 UNK         0.1400 
     58 CB          3.5398  -17.2564  -45.1653 C.3       3 UNK        -0.1800 
     59 N           3.0166  -15.1072  -46.3044 N.am      3 UNK        -0.5000 
     60 C           1.8419  -15.3023  -46.9216 C.2       2 UNK         0.5000 
     61 O           0.9513  -16.0350  -46.4844 O.2       2 UNK        -0.5000 
     62 CA          1.6515  -14.5691  -48.2669 C.3       2 UNK         0.1400 
     63 CB          2.8155  -14.8337  -49.2396 C.3       2 UNK        -0.1800 
     64 N           0.4116  -14.9955  -48.9115 N.am      2 UNK        -0.5000 
     65 C          -0.7803  -14.4170  -48.7352 C.2       1 UNK         0.5000 
     66 O          -0.9570  -13.3702  -48.1060 O.2       1 UNK        -0.5000 
     67 C           0.2501  -22.1199  -46.8870 C.2       11 UNK         0.5000 
     68 O           0.3625  -22.9370  -47.7989 O.2       11 UNK        -0.5000 
     69 N          -0.9319  -21.6534  -46.4515 N.am      12 UNK        -0.5000 
     70 CA         -2.2450  -21.9901  -47.0133 C.3       12 UNK         0.1400 
     71 CB         -3.3523  -21.2940  -46.2063 C.3       12 UNK        -0.1800 
     72 C          -2.5284  -23.5007  -47.0700 C.2       12 UNK         0.5000 
     73 O          -3.1242  -23.9647  -48.0412 O.2       12 UNK        -0.5000 
     74 N          -2.0689  -24.2364  -46.0492 N.am      13 UNK        -0.5000 
     75 CA         -2.1559  -25.6936  -45.9584 C.3       13 UNK         0.1400 
     76 CB         -1.6687  -26.1324  -44.5693 C.3       13 UNK        -0.1800 
     77 C          -1.3719  -26.4336  -47.0620 C.2       13 UNK         0.5000 
     78 O          -1.7984  -27.5088  -47.4843 O.2       13 UNK        -0.5000 
     79 N          -0.2536  -25.8495  -47.5123 N.am      14 UNK        -0.5000 
     80 CA          0.5835  -26.3789  -48.5890 C.3       14 UNK         0.1400 
     81 CB          2.0513  -26.0200  -48.3082 C.3       14 UNK        -0.1800 
     82 C           0.1460  -25.8360  -49.9601 C.2       14 UNK         0.5000 
     83 O           0.1406  -26.5827  -50.9389 O.2       14 UNK        -0.5000 
     84 N          -0.2195  -24.5481  -50.0028 N.am      15 UNK        -0.5000 
     85 CA         -0.6308  -23.8172  -51.2020 C.3       15 UNK         0.1400 
     86 CB         -0.4781  -22.3143  -50.9297 C.3       15 UNK        -0.1800 
     87 C          -2.0617  -24.1428  -51.6778 C.2       15 UNK         0.5000 
     88 O          -2.4229  -23.7412  -52.7852 O.2       15 UNK        -0.5000 
     89 N          -2.8318  -24.8590  -50.8461 N.am      16 UNK        -0.5000 
     90 CA         -4.2166  -25.2954  -51.0437 C.3       16 UNK         0.1400 
     91 CB         -4.3504  -26.2018  -52.2862 C.3       16 UNK        -0.1800 
     92 C          -5.2150  -24.1206  -51.0258 C.2       16 UNK         0.5000 
     93 O          -6.1128  -24.0582  -51.8680 O.2       16 UNK        -0.5000 
     94 N          -5.0427  -23.2281  -50.0382 N.am      17 UNK        -0.5000 
     95 CA         -5.8430  -22.0298  -49.7641 C.3       17 UNK         0.1400 
     96 CB         -7.2229  -22.4271  -49.1952 C.3       17 UNK        -0.1800 
     97 C          -5.9026  -21.0910  -50.9873 C.2       17 UNK         0.5000 
     98 O          -4.8517  -20.6056  -51.4011 O.2       17 UNK        -0.5000 
     99 N          -7.1054  -20.8636  -51.5365 N.am      18 UNK        -0.5000 
    100 CA        -7.4564  -20.1767  -52.7895 C.3       18 UNK         0.1400 
    101 CB        -6.8848  -20.9296  -54.0055 C.3       18 UNK        -0.1800 
    102 C         -7.1279  -18.6714  -52.8706 C.2       18 UNK         0.5000 
    103 O         -7.9723  -17.9053  -53.3344 O.2       18 UNK        -0.5000 
    104 N         -5.9213  -18.2766  -52.4447 N.am      19 UNK        -0.5000 
    105 CA        -5.3832  -16.9093  -52.3768 C.3       19 UNK         0.1400 
    106 CB        -6.2062  -16.0580  -51.3868 C.3       19 UNK        -0.1800 
    107 C         -5.2169  -16.1919  -53.7373 C.2       19 UNK         0.5000 
    108 O         -4.9870  -14.9820  -53.7534 O.2       19 UNK        -0.5000 
    109 N         -5.3184  -16.9273  -54.8510 N.am      20 UNK        -0.5000 
    110 CA        -5.1763  -16.4080  -56.2117 C.3       20 UNK         0.1400 
    111 CB        -6.4660  -15.6993  -56.6670 C.3       20 UNK        -0.1800 
    112 C         -4.7889  -17.5454  -57.1624 C.2       20 UNK         0.5000 
    113 O         -3.7385  -17.4806  -57.7996 O.2       20 UNK        -0.5000 
    114 N         -5.6124  -18.6023  -57.1881 N.am      21 UNK        -0.5000 
    115 CA        -5.3744  -19.8458  -57.9334 C.3       21 UNK         0.1400 
    116 CB        -6.7347  -20.4200  -58.3683 C.3       21 UNK        -0.1800 
    117 C         -4.5522  -20.8706  -57.1172 C.2       21 UNK         0.5000 
    118 O         -4.6373  -22.0736  -57.3685 O.2       21 UNK        -0.5000 
    119 N         -3.8102  -20.3763  -56.1228 N.am      22 UNK        -0.5000 
    120 CA        -3.0091  -21.1404  -55.1657 C.3       22 UNK         0.1400 
    121 C         -1.7027  -21.7356  -55.7589 C.2       22 UNK         0.5000 
    122 N         -1.1573  -22.7653  -55.1272 N.am      22 UNK        -0.7600 
    123 O         -1.1695  -21.2696  -56.7640 O.2       22 UNK        -0.5000 
    124 C124       -2.7565  -20.2931  -53.8963 C.3       23 UNK        -0.0398 
    125 S125       -1.9314  -18.6855  -54.1709 S.3       23 UNK        -0.2404 
    126 C126       -0.3527  -18.9374  -53.2882 C.3       23 UNK        -0.0205 
    127 H127       -4.7526  -12.6743  -50.8072 H         1 UNK         0.0600 
    128 H128       -4.1343  -12.7110  -52.4595 H         1 UNK         0.0600 
    129 H129       -3.5250  -11.5105  -51.3165 H         1 UNK         0.0600 
    130 H130       -3.8242  -14.1480  -49.4118 H         1 UNK         0.3000 
    131 H131       -1.6150  -15.8135  -50.1354 H         1 UNK         0.0600 
    132 H132       -1.8676  -16.6193  -47.6942 H         1 UNK         0.0800 
    133 H133       -3.1509  -15.4596  -47.5056 H         1 UNK         0.0800 
    134 H134       -2.6789  -19.0035  -47.7873 H         1 UNK         0.0800 
    135 H135       -3.5029  -19.6278  -49.1961 H         1 UNK         0.0800 
    136 H136       -2.5560  -18.8962  -51.5179 H         1 UNK         0.1150 
    137 H137        1.7386  -18.8289  -51.6211 H         1 UNK         0.1150 
    138 H138       -0.3374  -18.6652  -47.8784 H         1 UNK         0.1150 
    139 H139        2.9550  -18.3137  -49.6264 H         1 UNK         0.0800 
    140 H140        2.1372  -17.9595  -48.1301 H         1 UNK         0.0800 
    141 H141        2.8238  -19.9447  -45.9719 H         1 UNK         0.0800 
    142 H142        1.2356  -19.5218  -46.5394 H         1 UNK         0.0800 
    143 H143        2.3022  -22.3788  -46.3562 H         1 UNK         0.0600 
    144 H144        0.8554  -20.8072  -44.3234 H         1 UNK         0.3000 
    145 H145        0.6782  -23.4947  -42.0423 H         1 UNK         0.0600 
    146 H146        1.9059  -21.9184  -40.5459 H         1 UNK         0.0600 
    147 H147        3.0153  -22.7040  -41.6601 H         1 UNK         0.0600 
    148 H148        2.5164  -21.0413  -41.9484 H         1 UNK         0.0600 
    149 H149        0.0482  -20.7339  -41.7743 H         1 UNK         0.3000 
    150 H150       -3.1571  -20.7589  -43.3082 H         1 UNK         0.0600 
    151 H151       -3.5190  -21.7824  -41.0521 H         1 UNK         0.0600 
    152 H152       -3.8631  -20.0596  -41.0537 H         1 UNK         0.0600 
    153 H153       -2.3581  -20.6561  -40.3562 H         1 UNK         0.0600 
    154 H154       -2.0836  -18.6559  -41.9346 H         1 UNK         0.3000 
    155 H155        0.2247  -17.2552  -44.1754 H         1 UNK         0.0600 
    156 H156       -1.3789  -15.3944  -44.3424 H         1 UNK         0.0600 
    157 H157       -2.6931  -16.4240  -43.7673 H         1 UNK         0.0600 
    158 H158       -1.9213  -16.7546  -45.3098 H         1 UNK         0.0600 
    159 H159        0.6142  -16.6145  -42.1439 H         1 UNK         0.3000 
    160 H160       -0.6584  -15.1484  -39.8421 H         1 UNK         0.0600 
    161 H161       -1.0928  -17.9183  -38.6090 H         1 UNK         0.0600 
    162 H162       -2.1966  -16.5527  -38.5448 H         1 UNK         0.0600 
    163 H163       -0.6590  -16.4683  -37.7038 H         1 UNK         0.0600 
    164 H164        1.4929  -15.5417  -39.8230 H         1 UNK         0.3000 
    165 H165        3.5406  -17.6485  -38.8499 H         1 UNK         0.0600 
    166 H166        3.4596  -18.3783  -41.8264 H         1 UNK         0.0600 
    167 H167        4.9284  -18.3394  -40.8512 H         1 UNK         0.0600 
    168 H168        3.6542  -19.4826  -40.4683 H         1 UNK         0.0600 
    169 H169        3.4327  -15.8706  -41.2466 H         1 UNK         0.3000 
    170 H170        4.0631  -12.9969  -39.3521 H         1 UNK         0.0600 
    171 H171        6.4474  -13.7172  -39.5667 H         1 UNK         0.0600 
    172 H172        6.1430  -14.2831  -41.2047 H         1 UNK         0.0600 
    173 H173        6.0196  -12.5652  -40.8210 H         1 UNK         0.0600 
    174 H174        4.0331  -13.4534  -42.1754 H         1 UNK         0.3000 
    175 H175        0.5709  -13.8350  -42.6530 H         1 UNK         0.0600 
    176 H176        2.1874  -11.2937  -43.2254 H         1 UNK         0.0600 
    177 H177        0.7047  -11.7907  -44.0426 H         1 UNK         0.0600 
    178 H178        0.6666  -11.3542  -42.3422 H         1 UNK         0.0600 
    179 H179        2.5653  -13.3783  -44.5719 H         1 UNK         0.3000 
    180 H180        4.4810  -15.3593  -44.8799 H         1 UNK         0.0600 
    181 H181        2.5467  -17.7030  -45.2076 H         1 UNK         0.0600 
    182 H182        4.0523  -17.6896  -44.3057 H         1 UNK         0.0600 
    183 H183        4.0863  -17.5610  -46.0578 H         1 UNK         0.0600 
    184 H184        3.6851  -14.4889  -46.7425 H         1 UNK         0.3000 
    185 H185        1.6129  -13.4976  -48.0603 H         1 UNK         0.0600 
    186 H186        2.6376  -14.3528  -50.2018 H         1 UNK         0.0600 
    187 H187        3.7566  -14.4371  -48.8580 H         1 UNK         0.0600 
    188 H188        2.9575  -15.8980  -49.4234 H         1 UNK         0.0600 
    189 H189        0.4536  -15.8775  -49.4012 H         1 UNK         0.3000 
    190 H190       -0.9271  -20.9596  -45.7075 H         1 UNK         0.3000 
    191 H191       -2.2618  -21.6055  -48.0340 H         1 UNK         0.0600 
    192 H192       -3.1029  -20.2616  -45.9654 H         1 UNK         0.0600 
    193 H193       -4.2889  -21.2843  -46.7639 H         1 UNK         0.0600 
    194 H194       -3.5465  -21.8132  -45.2683 H         1 UNK         0.0600 
    195 H195       -1.6491  -23.7552  -45.2610 H         1 UNK         0.3000 
    196 H196       -3.2071  -25.9715  -46.0581 H         1 UNK         0.0600 
    197 H197       -1.7321  -27.2153  -44.4547 H         1 UNK         0.0600 
    198 H198       -2.2744  -25.6858  -43.7804 H         1 UNK         0.0600 
    199 H199       -0.6311  -25.8419  -44.3981 H         1 UNK         0.0600 
    200 H200       -0.0044  -24.9345  -47.1575 H         1 UNK         0.3000 
    201 H201        0.5049  -27.4679  -48.6165 H         1 UNK         0.0600 
    202 H202        2.3832  -26.4381  -47.3578 H         1 UNK         0.0600 
    203 H203        2.2057  -24.9409  -48.2700 H         1 UNK         0.0600 
    204 H204        2.7054  -26.4177  -49.0851 H         1 UNK         0.0600 
    205 H205       -0.1236  -23.9910  -49.1554 H         1 UNK         0.3000 
    206 H206        0.0508  -24.0849  -52.0118 H         1 UNK         0.0600 
    207 H207        0.5130  -22.0747  -50.5431 H         1 UNK         0.0600 
    208 H208       -0.6061  -21.7432  -51.8469 H         1 UNK         0.0600 
    209 H209       -1.2129  -21.9553  -50.2086 H         1 UNK         0.0600 
    210 H210       -2.4467  -25.0588  -49.9322 H         1 UNK         0.3000 
    211 H211       -4.4607  -25.9060  -50.1732 H         1 UNK         0.0600 
    212 H212       -4.1961  -25.6498  -53.2136 H         1 UNK         0.0600 
    213 H213       -5.3444  -26.6474  -52.3362 H         1 UNK         0.0600 
    214 H214       -3.6297  -27.0191  -52.2574 H         1 UNK         0.0600 
    215 H215       -4.2753  -23.4002  -49.3931 H         1 UNK         0.3000 
    216 H216       -5.3135  -21.4777  -48.9873 H         1 UNK         0.0600 
    217 H217       -7.1091  -23.0287  -48.2932 H         1 UNK         0.0600 
    218 H218       -7.8103  -23.0107  -49.9050 H         1 UNK         0.0600 
    219 H219       -7.8051  -21.5472  -48.9182 H         1 UNK         0.0600 
    220 H220       -7.8910  -21.2995  -51.0750 H         1 UNK         0.3000 
    221 H221       -8.5432  -20.2484  -52.8558 H         1 UNK         0.0600 
    222 H222       -5.7973  -20.9652  -53.9881 H         1 UNK         0.0600 
    223 H223       -7.2459  -21.9578  -54.0340 H         1 UNK         0.0600 
    224 H224       -7.1841  -20.4547  -54.9403 H         1 UNK         0.0600 
    225 H225       -5.3200  -19.0088  -52.0693 H         1 UNK         0.3000 
    226 H226       -4.3759  -17.0086  -51.9702 H         1 UNK         0.0600 
    227 H227       -5.6989  -15.1197  -51.1621 H         1 UNK         0.0600 
    228 H228       -7.1893  -15.8095  -51.7875 H         1 UNK         0.0600 
    229 H229       -6.3541  -16.5793  -50.4415 H         1 UNK         0.0600 
    230 H230       -5.4776  -17.9182  -54.7529 H         1 UNK         0.3000 
    231 H231       -4.3591  -15.6834  -56.2288 H         1 UNK         0.0600 
    232 H232       -6.3872  -15.3712  -57.7042 H         1 UNK         0.0600 
    233 H233       -6.6633  -14.8137  -56.0628 H         1 UNK         0.0600 
    234 H234       -7.3363  -16.3520  -56.5913 H         1 UNK         0.0600 
    235 H235       -6.4677  -18.5654  -56.6533 H         1 UNK         0.3000 
    236 H236       -4.8017  -19.6234  -58.8360 H         1 UNK         0.0600 
    237 H237       -7.3402  -20.7151  -57.5107 H         1 UNK         0.0600 
    238 H238       -6.6073  -21.3003  -58.9995 H         1 UNK         0.0600 
    239 H239       -7.3033  -19.6913  -58.9463 H         1 UNK         0.0600 
    240 H240       -3.7185  -19.3744  -56.0549 H         1 UNK         0.3000 
    241 H241       -3.6198  -21.9936  -54.8619 H         1 UNK         0.0600 
    242 H242       -0.3088  -23.1730  -55.4856 H         1 UNK         0.3800 
    243 H243       -1.6050  -23.1669  -54.3045 H         1 UNK         0.3800 
    244 H244       -2.2337  -20.8756  -53.1393 H         1 UNK         0.0800 
    245 H245       -3.7195  -20.0496  -53.4598 H         1 UNK         0.0800 
    246 H246        0.3435  -18.1788  -53.6487 H         1 UNK         0.0800 
    247 H247        0.0682  -19.9004  -53.5810 H         1 UNK         0.0800 
@<TRIPOS>BOND
     1    1    2 1    
     2    1  127 1    
     3    1  128 1    
     4    1  129 1    
     5    2    3 2    
     6    2    4 am   BACKBONE|DICT|INTERRES
     7    4    5 1    
     8    4  130 1    
     9    5    6 1    
    10    5   65 1    
    11    5  131 1    
    12    6    7 1    
    13    6  132 1    
    14    6  133 1    
    15    7    8 1    
    16    8    9 1    
    17    8  134 1    
    18    8  135 1    
    19    9   10 ar   
    20    9   14 ar   
    21   10   11 ar   
    22   10  136 1    
    23   11   12 ar   
    24   11  126 1    
    25   12   13 ar   
    26   12  137 1    
    27   13   14 ar   
    28   13   15 1    
    29   14  138 1    
    30   15   16 1    
    31   15  139 1    
    32   15  140 1    
    33   16   17 1    
    34   17   18 1    
    35   17  141 1    
    36   17  142 1    
    37   18   19 1    
    38   18   67 1    
    39   18  143 1    
    40   19   20 am   BACKBONE|DICT|INTERRES
    41   19  144 1    
    42   20   21 2    
    43   20   22 1    
    44   22   23 1    
    45   22   24 1    
    46   22  145 1    
    47   23  146 1    
    48   23  147 1    
    49   23  148 1    
    50   24   25 am   BACKBONE|DICT|INTERRES
    51   24  149 1    
    52   25   26 2    
    53   25   27 1    
    54   27   28 1    
    55   27   29 1    
    56   27  150 1    
    57   28  151 1    
    58   28  152 1    
    59   28  153 1    
    60   29   30 am   BACKBONE|DICT|INTERRES
    61   29  154 1    
    62   30   31 2    
    63   30   32 1    
    64   32   33 1    
    65   32   34 1    
    66   32  155 1    
    67   33  156 1    
    68   33  157 1    
    69   33  158 1    
    70   34   35 am   BACKBONE|DICT|INTERRES
    71   34  159 1    
    72   35   36 2    
    73   35   37 1    
    74   37   38 1    
    75   37   39 1    
    76   37  160 1    
    77   38  161 1    
    78   38  162 1    
    79   38  163 1    
    80   39   40 am   BACKBONE|DICT|INTERRES
    81   39  164 1    
    82   40   41 2    
    83   40   42 1    
    84   42   43 1    
    85   42   44 1    
    86   42  165 1    
    87   43  166 1    
    88   43  167 1    
    89   43  168 1    
    90   44   45 am   BACKBONE|DICT|INTERRES
    91   44  169 1    
    92   45   46 2    
    93   45   47 1    
    94   47   48 1    
    95   47   49 1    
    96   47  170 1    
    97   48  171 1    
    98   48  172 1    
    99   48  173 1    
   100   49   50 am   BACKBONE|DICT|INTERRES
   101   49  174 1    
   102   50   51 2    
   103   50   52 1    
   104   52   53 1    
   105   52   54 1    
   106   52  175 1    
   107   53  176 1    
   108   53  177 1    
   109   53  178 1    
   110   54   55 am   BACKBONE|DICT|INTERRES
   111   54  179 1    
   112   55   56 2    
   113   55   57 1    
   114   57   58 1    
   115   57   59 1    
   116   57  180 1    
   117   58  181 1    
   118   58  182 1    
   119   58  183 1    
   120   59   60 am   BACKBONE|DICT|INTERRES
   121   59  184 1    
   122   60   61 2    
   123   60   62 1    
   124   62   63 1    
   125   62   64 1    
   126   62  185 1    
   127   63  186 1    
   128   63  187 1    
   129   63  188 1    
   130   64   65 am   BACKBONE|DICT|INTERRES
   131   64  189 1    
   132   65   66 2    
   133   67   68 2    
   134   67   69 am   BACKBONE|DICT|INTERRES
   135   69   70 1    
   136   69  190 1    
   137   70   71 1    
   138   70   72 1    
   139   70  191 1    
   140   71  192 1    
   141   71  193 1    
   142   71  194 1    
   143   72   73 2    
   144   72   74 am   BACKBONE|DICT|INTERRES
   145   74   75 1    
   146   74  195 1    
   147   75   76 1    
   148   75   77 1    
   149   75  196 1    
   150   76  197 1    
   151   76  198 1    
   152   76  199 1    
   153   77   78 2    
   154   77   79 am   BACKBONE|DICT|INTERRES
   155   79   80 1    
   156   79  200 1    
   157   80   81 1    
   158   80   82 1    
   159   80  201 1    
   160   81  202 1    
   161   81  203 1    
   162   81  204 1    
   163   82   83 2    
   164   82   84 am   BACKBONE|DICT|INTERRES
   165   84   85 1    
   166   84  205 1    
   167   85   86 1    
   168   85   87 1    
   169   85  206 1    
   170   86  207 1    
   171   86  208 1    
   172   86  209 1    
   173   87   88 2    
   174   87   89 am   BACKBONE|DICT|INTERRES
   175   89   90 1    
   176   89  210 1    
   177   90   91 1    
   178   90   92 1    
   179   90  211 1    
   180   91  212 1    
   181   91  213 1    
   182   91  214 1    
   183   92   93 2    
   184   92   94 am   BACKBONE|DICT|INTERRES
   185   94   95 1    
   186   94  215 1    
   187   95   96 1    
   188   95   97 1    
   189   95  216 1    
   190   96  217 1    
   191   96  218 1    
   192   96  219 1    
   193   97   98 2    
   194   97   99 am   BACKBONE|DICT|INTERRES
   195   99  100 1    
   196   99  220 1    
   197  100  101 1    
   198  100  102 1    
   199  100  221 1    
   200  101  222 1    
   201  101  223 1    
   202  101  224 1    
   203  102  103 2    
   204  102  104 am   BACKBONE|DICT|INTERRES
   205  104  105 1    
   206  104  225 1    
   207  105  106 1    
   208  105  107 1    
   209  105  226 1    
   210  106  227 1    
   211  106  228 1    
   212  106  229 1    
   213  107  108 2    
   214  107  109 am   BACKBONE|DICT|INTERRES
   215  109  110 1    
   216  109  230 1    
   217  110  111 1    
   218  110  112 1    
   219  110  231 1    
   220  111  232 1    
   221  111  233 1    
   222  111  234 1    
   223  112  113 2    
   224  112  114 am   BACKBONE|DICT|INTERRES
   225  114  115 1    
   226  114  235 1    
   227  115  116 1    
   228  115  117 1    
   229  115  236 1    
   230  116  237 1    
   231  116  238 1    
   232  116  239 1    
   233  117  118 2    
   234  117  119 am   BACKBONE|DICT|INTERRES
   235  119  120 1    
   236  119  240 1    
   237  120  121 1    
   238  120  124 1    
   239  120  241 1    
   240  121  122 am   BACKBONE|DICT|INTERRES
   241  121  123 2    
   242  122  242 1    
   243  122  243 1    
   244  124  125 1    
   245  124  244 1    
   246  124  245 1    
   247  125  126 1    
   248  126  246 1    
   249  126  247 1    
@<TRIPOS>SUBSTRUCTURE
     1 UNK         1 GROUP             0       ****    0 ROOT    
