@<TRIPOS>MOLECULE
3R540
247   249    1
SMALL
USER_CHARGES


@<TRIPOS>ATOM
      1 CA          4.8304  -14.3710  -43.2753 C.3       0 UNK        -0.1800 
      2 C           3.8339  -13.7146  -44.2183 C.2       0 UNK         0.5000 
      3 O           2.8423  -13.1408  -43.7612 O.2       0 UNK        -0.5000 
      4 N           4.0886  -13.8056  -45.5312 N.am      1 UNK        -0.5000 
      5 CA          3.2397  -13.2659  -46.6010 C.3       1 UNK         0.1400 
      6 C6          3.6997  -13.7035  -48.0122 C.3       23 UNK        -0.0398 
      7 S7          3.4986  -15.4977  -48.2365 S.3       23 UNK        -0.2404 
      8 C8          3.7147  -15.6839  -50.0297 C.3       23 UNK        -0.0205 
      9 C9          2.9752  -16.9125  -50.5351 C.ar      23 UNK        -0.0193 
     10 C10         1.7608  -16.7673  -51.2120 C.ar      23 UNK        -0.1150 
     11 C11         1.0695  -17.8880  -51.6854 C.ar      23 UNK        -0.0193 
     12 C12         1.6054  -19.1595  -51.4648 C.ar      23 UNK        -0.1150 
     13 C13         2.8107  -19.3220  -50.7774 C.ar      23 UNK        -0.0193 
     14 C14         3.4957  -18.1925  -50.3197 C.ar      23 UNK        -0.1150 
     15 C15         3.3723  -20.7174  -50.5414 C.3       23 UNK        -0.0205 
     16 S16         2.7967  -21.4391  -48.9703 S.3       23 UNK        -0.2404 
     17 C17         1.0237  -21.6962  -49.3129 C.3       23 UNK        -0.0398 
     18 CA          0.3425  -22.6429  -48.2963 C.3       11 UNK         0.1400 
     19 N           0.2761  -22.0800  -46.9417 N.am      11 UNK        -0.5000 
     20 C          -0.1551  -22.7447  -45.8590 C.2       10 UNK         0.5000 
     21 O          -0.4787  -23.9324  -45.8727 O.2       10 UNK        -0.5000 
     22 CA         -0.3054  -21.9429  -44.5518 C.3       10 UNK         0.1400 
     23 CB          1.0439  -21.7863  -43.8353 C.3       10 UNK        -0.1800 
     24 N          -0.9211  -20.6313  -44.7633 N.am      10 UNK        -0.5000 
     25 C          -2.1811  -20.4520  -45.1869 C.2       9 UNK         0.5000 
     26 O          -2.9694  -21.3751  -45.3841 O.2       9 UNK        -0.5000 
     27 CA         -2.6280  -19.0095  -45.4882 C.3       9 UNK         0.1400 
     28 CB         -3.0926  -18.2971  -44.2096 C.3       9 UNK        -0.1800 
     29 N          -1.5846  -18.2212  -46.1414 N.am      9 UNK        -0.5000 
     30 C          -1.0660  -18.4986  -47.3465 C.2       8 UNK         0.5000 
     31 O          -1.4646  -19.4117  -48.0678 O.2       8 UNK        -0.5000 
     32 CA          0.1393  -17.6504  -47.7871 C.3       8 UNK         0.1400 
     33 CB         -0.3218  -16.2946  -48.3436 C.3       8 UNK        -0.1800 
     34 N           1.0907  -17.4486  -46.6918 N.am      8 UNK        -0.5000 
     35 C           1.7969  -18.4357  -46.1205 C.2       7 UNK         0.5000 
     36 O           1.7373  -19.6082  -46.4811 O.2       7 UNK        -0.5000 
     37 CA          2.6487  -18.0758  -44.8897 C.3       7 UNK         0.1400 
     38 CB          4.0669  -17.6350  -45.2750 C.3       7 UNK        -0.1800 
     39 N           2.0156  -17.0503  -44.0624 N.am      7 UNK        -0.5000 
     40 C           0.9343  -17.2773  -43.3061 C.2       6 UNK         0.5000 
     41 O           0.3867  -18.3754  -43.2074 O.2       6 UNK        -0.5000 
     42 CA          0.3478  -16.0619  -42.5732 C.3       6 UNK         0.1400 
     43 CB          1.1318  -15.7625  -41.2868 C.3       6 UNK        -0.1800 
     44 N           0.3114  -14.8591  -43.4047 N.am      6 UNK        -0.5000 
     45 C          -0.4832  -14.6862  -44.4704 C.2       5 UNK         0.5000 
     46 O          -1.1618  -15.5917  -44.9555 O.2       5 UNK        -0.5000 
     47 CA         -0.5212  -13.2721  -45.0966 C.3       5 UNK         0.1400 
     48 CB         -1.8918  -12.9387  -45.7223 C.3       5 UNK        -0.1800 
     49 N          -0.0773  -12.2142  -44.1743 N.am      5 UNK        -0.5000 
     50 C          -0.6713  -11.8571  -43.0238 C.2       4 UNK         0.5000 
     51 O          -1.7477  -12.3215  -42.6458 O.2       4 UNK        -0.5000 
     52 CA          0.0643  -10.8494  -42.1208 C.3       4 UNK         0.1400 
     53 CB         -0.0950  -11.2081  -40.6265 C.3       4 UNK        -0.1800 
     54 N           1.4894  -10.7208  -42.4459 N.am      4 UNK        -0.5000 
     55 C           2.2326   -9.6601  -42.1005 C.2       3 UNK         0.5000 
     56 O           1.7769   -8.6443  -41.5728 O.2       3 UNK        -0.5000 
     57 CA          3.7409   -9.7499  -42.3790 C.3       3 UNK         0.1400 
     58 CB          4.4075  -10.8122  -41.4891 C.3       3 UNK        -0.1800 
     59 N           4.0235  -10.0311  -43.7838 N.am      3 UNK        -0.5000 
     60 C           3.9255   -9.1302  -44.7719 C.2       2 UNK         0.5000 
     61 O           3.5683   -7.9640  -44.6013 O.2       2 UNK        -0.5000 
     62 CA          4.3147   -9.5968  -46.1880 C.3       2 UNK         0.1400 
     63 CB          5.7359   -9.1264  -46.5354 C.3       2 UNK        -0.1800 
     64 N           4.2462  -11.0498  -46.3503 N.am      2 UNK        -0.5000 
     65 C           3.1073  -11.7344  -46.5152 C.2       1 UNK         0.5000 
     66 O           1.9915  -11.2156  -46.5532 O.2       1 UNK        -0.5000 
     67 C          -1.0513  -23.0661  -48.8046 C.2       11 UNK         0.5000 
     68 O          -1.1925  -24.1755  -49.3203 O.2       11 UNK        -0.5000 
     69 N          -2.0594  -22.2037  -48.6091 N.am      12 UNK        -0.5000 
     70 CA         -3.4550  -22.4772  -48.9505 C.3       12 UNK         0.1400 
     71 CB         -4.3032  -21.2147  -48.7421 C.3       12 UNK        -0.1800 
     72 C          -4.0332  -23.6605  -48.1561 C.2       12 UNK         0.5000 
     73 O          -4.6850  -24.5194  -48.7465 O.2       12 UNK        -0.5000 
     74 N          -3.7554  -23.7119  -46.8454 N.am      13 UNK        -0.5000 
     75 CA         -4.1537  -24.8001  -45.9511 C.3       13 UNK         0.1400 
     76 CB         -3.8291  -24.4272  -44.4972 C.3       13 UNK        -0.1800 
     77 C          -3.5137  -26.1485  -46.3261 C.2       13 UNK         0.5000 
     78 O          -4.2087  -27.1648  -46.3260 O.2       13 UNK        -0.5000 
     79 N          -2.2236  -26.1335  -46.6919 N.am      14 UNK        -0.5000 
     80 CA         -1.4874  -27.2990  -47.1926 C.3       14 UNK         0.1400 
     81 CB          0.0022  -26.9474  -47.3223 C.3       14 UNK        -0.1800 
     82 C          -2.0425  -27.8344  -48.5283 C.2       14 UNK         0.5000 
     83 O          -2.0316  -29.0450  -48.7521 O.2       14 UNK        -0.5000 
     84 N          -2.5593  -26.9272  -49.3659 N.am      15 UNK        -0.5000 
     85 CA         -3.2616  -27.2186  -50.6161 C.3       15 UNK         0.1400 
     86 CB         -3.0343  -26.0429  -51.5781 C.3       15 UNK        -0.1800 
     87 C          -4.7698  -27.4965  -50.4200 C.2       15 UNK         0.5000 
     88 O          -5.4924  -27.6035  -51.4121 O.2       15 UNK        -0.5000 
     89 N          -5.2336  -27.5843  -49.1623 N.am      16 UNK        -0.5000 
     90 CA         -6.6129  -27.8482  -48.7303 C.3       16 UNK         0.1400 
     91 CB         -7.0143  -29.2963  -49.0793 C.3       16 UNK        -0.1800 
     92 C          -7.6372  -26.8083  -49.2377 C.2       16 UNK         0.5000 
     93 O          -8.8053  -27.1431  -49.4408 O.2       16 UNK        -0.5000 
     94 N          -7.1690  -25.5704  -49.4548 N.am      17 UNK        -0.5000 
     95 CA         -7.8725  -24.4131  -50.0169 C.3       17 UNK         0.1400 
     96 CB         -9.0225  -23.9661  -49.0915 C.3       17 UNK        -0.1800 
     97 C          -8.3280  -24.5887  -51.4834 C.2       17 UNK         0.5000 
     98 O          -9.0880  -23.7562  -51.9808 O.2       17 UNK        -0.5000 
     99 N          -7.8508  -25.6398  -52.1659 N.am      18 UNK        -0.5000 
    100 CA        -8.1524  -25.9214  -53.5712 C.3       18 UNK         0.1400 
    101 CB        -7.9999  -27.4302  -53.8188 C.3       18 UNK        -0.1800 
    102 C         -7.2566  -25.1229  -54.5373 C.2       18 UNK         0.5000 
    103 O         -7.5979  -24.9917  -55.7135 O.2       18 UNK        -0.5000 
    104 N         -6.1317  -24.6105  -54.0293 N.am      19 UNK        -0.5000 
    105 CA        -5.1239  -23.8333  -54.7373 C.3       19 UNK         0.1400 
    106 CB        -4.2646  -24.7699  -55.6124 C.3       19 UNK        -0.1800 
    107 C         -4.2739  -23.0855  -53.6960 C.2       19 UNK         0.5000 
    108 O         -4.5450  -23.1882  -52.4967 O.2       19 UNK        -0.5000 
    109 N         -3.2529  -22.3628  -54.1779 N.am      20 UNK        -0.5000 
    110 CA        -2.1906  -21.7065  -53.4037 C.3       20 UNK         0.1400 
    111 CB        -1.3071  -22.7592  -52.7026 C.3       20 UNK        -0.1800 
    112 C         -2.6761  -20.6062  -52.4361 C.2       20 UNK         0.5000 
    113 O         -2.0018  -20.3307  -51.4443 O.2       20 UNK        -0.5000 
    114 N         -3.8122  -19.9754  -52.7558 N.am      21 UNK        -0.5000 
    115 CA        -4.3477  -18.8178  -52.0455 C.3       21 UNK         0.1400 
    116 CB        -5.8803  -18.9184  -52.0073 C.3       21 UNK        -0.1800 
    117 C         -3.8964  -17.5309  -52.7545 C.2       21 UNK         0.5000 
    118 O         -3.9718  -17.4571  -53.9835 O.2       21 UNK        -0.5000 
    119 N         -3.4445  -16.5496  -51.9666 N.am      22 UNK        -0.5000 
    120 CA        -2.9227  -15.2485  -52.4277 C.3       22 UNK         0.1400 
    121 C         -3.6259  -14.0411  -51.7383 C.2       22 UNK         0.5000 
    122 N         -4.7070  -14.2339  -50.9912 N.am      22 UNK        -0.7600 
    123 O         -3.1996  -12.9005  -51.8965 O.2       22 UNK        -0.5000 
    124 C124       -1.3739  -15.1687  -52.2981 C.3       23 UNK        -0.0398 
    125 S125       -0.4996  -16.2984  -53.4361 S.3       23 UNK        -0.2404 
    126 C126       -0.2767  -17.7785  -52.3934 C.3       23 UNK        -0.0205 
    127 H127        4.3166  -15.0537  -42.5996 H         1 UNK         0.0600 
    128 H128        5.5866  -14.9386  -43.8179 H         1 UNK         0.0600 
    129 H129        5.3374  -13.6144  -42.6774 H         1 UNK         0.0600 
    130 H130        4.9170  -14.2940  -45.8408 H         1 UNK         0.3000 
    131 H131        2.2459  -13.6815  -46.4456 H         1 UNK         0.0600 
    132 H132        3.1071  -13.2002  -48.7788 H         1 UNK         0.0800 
    133 H133        4.7412  -13.4322  -48.1922 H         1 UNK         0.0800 
    134 H134        3.3550  -14.7922  -50.5450 H         1 UNK         0.0800 
    135 H135        4.7778  -15.7666  -50.2600 H         1 UNK         0.0800 
    136 H136        1.3545  -15.7780  -51.3611 H         1 UNK         0.1150 
    137 H137        1.0708  -20.0311  -51.8158 H         1 UNK         0.1150 
    138 H138        4.4279  -18.3085  -49.7849 H         1 UNK         0.1150 
    139 H139        3.1068  -21.3785  -51.3677 H         1 UNK         0.0800 
    140 H140        4.4623  -20.6758  -50.5274 H         1 UNK         0.0800 
    141 H141        0.9416  -22.1049  -50.3210 H         1 UNK         0.0800 
    142 H142        0.5217  -20.7278  -49.3295 H         1 UNK         0.0800 
    143 H143        0.9429  -23.5531  -48.2343 H         1 UNK         0.0600 
    144 H144        0.5923  -21.1195  -46.8357 H         1 UNK         0.3000 
    145 H145       -0.9652  -22.5102  -43.8921 H         1 UNK         0.0600 
    146 H146        0.9338  -21.2366  -42.9004 H         1 UNK         0.0600 
    147 H147        1.4677  -22.7614  -43.5924 H         1 UNK         0.0600 
    148 H148        1.7729  -21.2602  -44.4499 H         1 UNK         0.0600 
    149 H149       -0.3476  -19.8173  -44.5748 H         1 UNK         0.3000 
    150 H150       -3.4774  -19.0631  -46.1721 H         1 UNK         0.0600 
    151 H151       -3.8938  -18.8539  -43.7222 H         1 UNK         0.0600 
    152 H152       -3.4760  -17.3009  -44.4314 H         1 UNK         0.0600 
    153 H153       -2.2820  -18.1891  -43.4892 H         1 UNK         0.0600 
    154 H154       -1.2417  -17.4108  -45.6336 H         1 UNK         0.3000 
    155 H155        0.6548  -18.1891  -48.5854 H         1 UNK         0.0600 
    156 H156        0.5178  -15.7153  -48.7259 H         1 UNK         0.0600 
    157 H157       -0.8285  -15.6933  -47.5896 H         1 UNK         0.0600 
    158 H158       -1.0199  -16.4388  -49.1681 H         1 UNK         0.0600 
    159 H159        1.1730  -16.5149  -46.3231 H         1 UNK         0.3000 
    160 H160        2.7448  -18.9845  -44.2915 H         1 UNK         0.0600 
    161 H161        4.0731  -16.6498  -45.7342 H         1 UNK         0.0600 
    162 H162        4.5185  -18.3332  -45.9811 H         1 UNK         0.0600 
    163 H163        4.7138  -17.5939  -44.3986 H         1 UNK         0.0600 
    164 H164        2.3935  -16.1169  -44.1029 H         1 UNK         0.3000 
    165 H165       -0.6791  -16.3090  -42.2952 H         1 UNK         0.0600 
    166 H166        2.1576  -15.4600  -41.4984 H         1 UNK         0.0600 
    167 H167        0.6591  -14.9628  -40.7163 H         1 UNK         0.0600 
    168 H168        1.1736  -16.6407  -40.6411 H         1 UNK         0.0600 
    169 H169        0.8938  -14.0842  -43.1164 H         1 UNK         0.3000 
    170 H170        0.1924  -13.2833  -45.9158 H         1 UNK         0.0600 
    171 H171       -2.1284  -13.6289  -46.5329 H         1 UNK         0.0600 
    172 H172       -2.7013  -13.0061  -44.9954 H         1 UNK         0.0600 
    173 H173       -1.8988  -11.9331  -46.1428 H         1 UNK         0.0600 
    174 H174        0.7920  -11.7634  -44.4274 H         1 UNK         0.3000 
    175 H175       -0.4220   -9.8879  -42.2979 H         1 UNK         0.0600 
    176 H176        0.3644  -10.4596  -39.9811 H         1 UNK         0.0600 
    177 H177       -1.1457  -11.2663  -40.3399 H         1 UNK         0.0600 
    178 H178        0.3629  -12.1713  -40.3988 H         1 UNK         0.0600 
    179 H179        1.9437  -11.5280  -42.8614 H         1 UNK         0.3000 
    180 H180        4.1857   -8.7846  -42.1271 H         1 UNK         0.0600 
    181 H181        3.9973  -11.8072  -41.6599 H         1 UNK         0.0600 
    182 H182        4.2612  -10.5789  -40.4338 H         1 UNK         0.0600 
    183 H183        5.4824  -10.8570  -41.6649 H         1 UNK         0.0600 
    184 H184        4.2923  -10.9744  -44.0171 H         1 UNK         0.3000 
    185 H185        3.6211   -9.1305  -46.8912 H         1 UNK         0.0600 
    186 H186        6.0019   -9.3961  -47.5576 H         1 UNK         0.0600 
    187 H187        5.8192   -8.0417  -46.4552 H         1 UNK         0.0600 
    188 H188        6.4796   -9.5628  -45.8675 H         1 UNK         0.0600 
    189 H189        5.1201  -11.5543  -46.3105 H         1 UNK         0.3000 
    190 H190       -1.8533  -21.2794  -48.2385 H         1 UNK         0.3000 
    191 H191       -3.4886  -22.7357  -50.0105 H         1 UNK         0.0600 
    192 H192       -3.8948  -20.3736  -49.3000 H         1 UNK         0.0600 
    193 H193       -5.3255  -21.3719  -49.0877 H         1 UNK         0.0600 
    194 H194       -4.3491  -20.9252  -47.6924 H         1 UNK         0.0600 
    195 H195       -3.2580  -22.9340  -46.4191 H         1 UNK         0.3000 
    196 H196       -5.2363  -24.9152  -46.0360 H         1 UNK         0.0600 
    197 H197       -4.1341  -25.2196  -43.8127 H         1 UNK         0.0600 
    198 H198       -4.3530  -23.5195  -44.1974 H         1 UNK         0.0600 
    199 H199       -2.7617  -24.2604  -44.3525 H         1 UNK         0.0600 
    200 H200       -1.7035  -25.2632  -46.6187 H         1 UNK         0.3000 
    201 H201       -1.5847  -28.0961  -46.4528 H         1 UNK         0.0600 
    202 H202        0.4189  -26.6385  -46.3635 H         1 UNK         0.0600 
    203 H203        0.1647  -26.1372  -48.0333 H         1 UNK         0.0600 
    204 H204        0.5784  -27.8072  -47.6661 H         1 UNK         0.0600 
    205 H205       -2.4854  -25.9473  -49.1160 H         1 UNK         0.3000 
    206 H206       -2.8303  -28.1125  -51.0705 H         1 UNK         0.0600 
    207 H207       -1.9728  -25.8959  -51.7777 H         1 UNK         0.0600 
    208 H208       -3.5257  -26.2067  -52.5376 H         1 UNK         0.0600 
    209 H209       -3.4237  -25.1155  -51.1596 H         1 UNK         0.0600 
    210 H210       -4.5756  -27.4367  -48.4065 H         1 UNK         0.3000 
    211 H211       -6.6116  -27.7596  -47.6433 H         1 UNK         0.0600 
    212 H212       -7.0991  -29.4438  -50.1564 H         1 UNK         0.0600 
    213 H213       -7.9769  -29.5549  -48.6368 H         1 UNK         0.0600 
    214 H214       -6.2830  -30.0099  -48.6993 H         1 UNK         0.0600 
    215 H215       -6.1884  -25.3927  -49.2379 H         1 UNK         0.3000 
    216 H216       -7.1371  -23.6073  -50.0346 H         1 UNK         0.0600 
    217 H217       -8.6734  -23.8287  -48.0681 H         1 UNK         0.0600 
    218 H218       -9.8360  -24.6916  -49.0754 H         1 UNK         0.0600 
    219 H219       -9.4421  -23.0143  -49.4192 H         1 UNK         0.0600 
    220 H220       -7.2144  -26.2795  -51.7038 H         1 UNK         0.3000 
    221 H221       -9.1897  -25.6486  -53.7766 H         1 UNK         0.0600 
    222 H222       -6.9705  -27.7600  -53.6747 H         1 UNK         0.0600 
    223 H223       -8.6344  -28.0073  -53.1459 H         1 UNK         0.0600 
    224 H224       -8.2863  -27.6889  -54.8389 H         1 UNK         0.0600 
    225 H225       -5.9510  -24.7039  -53.0373 H         1 UNK         0.3000 
    226 H226       -5.6208  -23.0911  -55.3650 H         1 UNK         0.0600 
    227 H227       -4.8759  -25.3220  -56.3262 H         1 UNK         0.0600 
    228 H228       -3.5287  -24.2133  -56.1931 H         1 UNK         0.0600 
    229 H229       -3.7238  -25.4977  -55.0063 H         1 UNK         0.0600 
    230 H230       -3.1383  -22.3171  -55.1808 H         1 UNK         0.3000 
    231 H231       -1.5630  -21.1947  -54.1345 H         1 UNK         0.0600 
    232 H232       -0.4140  -22.3008  -52.2788 H         1 UNK         0.0600 
    233 H233       -0.9750  -23.5279  -53.4001 H         1 UNK         0.0600 
    234 H234       -1.8393  -23.2520  -51.8892 H         1 UNK         0.0600 
    235 H235       -4.2767  -20.2270  -53.6156 H         1 UNK         0.3000 
    236 H236       -3.9821  -18.8047  -51.0172 H         1 UNK         0.0600 
    237 H237       -6.3138  -18.0742  -51.4699 H         1 UNK         0.0600 
    238 H238       -6.3104  -18.9269  -53.0097 H         1 UNK         0.0600 
    239 H239       -6.2002  -19.8278  -51.4979 H         1 UNK         0.0600 
    240 H240       -3.4284  -16.6905  -50.9669 H         1 UNK         0.3000 
    241 H241       -3.1674  -15.1209  -53.4836 H         1 UNK         0.0600 
    242 H242       -5.1139  -15.1491  -50.8881 H         1 UNK         0.3800 
    243 H243       -5.1535  -13.4395  -50.5598 H         1 UNK         0.3800 
    244 H244       -1.0194  -14.1648  -52.5375 H         1 UNK         0.0800 
    245 H245       -1.0616  -15.3563  -51.2710 H         1 UNK         0.0800 
    246 H246       -1.0607  -17.8320  -51.6390 H         1 UNK         0.0800 
    247 H247       -0.4156  -18.6447  -53.0413 H         1 UNK         0.0800 
@<TRIPOS>BOND
     1    1    2 1    
     2    1  127 1    
     3    1  128 1    
     4    1  129 1    
     5    2    3 2    
     6    2    4 am   BACKBONE|DICT|INTERRES
     7    4    5 1    
     8    4  130 1    
     9    5    6 1    
    10    5   65 1    
    11    5  131 1    
    12    6    7 1    
    13    6  132 1    
    14    6  133 1    
    15    7    8 1    
    16    8    9 1    
    17    8  134 1    
    18    8  135 1    
    19    9   10 ar   
    20    9   14 ar   
    21   10   11 ar   
    22   10  136 1    
    23   11   12 ar   
    24   11  126 1    
    25   12   13 ar   
    26   12  137 1    
    27   13   14 ar   
    28   13   15 1    
    29   14  138 1    
    30   15   16 1    
    31   15  139 1    
    32   15  140 1    
    33   16   17 1    
    34   17   18 1    
    35   17  141 1    
    36   17  142 1    
    37   18   19 1    
    38   18   67 1    
    39   18  143 1    
    40   19   20 am   BACKBONE|DICT|INTERRES
    41   19  144 1    
    42   20   21 2    
    43   20   22 1    
    44   22   23 1    
    45   22   24 1    
    46   22  145 1    
    47   23  146 1    
    48   23  147 1    
    49   23  148 1    
    50   24   25 am   BACKBONE|DICT|INTERRES
    51   24  149 1    
    52   25   26 2    
    53   25   27 1    
    54   27   28 1    
    55   27   29 1    
    56   27  150 1    
    57   28  151 1    
    58   28  152 1    
    59   28  153 1    
    60   29   30 am   BACKBONE|DICT|INTERRES
    61   29  154 1    
    62   30   31 2    
    63   30   32 1    
    64   32   33 1    
    65   32   34 1    
    66   32  155 1    
    67   33  156 1    
    68   33  157 1    
    69   33  158 1    
    70   34   35 am   BACKBONE|DICT|INTERRES
    71   34  159 1    
    72   35   36 2    
    73   35   37 1    
    74   37   38 1    
    75   37   39 1    
    76   37  160 1    
    77   38  161 1    
    78   38  162 1    
    79   38  163 1    
    80   39   40 am   BACKBONE|DICT|INTERRES
    81   39  164 1    
    82   40   41 2    
    83   40   42 1    
    84   42   43 1    
    85   42   44 1    
    86   42  165 1    
    87   43  166 1    
    88   43  167 1    
    89   43  168 1    
    90   44   45 am   BACKBONE|DICT|INTERRES
    91   44  169 1    
    92   45   46 2    
    93   45   47 1    
    94   47   48 1    
    95   47   49 1    
    96   47  170 1    
    97   48  171 1    
    98   48  172 1    
    99   48  173 1    
   100   49   50 am   BACKBONE|DICT|INTERRES
   101   49  174 1    
   102   50   51 2    
   103   50   52 1    
   104   52   53 1    
   105   52   54 1    
   106   52  175 1    
   107   53  176 1    
   108   53  177 1    
   109   53  178 1    
   110   54   55 am   BACKBONE|DICT|INTERRES
   111   54  179 1    
   112   55   56 2    
   113   55   57 1    
   114   57   58 1    
   115   57   59 1    
   116   57  180 1    
   117   58  181 1    
   118   58  182 1    
   119   58  183 1    
   120   59   60 am   BACKBONE|DICT|INTERRES
   121   59  184 1    
   122   60   61 2    
   123   60   62 1    
   124   62   63 1    
   125   62   64 1    
   126   62  185 1    
   127   63  186 1    
   128   63  187 1    
   129   63  188 1    
   130   64   65 am   BACKBONE|DICT|INTERRES
   131   64  189 1    
   132   65   66 2    
   133   67   68 2    
   134   67   69 am   BACKBONE|DICT|INTERRES
   135   69   70 1    
   136   69  190 1    
   137   70   71 1    
   138   70   72 1    
   139   70  191 1    
   140   71  192 1    
   141   71  193 1    
   142   71  194 1    
   143   72   73 2    
   144   72   74 am   BACKBONE|DICT|INTERRES
   145   74   75 1    
   146   74  195 1    
   147   75   76 1    
   148   75   77 1    
   149   75  196 1    
   150   76  197 1    
   151   76  198 1    
   152   76  199 1    
   153   77   78 2    
   154   77   79 am   BACKBONE|DICT|INTERRES
   155   79   80 1    
   156   79  200 1    
   157   80   81 1    
   158   80   82 1    
   159   80  201 1    
   160   81  202 1    
   161   81  203 1    
   162   81  204 1    
   163   82   83 2    
   164   82   84 am   BACKBONE|DICT|INTERRES
   165   84   85 1    
   166   84  205 1    
   167   85   86 1    
   168   85   87 1    
   169   85  206 1    
   170   86  207 1    
   171   86  208 1    
   172   86  209 1    
   173   87   88 2    
   174   87   89 am   BACKBONE|DICT|INTERRES
   175   89   90 1    
   176   89  210 1    
   177   90   91 1    
   178   90   92 1    
   179   90  211 1    
   180   91  212 1    
   181   91  213 1    
   182   91  214 1    
   183   92   93 2    
   184   92   94 am   BACKBONE|DICT|INTERRES
   185   94   95 1    
   186   94  215 1    
   187   95   96 1    
   188   95   97 1    
   189   95  216 1    
   190   96  217 1    
   191   96  218 1    
   192   96  219 1    
   193   97   98 2    
   194   97   99 am   BACKBONE|DICT|INTERRES
   195   99  100 1    
   196   99  220 1    
   197  100  101 1    
   198  100  102 1    
   199  100  221 1    
   200  101  222 1    
   201  101  223 1    
   202  101  224 1    
   203  102  103 2    
   204  102  104 am   BACKBONE|DICT|INTERRES
   205  104  105 1    
   206  104  225 1    
   207  105  106 1    
   208  105  107 1    
   209  105  226 1    
   210  106  227 1    
   211  106  228 1    
   212  106  229 1    
   213  107  108 2    
   214  107  109 am   BACKBONE|DICT|INTERRES
   215  109  110 1    
   216  109  230 1    
   217  110  111 1    
   218  110  112 1    
   219  110  231 1    
   220  111  232 1    
   221  111  233 1    
   222  111  234 1    
   223  112  113 2    
   224  112  114 am   BACKBONE|DICT|INTERRES
   225  114  115 1    
   226  114  235 1    
   227  115  116 1    
   228  115  117 1    
   229  115  236 1    
   230  116  237 1    
   231  116  238 1    
   232  116  239 1    
   233  117  118 2    
   234  117  119 am   BACKBONE|DICT|INTERRES
   235  119  120 1    
   236  119  240 1    
   237  120  121 1    
   238  120  124 1    
   239  120  241 1    
   240  121  122 am   BACKBONE|DICT|INTERRES
   241  121  123 2    
   242  122  242 1    
   243  122  243 1    
   244  124  125 1    
   245  124  244 1    
   246  124  245 1    
   247  125  126 1    
   248  126  246 1    
   249  126  247 1    
@<TRIPOS>SUBSTRUCTURE
     1 UNK         1 GROUP             0       ****    0 ROOT    
