@<TRIPOS>MOLECULE
3R540
247   249    1
SMALL
USER_CHARGES


@<TRIPOS>ATOM
      1 CA          5.9771  -19.4570  -43.5474 C.3       0 UNK        -0.1800 
      2 C           4.9644  -18.3465  -43.7872 C.2       0 UNK         0.5000 
      3 O           4.0468  -18.1735  -42.9860 O.2       0 UNK        -0.5000 
      4 N           5.1282  -17.5996  -44.8870 N.am      1 UNK        -0.5000 
      5 CA          4.2459  -16.5015  -45.3046 C.3       1 UNK         0.1400 
      6 C6          4.5609  -16.0191  -46.7443 C.3       23 UNK        -0.0398 
      7 S7          4.4932  -17.3389  -48.0031 S.3       23 UNK        -0.2404 
      8 C8          2.6986  -17.5920  -48.1271 C.3       23 UNK        -0.0205 
      9 C9          2.3287  -18.4611  -49.3166 C.ar      23 UNK        -0.0193 
     10 C10         1.7739  -17.8849  -50.4622 C.ar      23 UNK        -0.1150 
     11 C11         1.3849  -18.6839  -51.5411 C.ar      23 UNK        -0.0193 
     12 C12         1.5820  -20.0659  -51.4808 C.ar      23 UNK        -0.1150 
     13 C13         2.1371  -20.6540  -50.3404 C.ar      23 UNK        -0.0193 
     14 C14         2.5060  -19.8462  -49.2600 C.ar      23 UNK        -0.1150 
     15 C15         2.3059  -22.1653  -50.2581 C.3       23 UNK        -0.0205 
     16 S16         0.7267  -23.0677  -50.4083 S.3       23 UNK        -0.2404 
     17 C17        -0.2930  -22.2834  -49.1126 C.3       23 UNK        -0.0398 
     18 CA         -0.0591  -22.9014  -47.7114 C.3       11 UNK         0.1400 
     19 N          -0.1673  -21.8871  -46.6631 N.am      11 UNK        -0.5000 
     20 C           0.3718  -21.9858  -45.4397 C.2       10 UNK         0.5000 
     21 O           1.0187  -22.9622  -45.0602 O.2       10 UNK        -0.5000 
     22 CA          0.1428  -20.8071  -44.4710 C.3       10 UNK         0.1400 
     23 CB          1.3911  -19.9134  -44.4194 C.3       10 UNK        -0.1800 
     24 N          -1.0210  -19.9875  -44.8186 N.am      10 UNK        -0.5000 
     25 C          -2.2921  -20.4168  -44.7745 C.2       9 UNK         0.5000 
     26 O          -2.6135  -21.5362  -44.3762 O.2       9 UNK        -0.5000 
     27 CA         -3.3852  -19.4708  -45.3109 C.3       9 UNK         0.1400 
     28 CB         -4.0723  -18.7366  -44.1509 C.3       9 UNK        -0.1800 
     29 N          -2.9061  -18.4897  -46.2879 N.am      9 UNK        -0.5000 
     30 C          -2.3160  -18.7823  -47.4585 C.2       8 UNK         0.5000 
     31 O          -2.1122  -19.9313  -47.8471 O.2       8 UNK        -0.5000 
     32 CA         -1.8171  -17.6017  -48.3148 C.3       8 UNK         0.1400 
     33 CB         -2.8980  -17.2010  -49.3312 C.3       8 UNK        -0.1800 
     34 N          -1.4321  -16.4211  -47.5352 N.am      8 UNK        -0.5000 
     35 C          -0.5466  -16.4013  -46.5275 C.2       7 UNK         0.5000 
     36 O           0.0870  -17.3870  -46.1521 O.2       7 UNK        -0.5000 
     37 CA         -0.3747  -15.0706  -45.7729 C.3       7 UNK         0.1400 
     38 CB          0.7972  -14.2794  -46.3687 C.3       7 UNK        -0.1800 
     39 N          -1.5643  -14.2106  -45.7354 N.am      7 UNK        -0.5000 
     40 C          -2.7875  -14.5643  -45.3105 C.2       6 UNK         0.5000 
     41 O          -3.0814  -15.7057  -44.9526 O.2       6 UNK        -0.5000 
     42 CA         -3.8423  -13.4445  -45.2736 C.3       6 UNK         0.1400 
     43 CB         -5.1084  -13.8394  -44.4912 C.3       6 UNK        -0.1800 
     44 N          -3.2603  -12.2466  -44.6716 N.am      6 UNK        -0.5000 
     45 C          -3.2310  -11.0259  -45.2198 C.2       5 UNK         0.5000 
     46 O          -3.7295  -10.7511  -46.3117 O.2       5 UNK        -0.5000 
     47 CA         -2.5134   -9.9234  -44.4142 C.3       5 UNK         0.1400 
     48 CB         -3.5344   -9.0766  -43.6386 C.3       5 UNK        -0.1800 
     49 N          -1.5148  -10.4445  -43.4741 N.am      5 UNK        -0.5000 
     50 C          -0.3402  -10.9772  -43.8344 C.2       4 UNK         0.5000 
     51 O           0.0285  -11.0890  -45.0057 O.2       4 UNK        -0.5000 
     52 CA          0.5390  -11.5182  -42.6918 C.3       4 UNK         0.1400 
     53 CB          0.1826  -12.9803  -42.3828 C.3       4 UNK        -0.1800 
     54 N           1.9645  -11.4431  -43.0066 N.am      4 UNK        -0.5000 
     55 C           2.6795  -10.3100  -43.0533 C.2       3 UNK         0.5000 
     56 O           2.2063   -9.1987  -42.8079 O.2       3 UNK        -0.5000 
     57 CA          4.1758  -10.4559  -43.3921 C.3       3 UNK         0.1400 
     58 CB          5.0334   -9.2963  -42.8519 C.3       3 UNK        -0.1800 
     59 N           4.6839  -11.7233  -42.8681 N.am      3 UNK        -0.5000 
     60 C           5.4852  -12.5700  -43.5215 C.2       2 UNK         0.5000 
     61 O           5.9764  -12.3317  -44.6270 O.2       2 UNK        -0.5000 
     62 CA          5.7778  -13.9296  -42.8469 C.3       2 UNK         0.1400 
     63 CB          5.0828  -14.1305  -41.4801 C.3       2 UNK        -0.1800 
     64 N           5.4643  -15.0466  -43.7432 N.am      2 UNK        -0.5000 
     65 C           4.2845  -15.3016  -44.3330 C.2       1 UNK         0.5000 
     66 O           3.2620  -14.6391  -44.1462 O.2       1 UNK        -0.5000 
     67 C          -0.9890  -24.1100  -47.4795 C.2       11 UNK         0.5000 
     68 O          -0.7763  -25.1442  -48.1081 O.2       11 UNK        -0.5000 
     69 N          -1.9934  -23.9804  -46.5971 N.am      12 UNK        -0.5000 
     70 CA         -3.0756  -24.9529  -46.3926 C.3       12 UNK         0.1400 
     71 CB         -4.0619  -24.3924  -45.3568 C.3       12 UNK        -0.1800 
     72 C          -2.6172  -26.3661  -45.9814 C.2       12 UNK         0.5000 
     73 O          -3.3174  -27.3388  -46.2641 O.2       12 UNK        -0.5000 
     74 N          -1.4478  -26.4562  -45.3364 N.am      13 UNK        -0.5000 
     75 CA         -0.8002  -27.7127  -44.9633 C.3       13 UNK         0.1400 
     76 CB          0.1868  -27.4297  -43.8196 C.3       13 UNK        -0.1800 
     77 C          -0.0746  -28.4001  -46.1394 C.2       13 UNK         0.5000 
     78 O           0.2450  -29.5846  -46.0277 O.2       13 UNK        -0.5000 
     79 N           0.1999  -27.6578  -47.2208 N.am      14 UNK        -0.5000 
     80 CA          0.9889  -28.1044  -48.3666 C.3       14 UNK         0.1400 
     81 CB          2.1116  -27.0851  -48.6247 C.3       14 UNK        -0.1800 
     82 C           0.1372  -28.2839  -49.6331 C.2       14 UNK         0.5000 
     83 O           0.3653  -29.2461  -50.3685 O.2       14 UNK        -0.5000 
     84 N          -0.8054  -27.3673  -49.8901 N.am      15 UNK        -0.5000 
     85 CA         -1.5776  -27.3148  -51.1294 C.3       15 UNK         0.1400 
     86 CB         -0.7407  -26.6124  -52.2177 C.3       15 UNK        -0.1800 
     87 C          -2.9167  -26.5898  -50.9328 C.2       15 UNK         0.5000 
     88 O          -3.1137  -25.8805  -49.9448 O.2       15 UNK        -0.5000 
     89 N          -3.8002  -26.7395  -51.9285 N.am      16 UNK        -0.5000 
     90 CA         -5.1047  -26.0750  -52.0193 C.3       16 UNK         0.1400 
     91 CB         -5.9752  -26.8335  -53.0335 C.3       16 UNK        -0.1800 
     92 C          -5.0205  -24.5782  -52.3895 C.2       16 UNK         0.5000 
     93 O          -6.0508  -23.9034  -52.4066 O.2       16 UNK        -0.5000 
     94 N          -3.8074  -24.0712  -52.6592 N.am      17 UNK        -0.5000 
     95 CA         -3.5080  -22.6770  -53.0011 C.3       17 UNK         0.1400 
     96 CB         -2.0007  -22.5310  -53.2517 C.3       17 UNK        -0.1800 
     97 C          -3.9772  -21.6508  -51.9514 C.2       17 UNK         0.5000 
     98 O          -4.2567  -20.5094  -52.3141 O.2       17 UNK        -0.5000 
     99 N          -4.1016  -22.0829  -50.6887 N.am      18 UNK        -0.5000 
    100 CA        -4.6802  -21.3087  -49.5919 C.3       18 UNK         0.1400 
    101 CB        -4.5083  -22.0898  -48.2830 C.3       18 UNK        -0.1800 
    102 C         -6.1650  -20.9681  -49.8103 C.2       18 UNK         0.5000 
    103 O         -6.5715  -19.8359  -49.5507 O.2       18 UNK        -0.5000 
    104 N         -6.9403  -21.9412  -50.3101 N.am      19 UNK        -0.5000 
    105 CA        -8.3636  -21.7866  -50.6205 C.3       19 UNK         0.1400 
    106 CB        -9.0157  -23.1728  -50.7375 C.3       19 UNK        -0.1800 
    107 C         -8.5877  -20.9663  -51.9028 C.2       19 UNK         0.5000 
    108 O         -9.5769  -20.2399  -51.9988 O.2       19 UNK        -0.5000 
    109 N         -7.6427  -21.0698  -52.8467 N.am      20 UNK        -0.5000 
    110 CA        -7.5920  -20.2739  -54.0741 C.3       20 UNK         0.1400 
    111 CB        -6.7180  -21.0127  -55.0999 C.3       20 UNK        -0.1800 
    112 C         -7.0585  -18.8425  -53.8512 C.2       20 UNK         0.5000 
    113 O         -7.0783  -18.0468  -54.7916 O.2       20 UNK        -0.5000 
    114 N         -6.5482  -18.5525  -52.6431 N.am      21 UNK        -0.5000 
    115 CA        -5.8911  -17.3094  -52.2207 C.3       21 UNK         0.1400 
    116 CB        -6.9250  -16.1729  -52.0912 C.3       21 UNK        -0.1800 
    117 C         -4.6899  -16.9380  -53.1183 C.2       21 UNK         0.5000 
    118 O         -4.4987  -15.7666  -53.4496 O.2       21 UNK        -0.5000 
    119 N         -3.9316  -17.9651  -53.5235 N.am      22 UNK        -0.5000 
    120 CA        -2.8128  -17.9201  -54.4810 C.3       22 UNK         0.1400 
    121 C         -3.2234  -17.5932  -55.9512 C.2       22 UNK         0.5000 
    122 N         -4.5029  -17.5787  -56.3090 N.am      22 UNK        -0.7600 
    123 O         -2.3625  -17.3831  -56.8015 O.2       22 UNK        -0.5000 
    124 C124       -1.6180  -17.0527  -53.9918 C.3       23 UNK        -0.0398 
    125 S125       -0.9948  -17.5931  -52.3643 S.3       23 UNK        -0.2404 
    126 C126        0.7192  -18.0561  -52.7537 C.3       23 UNK        -0.0205 
    127 H127        6.7287  -19.4984  -44.3361 H         1 UNK         0.0600 
    128 H128        5.4718  -20.4220  -43.5084 H         1 UNK         0.0600 
    129 H129        6.4884  -19.2997  -42.5978 H         1 UNK         0.0600 
    130 H130        5.8889  -17.8091  -45.5179 H         1 UNK         0.3000 
    131 H131        3.2226  -16.8830  -45.2890 H         1 UNK         0.0600 
    132 H132        5.5614  -15.5844  -46.7838 H         1 UNK         0.0800 
    133 H133        3.8833  -15.2200  -47.0475 H         1 UNK         0.0800 
    134 H134        2.1928  -16.6280  -48.1934 H         1 UNK         0.0800 
    135 H135        2.3459  -18.0687  -47.2132 H         1 UNK         0.0800 
    136 H136        1.6163  -16.8163  -50.5065 H         1 UNK         0.1150 
    137 H137        1.2760  -20.6912  -52.3079 H         1 UNK         0.1150 
    138 H138        2.9238  -20.2926  -48.3684 H         1 UNK         0.1150 
    139 H139        2.9753  -22.4913  -51.0550 H         1 UNK         0.0800 
    140 H140        2.7847  -22.4506  -49.3202 H         1 UNK         0.0800 
    141 H141       -1.3412  -22.3456  -49.4110 H         1 UNK         0.0800 
    142 H142       -0.0808  -21.2150  -49.1022 H         1 UNK         0.0800 
    143 H143        0.9629  -23.2846  -47.6715 H         1 UNK         0.0600 
    144 H144       -0.7176  -21.0666  -46.8961 H         1 UNK         0.3000 
    145 H145       -0.0232  -21.2238  -43.4755 H         1 UNK         0.0600 
    146 H146        1.2557  -19.0780  -43.7322 H         1 UNK         0.0600 
    147 H147        1.6324  -19.5037  -45.4003 H         1 UNK         0.0600 
    148 H148        2.2613  -20.4756  -44.0784 H         1 UNK         0.0600 
    149 H149       -0.8265  -19.0646  -45.1919 H         1 UNK         0.3000 
    150 H150       -4.1325  -20.0890  -45.8098 H         1 UNK         0.0600 
    151 H151       -4.4966  -19.4434  -43.4367 H         1 UNK         0.0600 
    152 H152       -4.8869  -18.1063  -44.5082 H         1 UNK         0.0600 
    153 H153       -3.3711  -18.1017  -43.6077 H         1 UNK         0.0600 
    154 H154       -2.9894  -17.5158  -46.0158 H         1 UNK         0.3000 
    155 H155       -0.9336  -17.9394  -48.8607 H         1 UNK         0.0600 
    156 H156       -3.1583  -18.0429  -49.9748 H         1 UNK         0.0600 
    157 H157       -2.5536  -16.3954  -49.9797 H         1 UNK         0.0600 
    158 H158       -3.8124  -16.8681  -48.8385 H         1 UNK         0.0600 
    159 H159       -1.9080  -15.5603  -47.7595 H         1 UNK         0.3000 
    160 H160       -0.1260  -15.3285  -44.7422 H         1 UNK         0.0600 
    161 H161        0.5710  -13.9115  -47.3700 H         1 UNK         0.0600 
    162 H162        1.6864  -14.9033  -46.4402 H         1 UNK         0.0600 
    163 H163        1.0589  -13.4261  -45.7442 H         1 UNK         0.0600 
    164 H164       -1.4177  -13.2455  -45.9970 H         1 UNK         0.3000 
    165 H165       -4.1282  -13.2547  -46.3100 H         1 UNK         0.0600 
    166 H166       -5.8394  -13.0307  -44.4933 H         1 UNK         0.0600 
    167 H167       -5.5894  -14.7115  -44.9360 H         1 UNK         0.0600 
    168 H168       -4.8801  -14.0818  -43.4526 H         1 UNK         0.0600 
    169 H169       -2.8063  -12.3765  -43.7791 H         1 UNK         0.3000 
    170 H170       -2.0045   -9.2733  -45.1293 H         1 UNK         0.0600 
    171 H171       -4.0687   -9.6700  -42.8956 H         1 UNK         0.0600 
    172 H172       -3.0492   -8.2479  -43.1225 H         1 UNK         0.0600 
    173 H173       -4.2778   -8.6472  -44.3117 H         1 UNK         0.0600 
    174 H174       -1.7495  -10.3870  -42.4932 H         1 UNK         0.3000 
    175 H175        0.3530  -10.9198  -41.7973 H         1 UNK         0.0600 
    176 H176        0.4141  -13.6330  -43.2238 H         1 UNK         0.0600 
    177 H177        0.7372  -13.3453  -41.5181 H         1 UNK         0.0600 
    178 H178       -0.8787  -13.0929  -42.1583 H         1 UNK         0.0600 
    179 H179        2.4112  -12.3083  -43.2798 H         1 UNK         0.3000 
    180 H180        4.2385  -10.4511  -44.4822 H         1 UNK         0.0600 
    181 H181        6.0818   -9.4235  -43.1222 H         1 UNK         0.0600 
    182 H182        4.9735   -9.2266  -41.7652 H         1 UNK         0.0600 
    183 H183        4.7082   -8.3402  -43.2637 H         1 UNK         0.0600 
    184 H184        4.3168  -12.0037  -41.9691 H         1 UNK         0.3000 
    185 H185        6.8550  -13.9589  -42.6777 H         1 UNK         0.0600 
    186 H186        3.9955  -14.0987  -41.5599 H         1 UNK         0.0600 
    187 H187        5.3491  -15.0963  -41.0501 H         1 UNK         0.0600 
    188 H188        5.3907  -13.3689  -40.7627 H         1 UNK         0.0600 
    189 H189        6.2417  -15.6469  -43.9781 H         1 UNK         0.3000 
    190 H190       -2.0710  -23.1140  -46.0810 H         1 UNK         0.3000 
    191 H191       -3.6015  -25.0533  -47.3439 H         1 UNK         0.0600 
    192 H192       -4.4670  -23.4310  -45.6711 H         1 UNK         0.0600 
    193 H193       -3.5845  -24.2512  -44.3862 H         1 UNK         0.0600 
    194 H194       -4.9061  -25.0680  -45.2132 H         1 UNK         0.0600 
    195 H195       -0.9386  -25.6050  -45.1464 H         1 UNK         0.3000 
    196 H196       -1.5589  -28.4059  -44.5941 H         1 UNK         0.0600 
    197 H197       -0.3224  -27.0017  -42.9559 H         1 UNK         0.0600 
    198 H198        0.9697  -26.7350  -44.1268 H         1 UNK         0.0600 
    199 H199        0.6739  -28.3470  -43.4860 H         1 UNK         0.0600 
    200 H200       -0.1589  -26.7091  -47.2763 H         1 UNK         0.3000 
    201 H201        1.4606  -29.0655  -48.1518 H         1 UNK         0.0600 
    202 H202        2.7626  -26.9886  -47.7558 H         1 UNK         0.0600 
    203 H203        1.7158  -26.0955  -48.8576 H         1 UNK         0.0600 
    204 H204        2.7343  -27.3944  -49.4651 H         1 UNK         0.0600 
    205 H205       -0.9604  -26.5927  -49.2459 H         1 UNK         0.3000 
    206 H206       -1.8069  -28.3328  -51.4515 H         1 UNK         0.0600 
    207 H207       -0.4887  -25.5911  -51.9289 H         1 UNK         0.0600 
    208 H208        0.1927  -27.1432  -52.4056 H         1 UNK         0.0600 
    209 H209       -1.2750  -26.5644  -53.1671 H         1 UNK         0.0600 
    210 H210       -3.5550  -27.3332  -52.7083 H         1 UNK         0.3000 
    211 H211       -5.5898  -26.1349  -51.0428 H         1 UNK         0.0600 
    212 H212       -5.5428  -26.8065  -54.0345 H         1 UNK         0.0600 
    213 H213       -6.9743  -26.3999  -53.0960 H         1 UNK         0.0600 
    214 H214       -6.0957  -27.8784  -52.7467 H         1 UNK         0.0600 
    215 H215       -3.0203  -24.6999  -52.6175 H         1 UNK         0.3000 
    216 H216       -4.0299  -22.4530  -53.9321 H         1 UNK         0.0600 
    217 H217       -1.7430  -21.5041  -53.5160 H         1 UNK         0.0600 
    218 H218       -1.6711  -23.1698  -54.0711 H         1 UNK         0.0600 
    219 H219       -1.4236  -22.7956  -52.3666 H         1 UNK         0.0600 
    220 H220       -3.8461  -23.0386  -50.4864 H         1 UNK         0.3000 
    221 H221       -4.1324  -20.3682  -49.5160 H         1 UNK         0.0600 
    222 H222       -4.9640  -23.0791  -48.3373 H         1 UNK         0.0600 
    223 H223       -3.4547  -22.2173  -48.0447 H         1 UNK         0.0600 
    224 H224       -4.9682  -21.5618  -47.4477 H         1 UNK         0.0600 
    225 H225       -6.5158  -22.8192  -50.5807 H         1 UNK         0.3000 
    226 H226       -8.8426  -21.2550  -49.7955 H         1 UNK         0.0600 
    227 H227       -8.8863  -23.7484  -49.8209 H         1 UNK         0.0600 
    228 H228      -10.0879  -23.0837  -50.9167 H         1 UNK         0.0600 
    229 H229       -8.5945  -23.7516  -51.5600 H         1 UNK         0.0600 
    230 H230       -6.8864  -21.7246  -52.6944 H         1 UNK         0.3000 
    231 H231       -8.6019  -20.1909  -54.4810 H         1 UNK         0.0600 
    232 H232       -6.7514  -20.5159  -56.0704 H         1 UNK         0.0600 
    233 H233       -7.0573  -22.0381  -55.2481 H         1 UNK         0.0600 
    234 H234       -5.6747  -21.0431  -54.7876 H         1 UNK         0.0600 
    235 H235       -6.5407  -19.2937  -51.9562 H         1 UNK         0.3000 
    236 H236       -5.4820  -17.5017  -51.2278 H         1 UNK         0.0600 
    237 H237       -7.3473  -15.8983  -53.0584 H         1 UNK         0.0600 
    238 H238       -7.7469  -16.4623  -51.4363 H         1 UNK         0.0600 
    239 H239       -6.4712  -15.2776  -51.6649 H         1 UNK         0.0600 
    240 H240       -4.1511  -18.8900  -53.1585 H         1 UNK         0.3000 
    241 H241       -2.4543  -18.9488  -54.5315 H         1 UNK         0.0600 
    242 H242       -4.7408  -17.3769  -57.2670 H         1 UNK         0.3800 
    243 H243       -5.2445  -17.7311  -55.6350 H         1 UNK         0.3800 
    244 H244       -1.9048  -16.0030  -53.9221 H         1 UNK         0.0800 
    245 H245       -0.7984  -17.0897  -54.7110 H         1 UNK         0.0800 
    246 H246        0.7277  -18.7487  -53.5968 H         1 UNK         0.0800 
    247 H247        1.2767  -17.1717  -53.0657 H         1 UNK         0.0800 
@<TRIPOS>BOND
     1    1    2 1    
     2    1  127 1    
     3    1  128 1    
     4    1  129 1    
     5    2    3 2    
     6    2    4 am   BACKBONE|DICT|INTERRES
     7    4    5 1    
     8    4  130 1    
     9    5    6 1    
    10    5   65 1    
    11    5  131 1    
    12    6    7 1    
    13    6  132 1    
    14    6  133 1    
    15    7    8 1    
    16    8    9 1    
    17    8  134 1    
    18    8  135 1    
    19    9   10 ar   
    20    9   14 ar   
    21   10   11 ar   
    22   10  136 1    
    23   11   12 ar   
    24   11  126 1    
    25   12   13 ar   
    26   12  137 1    
    27   13   14 ar   
    28   13   15 1    
    29   14  138 1    
    30   15   16 1    
    31   15  139 1    
    32   15  140 1    
    33   16   17 1    
    34   17   18 1    
    35   17  141 1    
    36   17  142 1    
    37   18   19 1    
    38   18   67 1    
    39   18  143 1    
    40   19   20 am   BACKBONE|DICT|INTERRES
    41   19  144 1    
    42   20   21 2    
    43   20   22 1    
    44   22   23 1    
    45   22   24 1    
    46   22  145 1    
    47   23  146 1    
    48   23  147 1    
    49   23  148 1    
    50   24   25 am   BACKBONE|DICT|INTERRES
    51   24  149 1    
    52   25   26 2    
    53   25   27 1    
    54   27   28 1    
    55   27   29 1    
    56   27  150 1    
    57   28  151 1    
    58   28  152 1    
    59   28  153 1    
    60   29   30 am   BACKBONE|DICT|INTERRES
    61   29  154 1    
    62   30   31 2    
    63   30   32 1    
    64   32   33 1    
    65   32   34 1    
    66   32  155 1    
    67   33  156 1    
    68   33  157 1    
    69   33  158 1    
    70   34   35 am   BACKBONE|DICT|INTERRES
    71   34  159 1    
    72   35   36 2    
    73   35   37 1    
    74   37   38 1    
    75   37   39 1    
    76   37  160 1    
    77   38  161 1    
    78   38  162 1    
    79   38  163 1    
    80   39   40 am   BACKBONE|DICT|INTERRES
    81   39  164 1    
    82   40   41 2    
    83   40   42 1    
    84   42   43 1    
    85   42   44 1    
    86   42  165 1    
    87   43  166 1    
    88   43  167 1    
    89   43  168 1    
    90   44   45 am   BACKBONE|DICT|INTERRES
    91   44  169 1    
    92   45   46 2    
    93   45   47 1    
    94   47   48 1    
    95   47   49 1    
    96   47  170 1    
    97   48  171 1    
    98   48  172 1    
    99   48  173 1    
   100   49   50 am   BACKBONE|DICT|INTERRES
   101   49  174 1    
   102   50   51 2    
   103   50   52 1    
   104   52   53 1    
   105   52   54 1    
   106   52  175 1    
   107   53  176 1    
   108   53  177 1    
   109   53  178 1    
   110   54   55 am   BACKBONE|DICT|INTERRES
   111   54  179 1    
   112   55   56 2    
   113   55   57 1    
   114   57   58 1    
   115   57   59 1    
   116   57  180 1    
   117   58  181 1    
   118   58  182 1    
   119   58  183 1    
   120   59   60 am   BACKBONE|DICT|INTERRES
   121   59  184 1    
   122   60   61 2    
   123   60   62 1    
   124   62   63 1    
   125   62   64 1    
   126   62  185 1    
   127   63  186 1    
   128   63  187 1    
   129   63  188 1    
   130   64   65 am   BACKBONE|DICT|INTERRES
   131   64  189 1    
   132   65   66 2    
   133   67   68 2    
   134   67   69 am   BACKBONE|DICT|INTERRES
   135   69   70 1    
   136   69  190 1    
   137   70   71 1    
   138   70   72 1    
   139   70  191 1    
   140   71  192 1    
   141   71  193 1    
   142   71  194 1    
   143   72   73 2    
   144   72   74 am   BACKBONE|DICT|INTERRES
   145   74   75 1    
   146   74  195 1    
   147   75   76 1    
   148   75   77 1    
   149   75  196 1    
   150   76  197 1    
   151   76  198 1    
   152   76  199 1    
   153   77   78 2    
   154   77   79 am   BACKBONE|DICT|INTERRES
   155   79   80 1    
   156   79  200 1    
   157   80   81 1    
   158   80   82 1    
   159   80  201 1    
   160   81  202 1    
   161   81  203 1    
   162   81  204 1    
   163   82   83 2    
   164   82   84 am   BACKBONE|DICT|INTERRES
   165   84   85 1    
   166   84  205 1    
   167   85   86 1    
   168   85   87 1    
   169   85  206 1    
   170   86  207 1    
   171   86  208 1    
   172   86  209 1    
   173   87   88 2    
   174   87   89 am   BACKBONE|DICT|INTERRES
   175   89   90 1    
   176   89  210 1    
   177   90   91 1    
   178   90   92 1    
   179   90  211 1    
   180   91  212 1    
   181   91  213 1    
   182   91  214 1    
   183   92   93 2    
   184   92   94 am   BACKBONE|DICT|INTERRES
   185   94   95 1    
   186   94  215 1    
   187   95   96 1    
   188   95   97 1    
   189   95  216 1    
   190   96  217 1    
   191   96  218 1    
   192   96  219 1    
   193   97   98 2    
   194   97   99 am   BACKBONE|DICT|INTERRES
   195   99  100 1    
   196   99  220 1    
   197  100  101 1    
   198  100  102 1    
   199  100  221 1    
   200  101  222 1    
   201  101  223 1    
   202  101  224 1    
   203  102  103 2    
   204  102  104 am   BACKBONE|DICT|INTERRES
   205  104  105 1    
   206  104  225 1    
   207  105  106 1    
   208  105  107 1    
   209  105  226 1    
   210  106  227 1    
   211  106  228 1    
   212  106  229 1    
   213  107  108 2    
   214  107  109 am   BACKBONE|DICT|INTERRES
   215  109  110 1    
   216  109  230 1    
   217  110  111 1    
   218  110  112 1    
   219  110  231 1    
   220  111  232 1    
   221  111  233 1    
   222  111  234 1    
   223  112  113 2    
   224  112  114 am   BACKBONE|DICT|INTERRES
   225  114  115 1    
   226  114  235 1    
   227  115  116 1    
   228  115  117 1    
   229  115  236 1    
   230  116  237 1    
   231  116  238 1    
   232  116  239 1    
   233  117  118 2    
   234  117  119 am   BACKBONE|DICT|INTERRES
   235  119  120 1    
   236  119  240 1    
   237  120  121 1    
   238  120  124 1    
   239  120  241 1    
   240  121  122 am   BACKBONE|DICT|INTERRES
   241  121  123 2    
   242  122  242 1    
   243  122  243 1    
   244  124  125 1    
   245  124  244 1    
   246  124  245 1    
   247  125  126 1    
   248  126  246 1    
   249  126  247 1    
@<TRIPOS>SUBSTRUCTURE
     1 UNK         1 GROUP             0       ****    0 ROOT    
