@<TRIPOS>MOLECULE
3R540
247   249    1
SMALL
USER_CHARGES


@<TRIPOS>ATOM
      1 CA          2.4933  -10.5838  -51.0972 C.3       0 UNK        -0.1800 
      2 C           2.7273  -11.2034  -49.7270 C.2       0 UNK         0.5000 
      3 O           3.4739  -10.6481  -48.9207 O.2       0 UNK        -0.5000 
      4 N           2.0828  -12.3455  -49.4535 N.am      1 UNK        -0.5000 
      5 CA          2.2153  -13.1037  -48.2012 C.3       1 UNK         0.1400 
      6 C6          1.6985  -14.5567  -48.3273 C.3       23 UNK        -0.0398 
      7 S7          2.5614  -15.5337  -49.6001 S.3       23 UNK        -0.2404 
      8 C8          1.2052  -15.9336  -50.7448 C.3       23 UNK        -0.0205 
      9 C9          1.4793  -17.2466  -51.4561 C.ar      23 UNK        -0.0193 
     10 C10         2.3135  -17.2820  -52.5764 C.ar      23 UNK        -0.1150 
     11 C11         2.5807  -18.4926  -53.2225 C.ar      23 UNK        -0.0193 
     12 C12         2.0033  -19.6706  -52.7398 C.ar      23 UNK        -0.1150 
     13 C13         1.1696  -19.6471  -51.6177 C.ar      23 UNK        -0.0193 
     14 C14         0.9080  -18.4311  -50.9823 C.ar      23 UNK        -0.1150 
     15 C15         0.5562  -20.9366  -51.0967 C.3       23 UNK        -0.0205 
     16 S16         1.6324  -21.7189  -49.8547 S.3       23 UNK        -0.2404 
     17 C17         0.9714  -21.0407  -48.2920 C.3       23 UNK        -0.0398 
     18 CA          0.1902  -22.1124  -47.4942 C.3       11 UNK         0.1400 
     19 N           0.1341  -21.8183  -46.0593 N.am      11 UNK        -0.5000 
     20 C          -0.2665  -22.6981  -45.1295 C.2       10 UNK         0.5000 
     21 O          -0.6043  -23.8529  -45.3846 O.2       10 UNK        -0.5000 
     22 CA         -0.3575  -22.1977  -43.6779 C.3       10 UNK         0.1400 
     23 CB          1.0309  -22.1546  -43.0239 C.3       10 UNK        -0.1800 
     24 N          -1.0062  -20.8906  -43.5764 N.am      10 UNK        -0.5000 
     25 C          -2.2766  -20.6528  -43.9348 C.2       9 UNK         0.5000 
     26 O          -3.0451  -21.5238  -44.3428 O.2       9 UNK        -0.5000 
     27 CA         -2.7599  -19.1937  -43.8680 C.3       9 UNK         0.1400 
     28 CB         -3.1603  -18.8189  -42.4335 C.3       9 UNK        -0.1800 
     29 N          -1.7673  -18.2413  -44.3649 N.am      9 UNK        -0.5000 
     30 C          -1.2875  -18.2072  -45.6173 C.2       8 UNK         0.5000 
     31 O          -1.6451  -18.9692  -46.5154 O.2       8 UNK        -0.5000 
     32 CA         -0.1684  -17.1855  -45.8894 C.3       8 UNK         0.1400 
     33 CB         -0.7362  -15.7573  -45.9504 C.3       8 UNK        -0.1800 
     34 N           0.8881  -17.2636  -44.8782 N.am      8 UNK        -0.5000 
     35 C           1.6329  -18.3547  -44.6412 C.2       7 UNK         0.5000 
     36 O           1.5663  -19.3884  -45.3069 O.2       7 UNK        -0.5000 
     37 CA          2.5666  -18.3034  -43.4209 C.3       7 UNK         0.1400 
     38 CB          3.9263  -17.6925  -43.7930 C.3       7 UNK        -0.1800 
     39 N           1.9655  -17.5550  -42.3165 N.am      7 UNK        -0.5000 
     40 C           0.9717  -18.0185  -41.5448 C.2       6 UNK         0.5000 
     41 O           0.4909  -19.1454  -41.6603 O.2       6 UNK        -0.5000 
     42 CA          0.3894  -17.0502  -40.4962 C.3       6 UNK         0.1400 
     43 CB          1.2342  -17.0707  -39.2138 C.3       6 UNK        -0.1800 
     44 N           0.2868  -15.6747  -40.9867 N.am      6 UNK        -0.5000 
     45 C          -0.5226  -15.2861  -41.9816 C.2       5 UNK         0.5000 
     46 O          -1.3209  -16.0391  -42.5378 O.2       5 UNK        -0.5000 
     47 CA         -0.3874  -13.8314  -42.4771 C.3       5 UNK         0.1400 
     48 CB         -1.4024  -12.9237  -41.7681 C.3       5 UNK        -0.1800 
     49 N           0.9528  -13.2482  -42.3451 N.am      5 UNK        -0.5000 
     50 C           2.0826  -13.7698  -42.8426 C.2       4 UNK         0.5000 
     51 O           2.1383  -14.8685  -43.3966 O.2       4 UNK        -0.5000 
     52 CA          3.3343  -12.8879  -42.7353 C.3       4 UNK         0.1400 
     53 CB          4.6196  -13.6132  -43.1743 C.3       4 UNK        -0.1800 
     54 N           3.1236  -11.7222  -43.5844 N.am      4 UNK        -0.5000 
     55 C           3.3993  -10.4520  -43.2656 C.2       3 UNK         0.5000 
     56 O           3.9095  -10.1154  -42.1963 O.2       3 UNK        -0.5000 
     57 CA          3.0506   -9.3655  -44.3077 C.3       3 UNK         0.1400 
     58 CB          4.3188   -8.8991  -45.0391 C.3       3 UNK        -0.1800 
     59 N           2.0687   -9.7969  -45.3053 N.am      3 UNK        -0.5000 
     60 C           0.7750  -10.0455  -45.0578 C.2       2 UNK         0.5000 
     61 O           0.2397   -9.8446  -43.9672 O.2       2 UNK        -0.5000 
     62 CA         -0.0562  -10.6540  -46.2083 C.3       2 UNK         0.1400 
     63 CB         -0.8835   -9.5636  -46.9057 C.3       2 UNK        -0.1800 
     64 N           0.7193  -11.3807  -47.2230 N.am      2 UNK        -0.5000 
     65 C           1.5364  -12.4203  -46.9940 C.2       1 UNK         0.5000 
     66 O           1.7683  -12.8511  -45.8676 O.2       1 UNK        -0.5000 
     67 C          -1.2122  -22.3696  -48.0862 C.2       11 UNK         0.5000 
     68 O          -1.3833  -23.3277  -48.8390 O.2       11 UNK        -0.5000 
     69 N          -2.1984  -21.5491  -47.6958 N.am      12 UNK        -0.5000 
     70 CA         -3.6048  -21.6918  -48.0776 C.3       12 UNK         0.1400 
     71 CB         -4.4024  -20.5036  -47.5149 C.3       12 UNK        -0.1800 
     72 C          -4.2242  -23.0312  -47.6306 C.2       12 UNK         0.5000 
     73 O          -4.9769  -23.6388  -48.3950 O.2       12 UNK        -0.5000 
     74 N          -3.8734  -23.4742  -46.4153 N.am      13 UNK        -0.5000 
     75 CA         -4.2402  -24.7783  -45.8688 C.3       13 UNK         0.1400 
     76 CB         -3.9619  -24.8024  -44.3583 C.3       13 UNK        -0.1800 
     77 C          -3.5151  -25.9331  -46.5829 C.2       13 UNK         0.5000 
     78 O          -4.1628  -26.9104  -46.9594 O.2       13 UNK        -0.5000 
     79 N          -2.1947  -25.7939  -46.7774 N.am      14 UNK        -0.5000 
     80 CA         -1.3328  -26.7788  -47.4389 C.3       14 UNK         0.1400 
     81 CB          0.1351  -26.3408  -47.3338 C.3       14 UNK        -0.1800 
     82 C          -1.7104  -27.0421  -48.9074 C.2       14 UNK         0.5000 
     83 O          -1.5842  -28.1772  -49.3700 O.2       14 UNK        -0.5000 
     84 N          -2.2146  -26.0131  -49.6009 N.am      15 UNK        -0.5000 
     85 CA         -2.7675  -26.0688  -50.9550 C.3       15 UNK         0.1400 
     86 CB         -2.8084  -24.6406  -51.5281 C.3       15 UNK        -0.1800 
     87 C          -4.1490  -26.7619  -51.0021 C.2       15 UNK         0.5000 
     88 O          -5.1185  -26.1760  -51.4859 O.2       15 UNK        -0.5000 
     89 N          -4.2205  -27.9911  -50.4690 N.am      16 UNK        -0.5000 
     90 CA         -5.3781  -28.8954  -50.4102 C.3       16 UNK         0.1400 
     91 CB         -5.6832  -29.4400  -51.8209 C.3       16 UNK        -0.1800 
     92 C          -6.6306  -28.2887  -49.7367 C.2       16 UNK         0.5000 
     93 O          -7.7506  -28.6980  -50.0473 O.2       16 UNK        -0.5000 
     94 N          -6.4194  -27.2987  -48.8560 N.am      17 UNK        -0.5000 
     95 CA         -7.4188  -26.4289  -48.2270 C.3       17 UNK         0.1400 
     96 CB         -8.2791  -27.2242  -47.2242 C.3       17 UNK        -0.1800 
     97 C          -8.2689  -25.6123  -49.2297 C.2       17 UNK         0.5000 
     98 O          -9.3467  -25.1382  -48.8666 O.2       17 UNK        -0.5000 
     99 N          -7.7775  -25.4449  -50.4670 N.am      18 UNK        -0.5000 
    100 CA        -8.4526  -24.7135  -51.5412 C.3       18 UNK         0.1400 
    101 CB        -7.9701  -25.2575  -52.8956 C.3       18 UNK        -0.1800 
    102 C         -8.2241  -23.1930  -51.4603 C.2       18 UNK         0.5000 
    103 O         -8.9108  -22.4463  -52.1585 O.2       18 UNK        -0.5000 
    104 N         -7.2641  -22.7670  -50.6252 N.am      19 UNK        -0.5000 
    105 CA        -6.8485  -21.3834  -50.3851 C.3       19 UNK         0.1400 
    106 CB        -7.9776  -20.5646  -49.7258 C.3       19 UNK        -0.1800 
    107 C         -6.2307  -20.6989  -51.6206 C.2       19 UNK         0.5000 
    108 O         -6.3673  -19.4858  -51.7900 O.2       19 UNK        -0.5000 
    109 N         -5.5424  -21.4900  -52.4541 N.am      20 UNK        -0.5000 
    110 CA        -4.7527  -21.0072  -53.5840 C.3       20 UNK         0.1400 
    111 CB        -4.4216  -22.1897  -54.5066 C.3       20 UNK        -0.1800 
    112 C         -3.4659  -20.3137  -53.0996 C.2       20 UNK         0.5000 
    113 O         -2.8924  -20.7173  -52.0847 O.2       20 UNK        -0.5000 
    114 N         -3.0305  -19.2982  -53.8478 N.am      21 UNK        -0.5000 
    115 CA        -1.8370  -18.5028  -53.5894 C.3       21 UNK         0.1400 
    116 CB        -2.1287  -17.4599  -52.4939 C.3       21 UNK        -0.1800 
    117 C         -1.4039  -17.8281  -54.8973 C.2       21 UNK         0.5000 
    118 O         -2.2135  -17.7102  -55.8219 O.2       21 UNK        -0.5000 
    119 N         -0.1419  -17.3900  -54.9482 N.am      22 UNK        -0.5000 
    120 CA         0.4628  -16.7223  -56.1152 C.3       22 UNK         0.1400 
    121 C          0.0194  -15.2431  -56.3253 C.2       22 UNK         0.5000 
    122 N         -0.6913  -14.6175  -55.3946 N.am      22 UNK        -0.7600 
    123 O          0.3221  -14.6524  -57.3585 O.2       22 UNK        -0.5000 
    124 C124        2.0097  -16.8307  -56.1129 C.3       23 UNK        -0.0398 
    125 S125        2.6110  -18.5526  -56.0033 S.3       23 UNK        -0.2404 
    126 C126        3.5153  -18.5377  -54.4224 C.3       23 UNK        -0.0205 
    127 H127        2.0577   -9.5904  -50.9904 H         1 UNK         0.0600 
    128 H128        3.4387  -10.4873  -51.6309 H         1 UNK         0.0600 
    129 H129        1.8198  -11.1877  -51.7058 H         1 UNK         0.0600 
    130 H130        1.4876  -12.7594  -50.1564 H         1 UNK         0.3000 
    131 H131        3.2797  -13.1556  -47.9614 H         1 UNK         0.0600 
    132 H132        1.8529  -15.0912  -47.3882 H         1 UNK         0.0800 
    133 H133        0.6225  -14.5630  -48.5067 H         1 UNK         0.0800 
    134 H134        0.2588  -16.0054  -50.2069 H         1 UNK         0.0800 
    135 H135        1.0894  -15.1269  -51.4701 H         1 UNK         0.0800 
    136 H136        2.7684  -16.3675  -52.9304 H         1 UNK         0.1150 
    137 H137        2.2126  -20.6097  -53.2331 H         1 UNK         0.1150 
    138 H138        0.2651  -18.4070  -50.1139 H         1 UNK         0.1150 
    139 H139       -0.4373  -20.7524  -50.6842 H         1 UNK         0.0800 
    140 H140        0.4093  -21.6346  -51.9222 H         1 UNK         0.0800 
    141 H141        0.3668  -20.1497  -48.4677 H         1 UNK         0.0800 
    142 H142        1.8319  -20.7034  -47.7128 H         1 UNK         0.0800 
    143 H143        0.7456  -23.0488  -47.5786 H         1 UNK         0.0600 
    144 H144        0.4288  -20.8900  -45.7683 H         1 UNK         0.3000 
    145 H145       -0.9680  -22.9115  -43.1207 H         1 UNK         0.0600 
    146 H146        0.9651  -21.8628  -41.9758 H         1 UNK         0.0600 
    147 H147        1.5073  -23.1352  -43.0584 H         1 UNK         0.0600 
    148 H148        1.6936  -21.4521  -43.5278 H         1 UNK         0.0600 
    149 H149       -0.4518  -20.1332  -43.1922 H         1 UNK         0.3000 
    150 H150       -3.6457  -19.1065  -44.4995 H         1 UNK         0.0600 
    151 H151       -3.9122  -19.5068  -42.0447 H         1 UNK         0.0600 
    152 H152       -3.5851  -17.8157  -42.3930 H         1 UNK         0.0600 
    153 H153       -2.3062  -18.8468  -41.7562 H         1 UNK         0.0600 
    154 H154       -1.4413  -17.5450  -43.6996 H         1 UNK         0.3000 
    155 H155        0.2849  -17.4181  -46.8555 H         1 UNK         0.0600 
    156 H156       -1.3025  -15.6085  -46.8702 H         1 UNK         0.0600 
    157 H157        0.0517  -15.0067  -45.9221 H         1 UNK         0.0600 
    158 H158       -1.4117  -15.5472  -45.1220 H         1 UNK         0.0600 
    159 H159        1.0451  -16.4442  -44.3023 H         1 UNK         0.3000 
    160 H160        2.7419  -19.3275  -43.0860 H         1 UNK         0.0600 
    161 H161        4.5900  -17.6495  -42.9294 H         1 UNK         0.0600 
    162 H162        3.8268  -16.6825  -44.1906 H         1 UNK         0.0600 
    163 H163        4.4231  -18.2932  -44.5558 H         1 UNK         0.0600 
    164 H164        2.2327  -16.5810  -42.2417 H         1 UNK         0.3000 
    165 H165       -0.6161  -17.3965  -40.2477 H         1 UNK         0.0600 
    166 H166        0.7871  -16.4500  -38.4371 H         1 UNK         0.0600 
    167 H167        1.3122  -18.0829  -38.8148 H         1 UNK         0.0600 
    168 H168        2.2476  -16.7089  -39.3920 H         1 UNK         0.0600 
    169 H169        0.9145  -14.9946  -40.5842 H         1 UNK         0.3000 
    170 H170       -0.6250  -13.8332  -43.5424 H         1 UNK         0.0600 
    171 H171       -2.4161  -13.3133  -41.8727 H         1 UNK         0.0600 
    172 H172       -1.1903  -12.8401  -40.7016 H         1 UNK         0.0600 
    173 H173       -1.3968  -11.9194  -42.1927 H         1 UNK         0.0600 
    174 H174        0.9970  -12.3280  -41.9312 H         1 UNK         0.3000 
    175 H175        3.4380  -12.5930  -41.6892 H         1 UNK         0.0600 
    176 H176        5.4923  -12.9704  -43.0589 H         1 UNK         0.0600 
    177 H177        4.7898  -14.5066  -42.5723 H         1 UNK         0.0600 
    178 H178        4.5686  -13.9237  -44.2189 H         1 UNK         0.0600 
    179 H179        2.6595  -11.9246  -44.4671 H         1 UNK         0.3000 
    180 H180        2.6341   -8.5140  -43.7656 H         1 UNK         0.0600 
    181 H181        4.7691   -9.7075  -45.6169 H         1 UNK         0.0600 
    182 H182        5.0696   -8.5415  -44.3332 H         1 UNK         0.0600 
    183 H183        4.1009   -8.0785  -45.7230 H         1 UNK         0.0600 
    184 H184        2.4216   -9.9939  -46.2313 H         1 UNK         0.3000 
    185 H185       -0.7459  -11.3698  -45.7564 H         1 UNK         0.0600 
    186 H186       -1.5586   -9.9924  -47.6465 H         1 UNK         0.0600 
    187 H187       -1.4970   -9.0175  -46.1877 H         1 UNK         0.0600 
    188 H188       -0.2452   -8.8380  -47.4113 H         1 UNK         0.0600 
    189 H189        0.5965  -11.0830  -48.1796 H         1 UNK         0.3000 
    190 H190       -1.9711  -20.7546  -47.1031 H         1 UNK         0.3000 
    191 H191       -3.6535  -21.6561  -49.1681 H         1 UNK         0.0600 
    192 H192       -4.2617  -20.4020  -46.4401 H         1 UNK         0.0600 
    193 H193       -5.4733  -20.6136  -47.6817 H         1 UNK         0.0600 
    194 H194       -4.0919  -19.5681  -47.9805 H         1 UNK         0.0600 
    195 H195       -3.3024  -22.8773  -45.8252 H         1 UNK         0.3000 
    196 H196       -5.3134  -24.9158  -46.0112 H         1 UNK         0.0600 
    197 H197       -2.9071  -24.6376  -44.1373 H         1 UNK         0.0600 
    198 H198       -4.2433  -25.7627  -43.9246 H         1 UNK         0.0600 
    199 H199       -4.5336  -24.0312  -43.8417 H         1 UNK         0.0600 
    200 H200       -1.7277  -24.9723  -46.4014 H         1 UNK         0.3000 
    201 H201       -1.4435  -27.7220  -46.9003 H         1 UNK         0.0600 
    202 H202        0.3051  -25.3882  -47.8353 H         1 UNK         0.0600 
    203 H203        0.7967  -27.0761  -47.7934 H         1 UNK         0.0600 
    204 H204        0.4426  -26.2340  -46.2935 H         1 UNK         0.0600 
    205 H205       -2.2177  -25.0991  -49.1574 H         1 UNK         0.3000 
    206 H206       -2.0927  -26.6580  -51.5789 H         1 UNK         0.0600 
    207 H207       -1.8168  -24.1877  -51.5355 H         1 UNK         0.0600 
    208 H208       -3.1693  -24.6462  -52.5563 H         1 UNK         0.0600 
    209 H209       -3.4657  -23.9916  -50.9474 H         1 UNK         0.0600 
    210 H210       -3.3621  -28.3516  -50.0608 H         1 UNK         0.3000 
    211 H211       -5.0769  -29.7368  -49.7850 H         1 UNK         0.0600 
    212 H212       -6.0458  -28.6543  -52.4848 H         1 UNK         0.0600 
    213 H213       -6.4454  -30.2193  -51.7873 H         1 UNK         0.0600 
    214 H214       -4.7948  -29.8790  -52.2749 H         1 UNK         0.0600 
    215 H215       -5.4579  -27.0794  -48.6196 H         1 UNK         0.3000 
    216 H216       -6.8523  -25.6913  -47.6589 H         1 UNK         0.0600 
    217 H217       -7.6541  -27.7713  -46.5182 H         1 UNK         0.0600 
    218 H218       -8.9179  -26.5600  -46.6411 H         1 UNK         0.0600 
    219 H219       -8.9271  -27.9425  -47.7268 H         1 UNK         0.0600 
    220 H220       -6.8700  -25.8410  -50.6985 H         1 UNK         0.3000 
    221 H221       -9.5276  -24.8912  -51.4699 H         1 UNK         0.0600 
    222 H222       -6.9169  -25.0343  -53.0687 H         1 UNK         0.0600 
    223 H223       -8.0988  -26.3384  -52.9569 H         1 UNK         0.0600 
    224 H224       -8.5353  -24.8150  -53.7166 H         1 UNK         0.0600 
    225 H225       -6.7542  -23.4689  -50.1037 H         1 UNK         0.3000 
    226 H226       -6.0365  -21.4526  -49.6678 H         1 UNK         0.0600 
    227 H227       -8.3673  -21.0717  -48.8431 H         1 UNK         0.0600 
    228 H228       -7.6149  -19.5880  -49.4031 H         1 UNK         0.0600 
    229 H229       -8.8086  -20.3940  -50.4105 H         1 UNK         0.0600 
    230 H230       -5.4556  -22.4689  -52.2264 H         1 UNK         0.3000 
    231 H231       -5.3550  -20.2888  -54.1445 H         1 UNK         0.0600 
    232 H232       -5.3270  -22.6946  -54.8442 H         1 UNK         0.0600 
    233 H233       -3.7919  -22.9256  -54.0074 H         1 UNK         0.0600 
    234 H234       -3.8868  -21.8522  -55.3952 H         1 UNK         0.0600 
    235 H235       -3.5127  -19.0442  -54.7016 H         1 UNK         0.3000 
    236 H236       -1.0314  -19.1645  -53.2684 H         1 UNK         0.0600 
    237 H237       -1.2763  -16.7995  -52.3366 H         1 UNK         0.0600 
    238 H238       -2.9831  -16.8344  -52.7548 H         1 UNK         0.0600 
    239 H239       -2.3446  -17.9401  -51.5392 H         1 UNK         0.0600 
    240 H240        0.4704  -17.5393  -54.1583 H         1 UNK         0.3000 
    241 H241        0.1132  -17.2546  -57.0021 H         1 UNK         0.0600 
    242 H242       -0.9755  -13.6625  -55.5474 H         1 UNK         0.3800 
    243 H243       -0.9577  -15.0908  -54.5473 H         1 UNK         0.3800 
    244 H244        2.4171  -16.4091  -57.0335 H         1 UNK         0.0800 
    245 H245        2.4322  -16.2345  -55.3037 H         1 UNK         0.0800 
    246 H246        4.1311  -19.4365  -54.3651 H         1 UNK         0.0800 
    247 H247        4.2106  -17.6970  -54.4030 H         1 UNK         0.0800 
@<TRIPOS>BOND
     1    1    2 1    
     2    1  127 1    
     3    1  128 1    
     4    1  129 1    
     5    2    3 2    
     6    2    4 am   BACKBONE|DICT|INTERRES
     7    4    5 1    
     8    4  130 1    
     9    5    6 1    
    10    5   65 1    
    11    5  131 1    
    12    6    7 1    
    13    6  132 1    
    14    6  133 1    
    15    7    8 1    
    16    8    9 1    
    17    8  134 1    
    18    8  135 1    
    19    9   10 ar   
    20    9   14 ar   
    21   10   11 ar   
    22   10  136 1    
    23   11   12 ar   
    24   11  126 1    
    25   12   13 ar   
    26   12  137 1    
    27   13   14 ar   
    28   13   15 1    
    29   14  138 1    
    30   15   16 1    
    31   15  139 1    
    32   15  140 1    
    33   16   17 1    
    34   17   18 1    
    35   17  141 1    
    36   17  142 1    
    37   18   19 1    
    38   18   67 1    
    39   18  143 1    
    40   19   20 am   BACKBONE|DICT|INTERRES
    41   19  144 1    
    42   20   21 2    
    43   20   22 1    
    44   22   23 1    
    45   22   24 1    
    46   22  145 1    
    47   23  146 1    
    48   23  147 1    
    49   23  148 1    
    50   24   25 am   BACKBONE|DICT|INTERRES
    51   24  149 1    
    52   25   26 2    
    53   25   27 1    
    54   27   28 1    
    55   27   29 1    
    56   27  150 1    
    57   28  151 1    
    58   28  152 1    
    59   28  153 1    
    60   29   30 am   BACKBONE|DICT|INTERRES
    61   29  154 1    
    62   30   31 2    
    63   30   32 1    
    64   32   33 1    
    65   32   34 1    
    66   32  155 1    
    67   33  156 1    
    68   33  157 1    
    69   33  158 1    
    70   34   35 am   BACKBONE|DICT|INTERRES
    71   34  159 1    
    72   35   36 2    
    73   35   37 1    
    74   37   38 1    
    75   37   39 1    
    76   37  160 1    
    77   38  161 1    
    78   38  162 1    
    79   38  163 1    
    80   39   40 am   BACKBONE|DICT|INTERRES
    81   39  164 1    
    82   40   41 2    
    83   40   42 1    
    84   42   43 1    
    85   42   44 1    
    86   42  165 1    
    87   43  166 1    
    88   43  167 1    
    89   43  168 1    
    90   44   45 am   BACKBONE|DICT|INTERRES
    91   44  169 1    
    92   45   46 2    
    93   45   47 1    
    94   47   48 1    
    95   47   49 1    
    96   47  170 1    
    97   48  171 1    
    98   48  172 1    
    99   48  173 1    
   100   49   50 am   BACKBONE|DICT|INTERRES
   101   49  174 1    
   102   50   51 2    
   103   50   52 1    
   104   52   53 1    
   105   52   54 1    
   106   52  175 1    
   107   53  176 1    
   108   53  177 1    
   109   53  178 1    
   110   54   55 am   BACKBONE|DICT|INTERRES
   111   54  179 1    
   112   55   56 2    
   113   55   57 1    
   114   57   58 1    
   115   57   59 1    
   116   57  180 1    
   117   58  181 1    
   118   58  182 1    
   119   58  183 1    
   120   59   60 am   BACKBONE|DICT|INTERRES
   121   59  184 1    
   122   60   61 2    
   123   60   62 1    
   124   62   63 1    
   125   62   64 1    
   126   62  185 1    
   127   63  186 1    
   128   63  187 1    
   129   63  188 1    
   130   64   65 am   BACKBONE|DICT|INTERRES
   131   64  189 1    
   132   65   66 2    
   133   67   68 2    
   134   67   69 am   BACKBONE|DICT|INTERRES
   135   69   70 1    
   136   69  190 1    
   137   70   71 1    
   138   70   72 1    
   139   70  191 1    
   140   71  192 1    
   141   71  193 1    
   142   71  194 1    
   143   72   73 2    
   144   72   74 am   BACKBONE|DICT|INTERRES
   145   74   75 1    
   146   74  195 1    
   147   75   76 1    
   148   75   77 1    
   149   75  196 1    
   150   76  197 1    
   151   76  198 1    
   152   76  199 1    
   153   77   78 2    
   154   77   79 am   BACKBONE|DICT|INTERRES
   155   79   80 1    
   156   79  200 1    
   157   80   81 1    
   158   80   82 1    
   159   80  201 1    
   160   81  202 1    
   161   81  203 1    
   162   81  204 1    
   163   82   83 2    
   164   82   84 am   BACKBONE|DICT|INTERRES
   165   84   85 1    
   166   84  205 1    
   167   85   86 1    
   168   85   87 1    
   169   85  206 1    
   170   86  207 1    
   171   86  208 1    
   172   86  209 1    
   173   87   88 2    
   174   87   89 am   BACKBONE|DICT|INTERRES
   175   89   90 1    
   176   89  210 1    
   177   90   91 1    
   178   90   92 1    
   179   90  211 1    
   180   91  212 1    
   181   91  213 1    
   182   91  214 1    
   183   92   93 2    
   184   92   94 am   BACKBONE|DICT|INTERRES
   185   94   95 1    
   186   94  215 1    
   187   95   96 1    
   188   95   97 1    
   189   95  216 1    
   190   96  217 1    
   191   96  218 1    
   192   96  219 1    
   193   97   98 2    
   194   97   99 am   BACKBONE|DICT|INTERRES
   195   99  100 1    
   196   99  220 1    
   197  100  101 1    
   198  100  102 1    
   199  100  221 1    
   200  101  222 1    
   201  101  223 1    
   202  101  224 1    
   203  102  103 2    
   204  102  104 am   BACKBONE|DICT|INTERRES
   205  104  105 1    
   206  104  225 1    
   207  105  106 1    
   208  105  107 1    
   209  105  226 1    
   210  106  227 1    
   211  106  228 1    
   212  106  229 1    
   213  107  108 2    
   214  107  109 am   BACKBONE|DICT|INTERRES
   215  109  110 1    
   216  109  230 1    
   217  110  111 1    
   218  110  112 1    
   219  110  231 1    
   220  111  232 1    
   221  111  233 1    
   222  111  234 1    
   223  112  113 2    
   224  112  114 am   BACKBONE|DICT|INTERRES
   225  114  115 1    
   226  114  235 1    
   227  115  116 1    
   228  115  117 1    
   229  115  236 1    
   230  116  237 1    
   231  116  238 1    
   232  116  239 1    
   233  117  118 2    
   234  117  119 am   BACKBONE|DICT|INTERRES
   235  119  120 1    
   236  119  240 1    
   237  120  121 1    
   238  120  124 1    
   239  120  241 1    
   240  121  122 am   BACKBONE|DICT|INTERRES
   241  121  123 2    
   242  122  242 1    
   243  122  243 1    
   244  124  125 1    
   245  124  244 1    
   246  124  245 1    
   247  125  126 1    
   248  126  246 1    
   249  126  247 1    
@<TRIPOS>SUBSTRUCTURE
     1 UNK         1 GROUP             0       ****    0 ROOT    
