@<TRIPOS>MOLECULE
3R540
247   249    1
SMALL
USER_CHARGES


@<TRIPOS>ATOM
      1 CA          2.4289   -9.0363  -48.7982 C.3       0 UNK        -0.1800 
      2 C           1.3562   -9.6899  -47.9404 C.2       0 UNK         0.5000 
      3 O           1.4748   -9.6954  -46.7155 O.2       0 UNK        -0.5000 
      4 N           0.3006  -10.2166  -48.5774 N.am      1 UNK        -0.5000 
      5 CA         -0.8159  -10.9727  -47.9807 C.3       1 UNK         0.1400 
      6 C6         -1.7600  -11.5409  -49.0683 C.3       23 UNK        -0.0398 
      7 S7         -0.9099  -12.7233  -50.1705 S.3       23 UNK        -0.2404 
      8 C8         -1.7495  -14.2750  -49.7220 C.3       23 UNK        -0.0205 
      9 C9         -1.2244  -15.4543  -50.5265 C.ar      23 UNK        -0.0193 
     10 C10        -1.5491  -15.5771  -51.8796 C.ar      23 UNK        -0.1150 
     11 C11        -1.0947  -16.6688  -52.6223 C.ar      23 UNK        -0.0193 
     12 C12        -0.3132  -17.6480  -52.0012 C.ar      23 UNK        -0.1150 
     13 C13         0.0103  -17.5444  -50.6449 C.ar      23 UNK        -0.0193 
     14 C14        -0.4372  -16.4359  -49.9180 C.ar      23 UNK        -0.1150 
     15 C15         0.8504  -18.6201  -49.9644 C.3       23 UNK        -0.0205 
     16 S16         0.0842  -20.2776  -50.0104 S.3       23 UNK        -0.2404 
     17 C17        -1.5811  -19.9482  -49.3448 C.3       23 UNK        -0.0398 
     18 CA         -2.1931  -21.1745  -48.6237 C.3       11 UNK         0.1400 
     19 N          -1.5038  -21.4772  -47.3596 N.am      11 UNK        -0.5000 
     20 C          -1.6631  -22.6001  -46.6469 C.2       10 UNK         0.5000 
     21 O          -2.3999  -23.5191  -46.9966 O.2       10 UNK        -0.5000 
     22 CA         -0.9759  -22.6736  -45.2699 C.3       10 UNK         0.1400 
     23 CB          0.5153  -23.0170  -45.3977 C.3       10 UNK        -0.1800 
     24 N          -1.1474  -21.4409  -44.4982 N.am      10 UNK        -0.5000 
     25 C          -2.3332  -20.9591  -44.0967 C.2       9 UNK         0.5000 
     26 O          -3.4004  -21.5378  -44.2937 O.2       9 UNK        -0.5000 
     27 CA         -2.3420  -19.5716  -43.4324 C.3       9 UNK         0.1400 
     28 CB         -2.0055  -19.6624  -41.9366 C.3       9 UNK        -0.1800 
     29 N          -1.4207  -18.6571  -44.1051 N.am      9 UNK        -0.5000 
     30 C          -1.6305  -18.1582  -45.3321 C.2       8 UNK         0.5000 
     31 O          -2.6709  -18.3203  -45.9692 O.2       8 UNK        -0.5000 
     32 CA         -0.4657  -17.3935  -45.9812 C.3       8 UNK         0.1400 
     33 CB         -0.5711  -15.8858  -45.7165 C.3       8 UNK        -0.1800 
     34 N           0.8447  -17.8897  -45.5547 N.am      8 UNK        -0.5000 
     35 C           1.3518  -19.0653  -45.9558 C.2       7 UNK         0.5000 
     36 O           0.7630  -19.8229  -46.7232 O.2       7 UNK        -0.5000 
     37 CA          2.7120  -19.4960  -45.3728 C.3       7 UNK         0.1400 
     38 CB          3.8602  -18.9148  -46.2106 C.3       7 UNK        -0.1800 
     39 N           2.8889  -19.1063  -43.9741 N.am      7 UNK        -0.5000 
     40 C           2.0930  -19.4881  -42.9658 C.2       6 UNK         0.5000 
     41 O           1.1816  -20.3044  -43.0990 O.2       6 UNK        -0.5000 
     42 CA          2.3055  -18.8080  -41.5959 C.3       6 UNK         0.1400 
     43 CB          3.0682  -19.7456  -40.6485 C.3       6 UNK        -0.1800 
     44 N           2.9962  -17.5111  -41.6437 N.am      6 UNK        -0.5000 
     45 C           2.6085  -16.4395  -42.3500 C.2       5 UNK         0.5000 
     46 O           1.6158  -16.4348  -43.0859 O.2       5 UNK        -0.5000 
     47 CA          3.5002  -15.1876  -42.2626 C.3       5 UNK         0.1400 
     48 CB          4.9851  -15.5137  -42.5286 C.3       5 UNK        -0.1800 
     49 N           3.0139  -14.2364  -43.2527 N.am      5 UNK        -0.5000 
     50 C           3.2766  -12.9299  -43.3348 C.2       4 UNK         0.5000 
     51 O           4.0010  -12.3240  -42.5420 O.2       4 UNK        -0.5000 
     52 CA          2.6466  -12.1717  -44.5256 C.3       4 UNK         0.1400 
     53 CB          1.7132  -13.0319  -45.4046 C.3       4 UNK        -0.1800 
     54 N           1.9656  -10.9331  -44.1404 N.am      4 UNK        -0.5000 
     55 C           1.0237  -10.7683  -43.2007 C.2       3 UNK         0.5000 
     56 O           0.5779  -11.6726  -42.4933 O.2       3 UNK        -0.5000 
     57 CA          0.4575   -9.3491  -43.0561 C.3       3 UNK         0.1400 
     58 CB          1.5444   -8.3258  -42.6811 C.3       3 UNK        -0.1800 
     59 N          -0.2033   -8.9442  -44.2958 N.am      3 UNK        -0.5000 
     60 C          -1.3829   -8.3097  -44.3583 C.2       2 UNK         0.5000 
     61 O          -2.0142   -7.9474  -43.3642 O.2       2 UNK        -0.5000 
     62 CA         -1.9730   -8.0238  -45.7573 C.3       2 UNK         0.1400 
     63 CB         -1.7362   -6.5569  -46.1488 C.3       2 UNK        -0.1800 
     64 N          -1.4352   -8.8831  -46.8125 N.am      2 UNK        -0.5000 
     65 C          -1.6237  -10.2064  -46.9064 C.2       1 UNK         0.5000 
     66 O          -2.3835  -10.8329  -46.1669 O.2       1 UNK        -0.5000 
     67 C          -3.7293  -21.0169  -48.4819 C.2       11 UNK         0.5000 
     68 O          -4.4136  -20.9506  -49.5025 O.2       11 UNK        -0.5000 
     69 N          -4.2624  -20.9706  -47.2540 N.am      12 UNK        -0.5000 
     70 CA         -5.6972  -21.0145  -46.9824 C.3       12 UNK         0.1400 
     71 CB         -6.0501  -19.9774  -45.9036 C.3       12 UNK        -0.1800 
     72 C          -6.1261  -22.4302  -46.5582 C.2       12 UNK         0.5000 
     73 O          -7.0760  -22.9705  -47.1251 O.2       12 UNK        -0.5000 
     74 N          -5.4348  -22.9984  -45.5604 N.am      13 UNK        -0.5000 
     75 CA         -5.7898  -24.2631  -44.9164 C.3       13 UNK         0.1400 
     76 CB         -5.1132  -24.3310  -43.5378 C.3       13 UNK        -0.1800 
     77 C          -5.4350  -25.5041  -45.7532 C.2       13 UNK         0.5000 
     78 O          -6.2734  -26.3939  -45.9032 O.2       13 UNK        -0.5000 
     79 N          -4.1990  -25.5512  -46.2634 N.am      14 UNK        -0.5000 
     80 CA         -3.6721  -26.6472  -47.0793 C.3       14 UNK         0.1400 
     81 CB         -2.1940  -26.8685  -46.7219 C.3       14 UNK        -0.1800 
     82 C          -3.8447  -26.3650  -48.5823 C.2       14 UNK         0.5000 
     83 O          -3.9332  -27.3097  -49.3683 O.2       14 UNK        -0.5000 
     84 N          -3.9176  -25.0763  -48.9489 N.am      15 UNK        -0.5000 
     85 CA         -4.2158  -24.5473  -50.2797 C.3       15 UNK         0.1400 
     86 CB         -5.6958  -24.8132  -50.6338 C.3       15 UNK        -0.1800 
     87 C          -3.2130  -25.0524  -51.3326 C.2       15 UNK         0.5000 
     88 O          -2.0344  -24.7059  -51.2520 O.2       15 UNK        -0.5000 
     89 N          -3.6754  -25.8765  -52.2821 N.am      16 UNK        -0.5000 
     90 CA         -2.8788  -26.4722  -53.3577 C.3       16 UNK         0.1400 
     91 CB         -3.8094  -27.2736  -54.2795 C.3       16 UNK        -0.1800 
     92 C          -1.7059  -27.3486  -52.8749 C.2       16 UNK         0.5000 
     93 O          -0.7246  -27.4895  -53.6046 O.2       16 UNK        -0.5000 
     94 N          -1.8063  -27.8991  -51.6559 N.am      17 UNK        -0.5000 
     95 CA         -0.7243  -28.6427  -51.0095 C.3       17 UNK         0.1400 
     96 CB         -1.3071  -29.5355  -49.9046 C.3       17 UNK        -0.1800 
     97 C           0.3921  -27.7287  -50.4619 C.2       17 UNK         0.5000 
     98 O           1.5156  -28.2032  -50.2905 O.2       17 UNK        -0.5000 
     99 N           0.0840  -26.4466  -50.2137 N.am      18 UNK        -0.5000 
    100 CA         1.0639  -25.4199  -49.8612 C.3       18 UNK         0.1400 
    101 CB         0.4306  -24.3818  -48.9221 C.3       18 UNK        -0.1800 
    102 C          1.6176  -24.7559  -51.1310 C.2       18 UNK         0.5000 
    103 O          2.8348  -24.7315  -51.3180 O.2       18 UNK        -0.5000 
    104 N          0.7168  -24.2648  -51.9918 N.am      19 UNK        -0.5000 
    105 CA         1.0358  -23.6658  -53.2860 C.3       19 UNK         0.1400 
    106 CB         1.7171  -22.2912  -53.1204 C.3       19 UNK        -0.1800 
    107 C         -0.2326  -23.5504  -54.1388 C.2       19 UNK         0.5000 
    108 O         -0.2962  -24.1286  -55.2238 O.2       19 UNK        -0.5000 
    109 N         -1.2213  -22.8116  -53.6271 N.am      20 UNK        -0.5000 
    110 CA        -2.4986  -22.5170  -54.2657 C.3       20 UNK         0.1400 
    111 CB        -2.2973  -21.5189  -55.4207 C.3       20 UNK        -0.1800 
    112 C         -3.4597  -21.9670  -53.2024 C.2       20 UNK         0.5000 
    113 O         -3.0150  -21.5718  -52.1245 O.2       20 UNK        -0.5000 
    114 N         -4.7596  -21.9603  -53.5228 N.am      21 UNK        -0.5000 
    115 CA        -5.8648  -21.5901  -52.6281 C.3       21 UNK         0.1400 
    116 CB        -7.1618  -22.1909  -53.1983 C.3       21 UNK        -0.1800 
    117 C         -6.0308  -20.0745  -52.3765 C.2       21 UNK         0.5000 
    118 O         -6.9893  -19.6740  -51.7147 O.2       21 UNK        -0.5000 
    119 N         -5.1267  -19.2561  -52.9221 N.am      22 UNK        -0.5000 
    120 CA        -5.0860  -17.7904  -52.7980 C.3       22 UNK         0.1400 
    121 C         -4.7108  -17.2313  -51.3921 C.2       22 UNK         0.5000 
    122 N         -4.4086  -18.0496  -50.3927 N.am      22 UNK        -0.7600 
    123 O         -4.7404  -16.0205  -51.1903 O.2       22 UNK        -0.5000 
    124 C124       -4.2698  -17.1391  -53.9526 C.3       23 UNK        -0.0398 
    125 S125       -2.7306  -18.0223  -54.4010 S.3       23 UNK        -0.2404 
    126 C126       -1.4341  -16.7852  -54.0983 C.3       23 UNK        -0.0205 
    127 H127        2.1891   -9.0916  -49.8603 H         1 UNK         0.0600 
    128 H128        2.5371   -7.9862  -48.5268 H         1 UNK         0.0600 
    129 H129        3.3868   -9.5312  -48.6389 H         1 UNK         0.0600 
    130 H130        0.2770  -10.1660  -49.5861 H         1 UNK         0.3000 
    131 H131       -0.3772  -11.8236  -47.4598 H         1 UNK         0.0600 
    132 H132       -2.6200  -12.0385  -48.6157 H         1 UNK         0.0800 
    133 H133       -2.1690  -10.7331  -49.6776 H         1 UNK         0.0800 
    134 H134       -1.6272  -14.4551  -48.6526 H         1 UNK         0.0800 
    135 H135       -2.8215  -14.1742  -49.8998 H         1 UNK         0.0800 
    136 H136       -2.1618  -14.8210  -52.3502 H         1 UNK         0.1150 
    137 H137        0.0329  -18.4993  -52.5708 H         1 UNK         0.1150 
    138 H138       -0.1763  -16.3337  -48.8760 H         1 UNK         0.1150 
    139 H139        1.8232  -18.6717  -50.4547 H         1 UNK         0.0800 
    140 H140        1.0481  -18.3523  -48.9267 H         1 UNK         0.0800 
    141 H141       -1.5539  -19.0882  -48.6748 H         1 UNK         0.0800 
    142 H142       -2.1880  -19.6536  -50.2022 H         1 UNK         0.0800 
    143 H143       -2.0553  -22.0387  -49.2774 H         1 UNK         0.0600 
    144 H144       -0.8247  -20.7896  -47.0417 H         1 UNK         0.3000 
    145 H145       -1.4537  -23.4768  -44.7050 H         1 UNK         0.0600 
    146 H146        1.0099  -23.0017  -44.4263 H         1 UNK         0.0600 
    147 H147        0.6468  -24.0171  -45.8106 H         1 UNK         0.0600 
    148 H148        1.0414  -22.3234  -46.0523 H         1 UNK         0.0600 
    149 H149       -0.3051  -20.9318  -44.2500 H         1 UNK         0.3000 
    150 H150       -3.3521  -19.1659  -43.5229 H         1 UNK         0.0600 
    151 H151       -2.7337  -20.2850  -41.4153 H         1 UNK         0.0600 
    152 H152       -2.0246  -18.6787  -41.4675 H         1 UNK         0.0600 
    153 H153       -1.0229  -20.0987  -41.7611 H         1 UNK         0.0600 
    154 H154       -0.5262  -18.4986  -43.6647 H         1 UNK         0.3000 
    155 H155       -0.5521  -17.5500  -47.0563 H         1 UNK         0.0600 
    156 H156       -1.5421  -15.5007  -46.0306 H         1 UNK         0.0600 
    157 H157       -0.4510  -15.6504  -44.6587 H         1 UNK         0.0600 
    158 H158        0.1877  -15.3407  -46.2766 H         1 UNK         0.0600 
    159 H159        1.3346  -17.3453  -44.8525 H         1 UNK         0.3000 
    160 H160        2.7655  -20.5852  -45.4248 H         1 UNK         0.0600 
    161 H161        3.8773  -17.8249  -46.1701 H         1 UNK         0.0600 
    162 H162        3.7626  -19.2031  -47.2584 H         1 UNK         0.0600 
    163 H163        4.8267  -19.2798  -45.8629 H         1 UNK         0.0600 
    164 H164        3.6161  -18.4356  -43.7774 H         1 UNK         0.3000 
    165 H165        1.3139  -18.6310  -41.1745 H         1 UNK         0.0600 
    166 H166        4.0839  -19.9321  -40.9997 H         1 UNK         0.0600 
    167 H167        3.1305  -19.3274  -39.6436 H         1 UNK         0.0600 
    168 H168        2.5670  -20.7111  -40.5654 H         1 UNK         0.0600 
    169 H169        3.8283  -17.4361  -41.0765 H         1 UNK         0.3000 
    170 H170        3.3855  -14.7570  -41.2662 H         1 UNK         0.0600 
    171 H171        5.3906  -16.1848  -41.7711 H         1 UNK         0.0600 
    172 H172        5.1229  -15.9889  -43.5007 H         1 UNK         0.0600 
    173 H173        5.6000  -14.6140  -42.5103 H         1 UNK         0.0600 
    174 H174        2.3386  -14.6408  -43.8897 H         1 UNK         0.3000 
    175 H175        3.4863  -11.8680  -45.1522 H         1 UNK         0.0600 
    176 H176        1.4081  -12.4766  -46.2885 H         1 UNK         0.0600 
    177 H177        2.2125  -13.9317  -45.7658 H         1 UNK         0.0600 
    178 H178        0.8116  -13.3305  -44.8688 H         1 UNK         0.0600 
    179 H179        2.2160  -10.1291  -44.7017 H         1 UNK         0.3000 
    180 H180       -0.2669   -9.3847  -42.2393 H         1 UNK         0.0600 
    181 H181        1.1045   -7.3527  -42.4622 H         1 UNK         0.0600 
    182 H182        2.0903   -8.6435  -41.7918 H         1 UNK         0.0600 
    183 H183        2.2699   -8.1886  -43.4836 H         1 UNK         0.0600 
    184 H184        0.2468   -9.2295  -45.1605 H         1 UNK         0.3000 
    185 H185       -3.0501   -8.1939  -45.6990 H         1 UNK         0.0600 
    186 H186       -2.2124   -6.3200  -47.1004 H         1 UNK         0.0600 
    187 H187       -2.1526   -5.8802  -45.4014 H         1 UNK         0.0600 
    188 H188       -0.6726   -6.3321  -46.2388 H         1 UNK         0.0600 
    189 H189       -0.7828   -8.4557  -47.4535 H         1 UNK         0.3000 
    190 H190       -3.6485  -21.0191  -46.4523 H         1 UNK         0.3000 
    191 H191       -6.2647  -20.7524  -47.8780 H         1 UNK         0.0600 
    192 H192       -7.1225  -19.9726  -45.7056 H         1 UNK         0.0600 
    193 H193       -5.7731  -18.9725  -46.2232 H         1 UNK         0.0600 
    194 H194       -5.5444  -20.1746  -44.9589 H         1 UNK         0.0600 
    195 H195       -4.6719  -22.4774  -45.1316 H         1 UNK         0.3000 
    196 H196       -6.8701  -24.2712  -44.7559 H         1 UNK         0.0600 
    197 H197       -5.3715  -25.2552  -43.0192 H         1 UNK         0.0600 
    198 H198       -5.4295  -23.5026  -42.9036 H         1 UNK         0.0600 
    199 H199       -4.0261  -24.2911  -43.6189 H         1 UNK         0.0600 
    200 H200       -3.5915  -24.7437  -46.1650 H         1 UNK         0.3000 
    201 H201       -4.2113  -27.5693  -46.8523 H         1 UNK         0.0600 
    202 H202       -2.0729  -27.0626  -45.6562 H         1 UNK         0.0600 
    203 H203       -1.5819  -26.0047  -46.9738 H         1 UNK         0.0600 
    204 H204       -1.7825  -27.7254  -47.2527 H         1 UNK         0.0600 
    205 H205       -3.7042  -24.3869  -48.2366 H         1 UNK         0.3000 
    206 H206       -4.0746  -23.4687  -50.2300 H         1 UNK         0.0600 
    207 H207       -6.3559  -24.3024  -49.9320 H         1 UNK         0.0600 
    208 H208       -5.9397  -24.4440  -51.6289 H         1 UNK         0.0600 
    209 H209       -5.9459  -25.8741  -50.6055 H         1 UNK         0.0600 
    210 H210       -4.6483  -26.1440  -52.2464 H         1 UNK         0.3000 
    211 H211       -2.4470  -25.6568  -53.9387 H         1 UNK         0.0600 
    212 H212       -4.2970  -28.0903  -53.7458 H         1 UNK         0.0600 
    213 H213       -3.2550  -27.7096  -55.1117 H         1 UNK         0.0600 
    214 H214       -4.5858  -26.6384  -54.7063 H         1 UNK         0.0600 
    215 H215       -2.6407  -27.7331  -51.1042 H         1 UNK         0.3000 
    216 H216       -0.2648  -29.2991  -51.7517 H         1 UNK         0.0600 
    217 H217       -0.5219  -30.1008  -49.4010 H         1 UNK         0.0600 
    218 H218       -2.0141  -30.2565  -50.3152 H         1 UNK         0.0600 
    219 H219       -1.8294  -28.9528  -49.1489 H         1 UNK         0.0600 
    220 H220       -0.8453  -26.1127  -50.4408 H         1 UNK         0.3000 
    221 H221        1.9004  -25.8752  -49.3266 H         1 UNK         0.0600 
    222 H222       -0.4396  -23.8981  -49.3640 H         1 UNK         0.0600 
    223 H223        0.1154  -24.8472  -47.9908 H         1 UNK         0.0600 
    224 H224        1.1434  -23.5964  -48.6675 H         1 UNK         0.0600 
    225 H225       -0.2734  -24.3588  -51.7730 H         1 UNK         0.3000 
    226 H226        1.7227  -24.3326  -53.8115 H         1 UNK         0.0600 
    227 H227        2.6886  -22.3795  -52.6350 H         1 UNK         0.0600 
    228 H228        1.8855  -21.8205  -54.0898 H         1 UNK         0.0600 
    229 H229        1.1104  -21.6081  -52.5261 H         1 UNK         0.0600 
    230 H230       -1.1282  -22.4014  -52.7046 H         1 UNK         0.3000 
    231 H231       -2.9258  -23.4422  -54.6560 H         1 UNK         0.0600 
    232 H232       -3.2484  -21.1579  -55.8137 H         1 UNK         0.0600 
    233 H233       -1.7621  -21.9795  -56.2509 H         1 UNK         0.0600 
    234 H234       -1.7198  -20.6528  -55.0988 H         1 UNK         0.0600 
    235 H235       -5.0315  -22.2697  -54.4449 H         1 UNK         0.3000 
    236 H236       -5.6792  -22.0440  -51.6538 H         1 UNK         0.0600 
    237 H237       -7.4328  -21.7275  -54.1477 H         1 UNK         0.0600 
    238 H238       -7.0675  -23.2635  -53.3665 H         1 UNK         0.0600 
    239 H239       -7.9974  -22.0462  -52.5123 H         1 UNK         0.0600 
    240 H240       -4.3476  -19.6663  -53.4157 H         1 UNK         0.3000 
    241 H241       -6.1151  -17.4529  -52.9351 H         1 UNK         0.0600 
    242 H242       -4.1984  -17.6528  -49.4926 H         1 UNK         0.3800 
    243 H243       -4.4491  -19.0548  -50.5054 H         1 UNK         0.3800 
    244 H244       -4.0561  -16.0883  -53.7511 H         1 UNK         0.0800 
    245 H245       -4.8889  -17.1313  -54.8505 H         1 UNK         0.0800 
    246 H246       -0.5378  -17.0799  -54.6459 H         1 UNK         0.0800 
    247 H247       -1.7366  -15.8214  -54.5106 H         1 UNK         0.0800 
@<TRIPOS>BOND
     1    1    2 1    
     2    1  127 1    
     3    1  128 1    
     4    1  129 1    
     5    2    3 2    
     6    2    4 am   BACKBONE|DICT|INTERRES
     7    4    5 1    
     8    4  130 1    
     9    5    6 1    
    10    5   65 1    
    11    5  131 1    
    12    6    7 1    
    13    6  132 1    
    14    6  133 1    
    15    7    8 1    
    16    8    9 1    
    17    8  134 1    
    18    8  135 1    
    19    9   10 ar   
    20    9   14 ar   
    21   10   11 ar   
    22   10  136 1    
    23   11   12 ar   
    24   11  126 1    
    25   12   13 ar   
    26   12  137 1    
    27   13   14 ar   
    28   13   15 1    
    29   14  138 1    
    30   15   16 1    
    31   15  139 1    
    32   15  140 1    
    33   16   17 1    
    34   17   18 1    
    35   17  141 1    
    36   17  142 1    
    37   18   19 1    
    38   18   67 1    
    39   18  143 1    
    40   19   20 am   BACKBONE|DICT|INTERRES
    41   19  144 1    
    42   20   21 2    
    43   20   22 1    
    44   22   23 1    
    45   22   24 1    
    46   22  145 1    
    47   23  146 1    
    48   23  147 1    
    49   23  148 1    
    50   24   25 am   BACKBONE|DICT|INTERRES
    51   24  149 1    
    52   25   26 2    
    53   25   27 1    
    54   27   28 1    
    55   27   29 1    
    56   27  150 1    
    57   28  151 1    
    58   28  152 1    
    59   28  153 1    
    60   29   30 am   BACKBONE|DICT|INTERRES
    61   29  154 1    
    62   30   31 2    
    63   30   32 1    
    64   32   33 1    
    65   32   34 1    
    66   32  155 1    
    67   33  156 1    
    68   33  157 1    
    69   33  158 1    
    70   34   35 am   BACKBONE|DICT|INTERRES
    71   34  159 1    
    72   35   36 2    
    73   35   37 1    
    74   37   38 1    
    75   37   39 1    
    76   37  160 1    
    77   38  161 1    
    78   38  162 1    
    79   38  163 1    
    80   39   40 am   BACKBONE|DICT|INTERRES
    81   39  164 1    
    82   40   41 2    
    83   40   42 1    
    84   42   43 1    
    85   42   44 1    
    86   42  165 1    
    87   43  166 1    
    88   43  167 1    
    89   43  168 1    
    90   44   45 am   BACKBONE|DICT|INTERRES
    91   44  169 1    
    92   45   46 2    
    93   45   47 1    
    94   47   48 1    
    95   47   49 1    
    96   47  170 1    
    97   48  171 1    
    98   48  172 1    
    99   48  173 1    
   100   49   50 am   BACKBONE|DICT|INTERRES
   101   49  174 1    
   102   50   51 2    
   103   50   52 1    
   104   52   53 1    
   105   52   54 1    
   106   52  175 1    
   107   53  176 1    
   108   53  177 1    
   109   53  178 1    
   110   54   55 am   BACKBONE|DICT|INTERRES
   111   54  179 1    
   112   55   56 2    
   113   55   57 1    
   114   57   58 1    
   115   57   59 1    
   116   57  180 1    
   117   58  181 1    
   118   58  182 1    
   119   58  183 1    
   120   59   60 am   BACKBONE|DICT|INTERRES
   121   59  184 1    
   122   60   61 2    
   123   60   62 1    
   124   62   63 1    
   125   62   64 1    
   126   62  185 1    
   127   63  186 1    
   128   63  187 1    
   129   63  188 1    
   130   64   65 am   BACKBONE|DICT|INTERRES
   131   64  189 1    
   132   65   66 2    
   133   67   68 2    
   134   67   69 am   BACKBONE|DICT|INTERRES
   135   69   70 1    
   136   69  190 1    
   137   70   71 1    
   138   70   72 1    
   139   70  191 1    
   140   71  192 1    
   141   71  193 1    
   142   71  194 1    
   143   72   73 2    
   144   72   74 am   BACKBONE|DICT|INTERRES
   145   74   75 1    
   146   74  195 1    
   147   75   76 1    
   148   75   77 1    
   149   75  196 1    
   150   76  197 1    
   151   76  198 1    
   152   76  199 1    
   153   77   78 2    
   154   77   79 am   BACKBONE|DICT|INTERRES
   155   79   80 1    
   156   79  200 1    
   157   80   81 1    
   158   80   82 1    
   159   80  201 1    
   160   81  202 1    
   161   81  203 1    
   162   81  204 1    
   163   82   83 2    
   164   82   84 am   BACKBONE|DICT|INTERRES
   165   84   85 1    
   166   84  205 1    
   167   85   86 1    
   168   85   87 1    
   169   85  206 1    
   170   86  207 1    
   171   86  208 1    
   172   86  209 1    
   173   87   88 2    
   174   87   89 am   BACKBONE|DICT|INTERRES
   175   89   90 1    
   176   89  210 1    
   177   90   91 1    
   178   90   92 1    
   179   90  211 1    
   180   91  212 1    
   181   91  213 1    
   182   91  214 1    
   183   92   93 2    
   184   92   94 am   BACKBONE|DICT|INTERRES
   185   94   95 1    
   186   94  215 1    
   187   95   96 1    
   188   95   97 1    
   189   95  216 1    
   190   96  217 1    
   191   96  218 1    
   192   96  219 1    
   193   97   98 2    
   194   97   99 am   BACKBONE|DICT|INTERRES
   195   99  100 1    
   196   99  220 1    
   197  100  101 1    
   198  100  102 1    
   199  100  221 1    
   200  101  222 1    
   201  101  223 1    
   202  101  224 1    
   203  102  103 2    
   204  102  104 am   BACKBONE|DICT|INTERRES
   205  104  105 1    
   206  104  225 1    
   207  105  106 1    
   208  105  107 1    
   209  105  226 1    
   210  106  227 1    
   211  106  228 1    
   212  106  229 1    
   213  107  108 2    
   214  107  109 am   BACKBONE|DICT|INTERRES
   215  109  110 1    
   216  109  230 1    
   217  110  111 1    
   218  110  112 1    
   219  110  231 1    
   220  111  232 1    
   221  111  233 1    
   222  111  234 1    
   223  112  113 2    
   224  112  114 am   BACKBONE|DICT|INTERRES
   225  114  115 1    
   226  114  235 1    
   227  115  116 1    
   228  115  117 1    
   229  115  236 1    
   230  116  237 1    
   231  116  238 1    
   232  116  239 1    
   233  117  118 2    
   234  117  119 am   BACKBONE|DICT|INTERRES
   235  119  120 1    
   236  119  240 1    
   237  120  121 1    
   238  120  124 1    
   239  120  241 1    
   240  121  122 am   BACKBONE|DICT|INTERRES
   241  121  123 2    
   242  122  242 1    
   243  122  243 1    
   244  124  125 1    
   245  124  244 1    
   246  124  245 1    
   247  125  126 1    
   248  126  246 1    
   249  126  247 1    
@<TRIPOS>SUBSTRUCTURE
     1 UNK         1 GROUP             0       ****    0 ROOT    
