@<TRIPOS>MOLECULE
3R540
247   249    1
SMALL
USER_CHARGES


@<TRIPOS>ATOM
      1 CA         -3.7009  -17.7221  -46.7283 C.3       0 UNK        -0.1800 
      2 C          -2.8361  -16.5458  -47.1558 C.2       0 UNK         0.5000 
      3 O          -1.6650  -16.7329  -47.4746 O.2       0 UNK        -0.5000 
      4 N          -3.4241  -15.3428  -47.1364 N.am      1 UNK        -0.5000 
      5 CA         -2.9456  -14.0353  -47.6184 C.3       1 UNK         0.1400 
      6 C6         -2.9850  -13.8975  -49.1679 C.3       23 UNK        -0.0398 
      7 S7         -1.5569  -14.5601  -50.1023 S.3       23 UNK        -0.2404 
      8 C8         -2.3440  -15.6774  -51.3091 C.3       23 UNK        -0.0205 
      9 C9         -2.4881  -17.0951  -50.7768 C.ar      23 UNK        -0.0193 
     10 C10        -3.7454  -17.6218  -50.4642 C.ar      23 UNK        -0.1150 
     11 C11        -3.8691  -18.9366  -49.9999 C.ar      23 UNK        -0.0193 
     12 C12        -2.7223  -19.7229  -49.8558 C.ar      23 UNK        -0.1150 
     13 C13        -1.4617  -19.2121  -50.1751 C.ar      23 UNK        -0.0193 
     14 C14        -1.3524  -17.8958  -50.6290 C.ar      23 UNK        -0.1150 
     15 C15        -0.2261  -20.0963  -50.0872 C.3       23 UNK        -0.0205 
     16 S16         0.9554  -19.5652  -48.8048 S.3       23 UNK        -0.2404 
     17 C17         0.0062  -19.7734  -47.2614 C.3       23 UNK        -0.0398 
     18 CA         -0.1173  -21.2572  -46.8199 C.3       11 UNK         0.1400 
     19 N           0.2808  -21.4779  -45.4274 N.am      11 UNK        -0.5000 
     20 C           0.4101  -22.6830  -44.8529 C.2       10 UNK         0.5000 
     21 O           0.1898  -23.7452  -45.4349 O.2       10 UNK        -0.5000 
     22 CA          0.8245  -22.7032  -43.3730 C.3       10 UNK         0.1400 
     23 CB          2.3474  -22.5635  -43.2278 C.3       10 UNK        -0.1800 
     24 N           0.1602  -21.6390  -42.6238 N.am      10 UNK        -0.5000 
     25 C          -1.1027  -21.7075  -42.1816 C.2       9 UNK         0.5000 
     26 O          -1.8147  -22.7052  -42.2954 O.2       9 UNK        -0.5000 
     27 CA         -1.6781  -20.4336  -41.5340 C.3       9 UNK         0.1400 
     28 CB         -1.3056  -20.3649  -40.0457 C.3       9 UNK        -0.1800 
     29 N          -1.2386  -19.2066  -42.2004 N.am      9 UNK        -0.5000 
     30 C          -1.5507  -18.8838  -43.4643 C.2       8 UNK         0.5000 
     31 O          -2.2502  -19.5828  -44.1948 O.2       8 UNK        -0.5000 
     32 CA         -0.9547  -17.5837  -44.0302 C.3       8 UNK         0.1400 
     33 CB         -1.8681  -16.3976  -43.6765 C.3       8 UNK        -0.1800 
     34 N           0.3993  -17.2846  -43.5700 N.am      8 UNK        -0.5000 
     35 C           1.4550  -18.1074  -43.5279 C.2       7 UNK         0.5000 
     36 O           1.4494  -19.2553  -43.9731 O.2       7 UNK        -0.5000 
     37 CA          2.7046  -17.5794  -42.7955 C.3       7 UNK         0.1400 
     38 CB          3.7280  -17.0176  -43.7912 C.3       7 UNK        -0.1800 
     39 N           2.4111  -16.5610  -41.7797 N.am      7 UNK        -0.5000 
     40 C           1.6261  -16.7386  -40.7041 C.2       6 UNK         0.5000 
     41 O           1.0400  -17.7967  -40.4635 O.2       6 UNK        -0.5000 
     42 CA          1.4402  -15.5274  -39.7621 C.3       6 UNK         0.1400 
     43 CB          1.0385  -15.9392  -38.3307 C.3       6 UNK        -0.1800 
     44 N           2.5893  -14.6161  -39.7384 N.am      6 UNK        -0.5000 
     45 C           3.8555  -14.9065  -39.3954 C.2       5 UNK         0.5000 
     46 O           4.2088  -16.0040  -38.9612 O.2       5 UNK        -0.5000 
     47 CA          4.9077  -13.7853  -39.5692 C.3       5 UNK         0.1400 
     48 CB          6.2794  -14.3365  -40.0125 C.3       5 UNK        -0.1800 
     49 N           4.4840  -12.6896  -40.4531 N.am      5 UNK        -0.5000 
     50 C           4.1551  -12.7743  -41.7501 C.2       4 UNK         0.5000 
     51 O           4.1798  -13.8176  -42.4065 O.2       4 UNK        -0.5000 
     52 CA          3.6548  -11.4728  -42.4044 C.3       4 UNK         0.1400 
     53 CB          4.5592  -11.0654  -43.5779 C.3       4 UNK        -0.1800 
     54 N           2.2792  -11.6055  -42.8835 N.am      4 UNK        -0.5000 
     55 C           1.2144  -11.9348  -42.1370 C.2       3 UNK         0.5000 
     56 O           1.2573  -12.1005  -40.9164 O.2       3 UNK        -0.5000 
     57 CA         -0.1212  -12.1379  -42.8827 C.3       3 UNK         0.1400 
     58 CB         -0.9573  -10.8502  -42.8527 C.3       3 UNK        -0.1800 
     59 N           0.0350  -12.5748  -44.2741 N.am      3 UNK        -0.5000 
     60 C           0.6003  -13.7274  -44.6518 C.2       2 UNK         0.5000 
     61 O           1.0343  -14.5552  -43.8502 O.2       2 UNK        -0.5000 
     62 CA          0.6572  -14.0008  -46.1672 C.3       2 UNK         0.1400 
     63 CB          1.6220  -15.1441  -46.5261 C.3       2 UNK        -0.1800 
     64 N          -0.6597  -14.3270  -46.7068 N.am      2 UNK        -0.5000 
     65 C          -1.6481  -13.4715  -46.9816 C.2       1 UNK         0.5000 
     66 O          -1.5698  -12.2631  -46.7499 O.2       1 UNK        -0.5000 
     67 C          -1.5220  -21.8186  -47.1126 C.2       11 UNK         0.5000 
     68 O          -1.6808  -22.5606  -48.0796 O.2       11 UNK        -0.5000 
     69 N          -2.5037  -21.5018  -46.2564 N.am      12 UNK        -0.5000 
     70 CA         -3.8826  -21.9825  -46.3717 C.3       12 UNK         0.1400 
     71 CB         -4.7758  -21.2177  -45.3840 C.3       12 UNK        -0.1800 
     72 C          -4.0232  -23.5003  -46.1522 C.2       12 UNK         0.5000 
     73 O          -4.9275  -24.1081  -46.7250 O.2       12 UNK        -0.5000 
     74 N          -3.1307  -24.0871  -45.3410 N.am      13 UNK        -0.5000 
     75 CA         -3.0513  -25.5315  -45.1226 C.3       13 UNK         0.1400 
     76 CB         -2.2093  -25.8251  -43.8716 C.3       13 UNK        -0.1800 
     77 C          -2.4947  -26.2706  -46.3533 C.2       13 UNK         0.5000 
     78 O          -2.9863  -27.3510  -46.6819 O.2       13 UNK        -0.5000 
     79 N          -1.4973  -25.6709  -47.0195 N.am      14 UNK        -0.5000 
     80 CA         -0.9328  -26.1593  -48.2767 C.3       14 UNK         0.1400 
     81 CB          0.4063  -25.4540  -48.5494 C.3       14 UNK        -0.1800 
     82 C          -1.9052  -25.9684  -49.4546 C.2       14 UNK         0.5000 
     83 O          -2.1557  -26.9191  -50.1966 O.2       14 UNK        -0.5000 
     84 N          -2.4248  -24.7400  -49.5963 N.am      15 UNK        -0.5000 
     85 CA         -3.3649  -24.2145  -50.5947 C.3       15 UNK         0.1400 
     86 CB         -4.7307  -24.9174  -50.5040 C.3       15 UNK        -0.1800 
     87 C          -2.8313  -24.2102  -52.0397 C.2       15 UNK         0.5000 
     88 O          -2.8629  -23.1722  -52.7012 O.2       15 UNK        -0.5000 
     89 N          -2.3155  -25.3585  -52.4940 N.am      16 UNK        -0.5000 
     90 CA         -1.7582  -25.5979  -53.8265 C.3       16 UNK         0.1400 
     91 CB         -1.4510  -27.0955  -53.9714 C.3       16 UNK        -0.1800 
     92 C          -0.5068  -24.7571  -54.1470 C.2       16 UNK         0.5000 
     93 O          -0.1857  -24.5754  -55.3217 O.2       16 UNK        -0.5000 
     94 N           0.1556  -24.2378  -53.1028 N.am      17 UNK        -0.5000 
     95 CA          1.3086  -23.3378  -53.1703 C.3       17 UNK         0.1400 
     96 CB          1.8139  -23.0807  -51.7416 C.3       17 UNK        -0.1800 
     97 C           1.0263  -22.0049  -53.8959 C.2       17 UNK         0.5000 
     98 O           1.9595  -21.4032  -54.4286 O.2       17 UNK        -0.5000 
     99 N          -0.2436  -21.5822  -53.9290 N.am      18 UNK        -0.5000 
    100 CA        -0.7230  -20.4331  -54.6890 C.3       18 UNK         0.1400 
    101 CB        -0.5591  -19.1405  -53.8716 C.3       18 UNK        -0.1800 
    102 C         -2.1763  -20.7022  -55.0982 C.2       18 UNK         0.5000 
    103 O         -3.0705  -19.9301  -54.7498 O.2       18 UNK        -0.5000 
    104 N         -2.3916  -21.8135  -55.8172 N.am      19 UNK        -0.5000 
    105 CA        -3.7058  -22.3366  -56.2118 C.3       19 UNK         0.1400 
    106 CB        -3.5073  -23.5823  -57.0891 C.3       19 UNK        -0.1800 
    107 C         -4.6117  -21.3233  -56.9397 C.2       19 UNK         0.5000 
    108 O         -5.8226  -21.3239  -56.7193 O.2       19 UNK        -0.5000 
    109 N         -4.0050  -20.4553  -57.7607 N.am      20 UNK        -0.5000 
    110 CA        -4.6827  -19.3839  -58.4934 C.3       20 UNK         0.1400 
    111 CB        -3.7049  -18.7856  -59.5163 C.3       20 UNK        -0.1800 
    112 C         -5.2577  -18.2759  -57.5871 C.2       20 UNK         0.5000 
    113 O         -6.2351  -17.6335  -57.9738 O.2       20 UNK        -0.5000 
    114 N         -4.6505  -18.0706  -56.4108 N.am      21 UNK        -0.5000 
    115 CA        -5.1053  -17.1187  -55.3993 C.3       21 UNK         0.1400 
    116 CB        -3.8843  -16.4867  -54.7097 C.3       21 UNK        -0.1800 
    117 C         -6.0107  -17.8067  -54.3656 C.2       21 UNK         0.5000 
    118 O         -7.0417  -17.2466  -53.9910 O.2       21 UNK        -0.5000 
    119 N         -5.5996  -18.9985  -53.9166 N.am      22 UNK        -0.5000 
    120 CA        -6.2753  -19.7830  -52.8761 C.3       22 UNK         0.1400 
    121 C         -7.5789  -20.4938  -53.3401 C.2       22 UNK         0.5000 
    122 N         -7.7329  -20.8398  -54.6121 N.am      22 UNK        -0.7600 
    123 O         -8.4799  -20.7173  -52.5366 O.2       22 UNK        -0.5000 
    124 C124       -5.2807  -20.7656  -52.2046 C.3       23 UNK        -0.0398 
    125 S125       -5.6341  -21.0914  -50.4426 S.3       23 UNK        -0.2404 
    126 C126       -5.2410  -19.4969  -49.6396 C.3       23 UNK        -0.0205 
    127 H127       -4.7075  -17.6317  -47.1360 H         1 UNK         0.0600 
    128 H128       -3.7748  -17.7767  -45.6442 H         1 UNK         0.0600 
    129 H129       -3.2769  -18.6599  -47.0856 H         1 UNK         0.0600 
    130 H130       -4.3750  -15.3119  -46.7967 H         1 UNK         0.3000 
    131 H131       -3.7230  -13.3610  -47.2550 H         1 UNK         0.0600 
    132 H132       -3.0589  -12.8398  -49.4254 H         1 UNK         0.0800 
    133 H133       -3.9049  -14.3450  -49.5457 H         1 UNK         0.0800 
    134 H134       -1.7252  -15.7064  -52.2070 H         1 UNK         0.0800 
    135 H135       -3.3073  -15.2743  -51.6240 H         1 UNK         0.0800 
    136 H136       -4.6263  -17.0069  -50.5814 H         1 UNK         0.1150 
    137 H137       -2.8212  -20.7425  -49.5155 H         1 UNK         0.1150 
    138 H138       -0.3799  -17.4967  -50.8799 H         1 UNK         0.1150 
    139 H139       -0.5038  -21.1367  -49.9210 H         1 UNK         0.0800 
    140 H140        0.2837  -20.0774  -51.0512 H         1 UNK         0.0800 
    141 H141       -0.9614  -19.2810  -47.3639 H         1 UNK         0.0800 
    142 H142        0.5352  -19.1925  -46.5060 H         1 UNK         0.0800 
    143 H143        0.5799  -21.8539  -47.4127 H         1 UNK         0.0600 
    144 H144        0.5321  -20.6566  -44.8845 H         1 UNK         0.3000 
    145 H145        0.5339  -23.6693  -42.9545 H         1 UNK         0.0600 
    146 H146        2.6492  -22.6162  -42.1817 H         1 UNK         0.0600 
    147 H147        2.7109  -21.6193  -43.6341 H         1 UNK         0.0600 
    148 H148        2.8628  -23.3669  -43.7557 H         1 UNK         0.0600 
    149 H149        0.6522  -20.7576  -42.5568 H         1 UNK         0.3000 
    150 H150       -2.7662  -20.4855  -41.6118 H         1 UNK         0.0600 
    151 H151       -1.6491  -21.2540  -39.5154 H         1 UNK         0.0600 
    152 H152       -1.7636  -19.5010  -39.5637 H         1 UNK         0.0600 
    153 H153       -0.2264  -20.2934  -39.9039 H         1 UNK         0.0600 
    154 H154       -0.6182  -18.6000  -41.6763 H         1 UNK         0.3000 
    155 H155       -0.9133  -17.6896  -45.1140 H         1 UNK         0.0600 
    156 H156       -2.9183  -16.6277  -43.8547 H         1 UNK         0.0600 
    157 H157       -1.6296  -15.5218  -44.2766 H         1 UNK         0.0600 
    158 H158       -1.7745  -16.1195  -42.6261 H         1 UNK         0.0600 
    159 H159        0.5665  -16.3239  -43.2843 H         1 UNK         0.3000 
    160 H160        3.1584  -18.4309  -42.2849 H         1 UNK         0.0600 
    161 H161        3.3649  -16.1044  -44.2618 H         1 UNK         0.0600 
    162 H162        3.9463  -17.7360  -44.5824 H         1 UNK         0.0600 
    163 H163        4.6692  -16.7811  -43.2946 H         1 UNK         0.0600 
    164 H164        2.8310  -15.6507  -41.9278 H         1 UNK         0.3000 
    165 H165        0.6133  -14.9524  -40.1814 H         1 UNK         0.0600 
    166 H166        0.8986  -15.0658  -37.6938 H         1 UNK         0.0600 
    167 H167        0.0982  -16.4919  -38.3312 H         1 UNK         0.0600 
    168 H168        1.7911  -16.5770  -37.8664 H         1 UNK         0.0600 
    169 H169        2.3972  -13.6817  -40.0838 H         1 UNK         0.3000 
    170 H170        5.0357  -13.3427  -38.5805 H         1 UNK         0.0600 
    171 H171        6.2147  -14.8676  -40.9627 H         1 UNK         0.0600 
    172 H172        7.0094  -13.5349  -40.1249 H         1 UNK         0.0600 
    173 H173        6.6792  -15.0345  -39.2761 H         1 UNK         0.0600 
    174 H174        4.3906  -11.7907  -40.0002 H         1 UNK         0.3000 
    175 H175        3.6727  -10.6696  -41.6650 H         1 UNK         0.0600 
    176 H176        4.5500  -11.8133  -44.3720 H         1 UNK         0.0600 
    177 H177        4.2444  -10.1144  -44.0081 H         1 UNK         0.0600 
    178 H178        5.5929  -10.9474  -43.2503 H         1 UNK         0.0600 
    179 H179        2.1430  -11.5214  -43.8793 H         1 UNK         0.3000 
    180 H180       -0.6734  -12.9163  -42.3520 H         1 UNK         0.0600 
    181 H181       -1.9392  -11.0072  -43.2997 H         1 UNK         0.0600 
    182 H182       -0.4672  -10.0400  -43.3941 H         1 UNK         0.0600 
    183 H183       -1.1178  -10.5116  -41.8282 H         1 UNK         0.0600 
    184 H184       -0.3722  -11.9875  -44.9928 H         1 UNK         0.3000 
    185 H185        1.0211  -13.0943  -46.6549 H         1 UNK         0.0600 
    186 H186        1.3114  -16.0913  -46.0834 H         1 UNK         0.0600 
    187 H187        1.6766  -15.2870  -47.6055 H         1 UNK         0.0600 
    188 H188        2.6314  -14.9256  -46.1772 H         1 UNK         0.0600 
    189 H189       -0.8283  -15.3035  -46.9491 H         1 UNK         0.3000 
    190 H190       -2.3100  -20.8747  -45.4771 H         1 UNK         0.3000 
    191 H191       -4.2294  -21.7647  -47.3842 H         1 UNK         0.0600 
    192 H192       -4.4549  -21.3711  -44.3527 H         1 UNK         0.0600 
    193 H193       -5.8133  -21.5454  -45.4591 H         1 UNK         0.0600 
    194 H194       -4.7602  -20.1471  -45.5829 H         1 UNK         0.0600 
    195 H195       -2.4221  -23.5172  -44.9014 H         1 UNK         0.3000 
    196 H196       -4.0612  -25.9049  -44.9392 H         1 UNK         0.0600 
    197 H197       -2.6340  -25.3451  -42.9898 H         1 UNK         0.0600 
    198 H198       -1.1826  -25.4766  -43.9797 H         1 UNK         0.0600 
    199 H199       -2.1712  -26.8965  -43.6717 H         1 UNK         0.0600 
    200 H200       -1.1134  -24.8080  -46.6497 H         1 UNK         0.3000 
    201 H201       -0.7355  -27.2284  -48.1732 H         1 UNK         0.0600 
    202 H202        1.1201  -25.6457  -47.7481 H         1 UNK         0.0600 
    203 H203        0.2894  -24.3733  -48.6358 H         1 UNK         0.0600 
    204 H204        0.8545  -25.8113  -49.4773 H         1 UNK         0.0600 
    205 H205       -2.1086  -24.0302  -48.9349 H         1 UNK         0.3000 
    206 H206       -3.5159  -23.1702  -50.3194 H         1 UNK         0.0600 
    207 H207       -5.1459  -24.8352  -49.4994 H         1 UNK         0.0600 
    208 H208       -5.4471  -24.4624  -51.1891 H         1 UNK         0.0600 
    209 H209       -4.6643  -25.9765  -50.7540 H         1 UNK         0.0600 
    210 H210       -2.2992  -26.1412  -51.8432 H         1 UNK         0.3000 
    211 H211       -2.5273  -25.3331  -54.5525 H         1 UNK         0.0600 
    212 H212       -0.7091  -27.4248  -53.2427 H         1 UNK         0.0600 
    213 H213       -1.0612  -27.3223  -54.9647 H         1 UNK         0.0600 
    214 H214       -2.3490  -27.6976  -53.8308 H         1 UNK         0.0600 
    215 H215       -0.1957  -24.4483  -52.1811 H         1 UNK         0.3000 
    216 H216        2.0960  -23.8495  -53.7274 H         1 UNK         0.0600 
    217 H217        2.6693  -22.4039  -51.7426 H         1 UNK         0.0600 
    218 H218        2.1349  -24.0067  -51.2641 H         1 UNK         0.0600 
    219 H219        1.0416  -22.6331  -51.1161 H         1 UNK         0.0600 
    220 H220       -0.9628  -22.1417  -53.4834 H         1 UNK         0.3000 
    221 H221       -0.1450  -20.3370  -55.6104 H         1 UNK         0.0600 
    222 H222       -1.1942  -19.1606  -52.9886 H         1 UNK         0.0600 
    223 H223        0.4711  -18.9948  -53.5470 H         1 UNK         0.0600 
    224 H224       -0.8447  -18.2674  -54.4592 H         1 UNK         0.0600 
    225 H225       -1.5962  -22.3936  -56.0459 H         1 UNK         0.3000 
    226 H226       -4.2189  -22.6372  -55.2959 H         1 UNK         0.0600 
    227 H227       -2.9121  -24.3399  -56.5825 H         1 UNK         0.0600 
    228 H228       -4.4654  -24.0382  -57.3423 H         1 UNK         0.0600 
    229 H229       -3.0028  -23.3375  -58.0247 H         1 UNK         0.0600 
    230 H230       -3.0045  -20.5235  -57.8752 H         1 UNK         0.3000 
    231 H231       -5.5187  -19.8269  -59.0389 H         1 UNK         0.0600 
    232 H232       -4.1847  -18.0008  -60.1028 H         1 UNK         0.0600 
    233 H233       -3.3532  -19.5432  -60.2167 H         1 UNK         0.0600 
    234 H234       -2.8335  -18.3454  -59.0299 H         1 UNK         0.0600 
    235 H235       -3.8935  -18.6859  -56.1370 H         1 UNK         0.3000 
    236 H236       -5.6759  -16.3153  -55.8701 H         1 UNK         0.0600 
    237 H237       -3.2801  -17.2295  -54.1872 H         1 UNK         0.0600 
    238 H238       -3.2424  -15.9808  -55.4308 H         1 UNK         0.0600 
    239 H239       -4.1965  -15.7439  -53.9749 H         1 UNK         0.0600 
    240 H240       -4.7192  -19.3741  -54.2617 H         1 UNK         0.3000 
    241 H241       -6.5878  -19.0601  -52.1216 H         1 UNK         0.0600 
    242 H242       -8.5897  -21.2872  -54.8955 H         1 UNK         0.3800 
    243 H243       -6.9862  -20.7322  -55.2917 H         1 UNK         0.3800 
    244 H244       -5.2521  -21.7166  -52.7393 H         1 UNK         0.0800 
    245 H245       -4.2608  -20.3838  -52.2662 H         1 UNK         0.0800 
    246 H246       -5.2837  -19.6406  -48.5597 H         1 UNK         0.0800 
    247 H247       -6.0256  -18.7779  -49.8774 H         1 UNK         0.0800 
@<TRIPOS>BOND
     1    1    2 1    
     2    1  127 1    
     3    1  128 1    
     4    1  129 1    
     5    2    3 2    
     6    2    4 am   BACKBONE|DICT|INTERRES
     7    4    5 1    
     8    4  130 1    
     9    5    6 1    
    10    5   65 1    
    11    5  131 1    
    12    6    7 1    
    13    6  132 1    
    14    6  133 1    
    15    7    8 1    
    16    8    9 1    
    17    8  134 1    
    18    8  135 1    
    19    9   10 ar   
    20    9   14 ar   
    21   10   11 ar   
    22   10  136 1    
    23   11   12 ar   
    24   11  126 1    
    25   12   13 ar   
    26   12  137 1    
    27   13   14 ar   
    28   13   15 1    
    29   14  138 1    
    30   15   16 1    
    31   15  139 1    
    32   15  140 1    
    33   16   17 1    
    34   17   18 1    
    35   17  141 1    
    36   17  142 1    
    37   18   19 1    
    38   18   67 1    
    39   18  143 1    
    40   19   20 am   BACKBONE|DICT|INTERRES
    41   19  144 1    
    42   20   21 2    
    43   20   22 1    
    44   22   23 1    
    45   22   24 1    
    46   22  145 1    
    47   23  146 1    
    48   23  147 1    
    49   23  148 1    
    50   24   25 am   BACKBONE|DICT|INTERRES
    51   24  149 1    
    52   25   26 2    
    53   25   27 1    
    54   27   28 1    
    55   27   29 1    
    56   27  150 1    
    57   28  151 1    
    58   28  152 1    
    59   28  153 1    
    60   29   30 am   BACKBONE|DICT|INTERRES
    61   29  154 1    
    62   30   31 2    
    63   30   32 1    
    64   32   33 1    
    65   32   34 1    
    66   32  155 1    
    67   33  156 1    
    68   33  157 1    
    69   33  158 1    
    70   34   35 am   BACKBONE|DICT|INTERRES
    71   34  159 1    
    72   35   36 2    
    73   35   37 1    
    74   37   38 1    
    75   37   39 1    
    76   37  160 1    
    77   38  161 1    
    78   38  162 1    
    79   38  163 1    
    80   39   40 am   BACKBONE|DICT|INTERRES
    81   39  164 1    
    82   40   41 2    
    83   40   42 1    
    84   42   43 1    
    85   42   44 1    
    86   42  165 1    
    87   43  166 1    
    88   43  167 1    
    89   43  168 1    
    90   44   45 am   BACKBONE|DICT|INTERRES
    91   44  169 1    
    92   45   46 2    
    93   45   47 1    
    94   47   48 1    
    95   47   49 1    
    96   47  170 1    
    97   48  171 1    
    98   48  172 1    
    99   48  173 1    
   100   49   50 am   BACKBONE|DICT|INTERRES
   101   49  174 1    
   102   50   51 2    
   103   50   52 1    
   104   52   53 1    
   105   52   54 1    
   106   52  175 1    
   107   53  176 1    
   108   53  177 1    
   109   53  178 1    
   110   54   55 am   BACKBONE|DICT|INTERRES
   111   54  179 1    
   112   55   56 2    
   113   55   57 1    
   114   57   58 1    
   115   57   59 1    
   116   57  180 1    
   117   58  181 1    
   118   58  182 1    
   119   58  183 1    
   120   59   60 am   BACKBONE|DICT|INTERRES
   121   59  184 1    
   122   60   61 2    
   123   60   62 1    
   124   62   63 1    
   125   62   64 1    
   126   62  185 1    
   127   63  186 1    
   128   63  187 1    
   129   63  188 1    
   130   64   65 am   BACKBONE|DICT|INTERRES
   131   64  189 1    
   132   65   66 2    
   133   67   68 2    
   134   67   69 am   BACKBONE|DICT|INTERRES
   135   69   70 1    
   136   69  190 1    
   137   70   71 1    
   138   70   72 1    
   139   70  191 1    
   140   71  192 1    
   141   71  193 1    
   142   71  194 1    
   143   72   73 2    
   144   72   74 am   BACKBONE|DICT|INTERRES
   145   74   75 1    
   146   74  195 1    
   147   75   76 1    
   148   75   77 1    
   149   75  196 1    
   150   76  197 1    
   151   76  198 1    
   152   76  199 1    
   153   77   78 2    
   154   77   79 am   BACKBONE|DICT|INTERRES
   155   79   80 1    
   156   79  200 1    
   157   80   81 1    
   158   80   82 1    
   159   80  201 1    
   160   81  202 1    
   161   81  203 1    
   162   81  204 1    
   163   82   83 2    
   164   82   84 am   BACKBONE|DICT|INTERRES
   165   84   85 1    
   166   84  205 1    
   167   85   86 1    
   168   85   87 1    
   169   85  206 1    
   170   86  207 1    
   171   86  208 1    
   172   86  209 1    
   173   87   88 2    
   174   87   89 am   BACKBONE|DICT|INTERRES
   175   89   90 1    
   176   89  210 1    
   177   90   91 1    
   178   90   92 1    
   179   90  211 1    
   180   91  212 1    
   181   91  213 1    
   182   91  214 1    
   183   92   93 2    
   184   92   94 am   BACKBONE|DICT|INTERRES
   185   94   95 1    
   186   94  215 1    
   187   95   96 1    
   188   95   97 1    
   189   95  216 1    
   190   96  217 1    
   191   96  218 1    
   192   96  219 1    
   193   97   98 2    
   194   97   99 am   BACKBONE|DICT|INTERRES
   195   99  100 1    
   196   99  220 1    
   197  100  101 1    
   198  100  102 1    
   199  100  221 1    
   200  101  222 1    
   201  101  223 1    
   202  101  224 1    
   203  102  103 2    
   204  102  104 am   BACKBONE|DICT|INTERRES
   205  104  105 1    
   206  104  225 1    
   207  105  106 1    
   208  105  107 1    
   209  105  226 1    
   210  106  227 1    
   211  106  228 1    
   212  106  229 1    
   213  107  108 2    
   214  107  109 am   BACKBONE|DICT|INTERRES
   215  109  110 1    
   216  109  230 1    
   217  110  111 1    
   218  110  112 1    
   219  110  231 1    
   220  111  232 1    
   221  111  233 1    
   222  111  234 1    
   223  112  113 2    
   224  112  114 am   BACKBONE|DICT|INTERRES
   225  114  115 1    
   226  114  235 1    
   227  115  116 1    
   228  115  117 1    
   229  115  236 1    
   230  116  237 1    
   231  116  238 1    
   232  116  239 1    
   233  117  118 2    
   234  117  119 am   BACKBONE|DICT|INTERRES
   235  119  120 1    
   236  119  240 1    
   237  120  121 1    
   238  120  124 1    
   239  120  241 1    
   240  121  122 am   BACKBONE|DICT|INTERRES
   241  121  123 2    
   242  122  242 1    
   243  122  243 1    
   244  124  125 1    
   245  124  244 1    
   246  124  245 1    
   247  125  126 1    
   248  126  246 1    
   249  126  247 1    
@<TRIPOS>SUBSTRUCTURE
     1 UNK         1 GROUP             0       ****    0 ROOT    
