@<TRIPOS>MOLECULE
3R540
247   249    1
SMALL
USER_CHARGES


@<TRIPOS>ATOM
      1 CA          4.1849  -11.5902  -51.2094 C.3       0 UNK        -0.1800 
      2 C           4.1424  -11.7778  -49.6998 C.2       0 UNK         0.5000 
      3 O           5.1411  -11.5335  -49.0211 O.2       0 UNK        -0.5000 
      4 N           2.9895  -12.2003  -49.1667 N.am      1 UNK        -0.5000 
      5 CA          2.7463  -12.4518  -47.7413 C.3       1 UNK         0.1400 
      6 C6          1.6022  -13.4742  -47.5259 C.3       23 UNK        -0.0398 
      7 S7          2.0748  -15.1427  -48.0881 S.3       23 UNK        -0.2404 
      8 C8          0.8683  -15.4754  -49.4103 C.3       23 UNK        -0.0205 
      9 C9          0.7456  -16.9744  -49.6269 C.ar      23 UNK        -0.0193 
     10 C10         1.3999  -17.6137  -50.6844 C.ar      23 UNK        -0.1150 
     11 C11         1.3376  -19.0062  -50.8213 C.ar      23 UNK        -0.0193 
     12 C12         0.6263  -19.7553  -49.8749 C.ar      23 UNK        -0.1150 
     13 C13        -0.0374  -19.1222  -48.8213 C.ar      23 UNK        -0.0193 
     14 C14         0.0068  -17.7329  -48.7193 C.ar      23 UNK        -0.1150 
     15 C15        -0.7556  -19.9319  -47.7585 C.3       23 UNK        -0.0205 
     16 S16        -2.5432  -20.0241  -48.0709 S.3       23 UNK        -0.2404 
     17 C17        -3.0659  -20.9899  -46.6183 C.3       23 UNK        -0.0398 
     18 CA         -2.5689  -22.4597  -46.6849 C.3       11 UNK         0.1400 
     19 N          -1.7700  -22.8202  -45.5046 N.am      11 UNK        -0.5000 
     20 C          -1.0052  -23.9158  -45.3947 C.2       10 UNK         0.5000 
     21 O          -1.0030  -24.8167  -46.2359 O.2       10 UNK        -0.5000 
     22 CA         -0.1201  -24.0397  -44.1350 C.3       10 UNK         0.1400 
     23 CB          1.1392  -24.8925  -44.3953 C.3       10 UNK        -0.1800 
     24 N           0.2480  -22.7602  -43.5084 N.am      10 UNK        -0.5000 
     25 C           0.9445  -21.7538  -44.0585 C.2       9 UNK         0.5000 
     26 O           1.3149  -21.7280  -45.2345 O.2       9 UNK        -0.5000 
     27 CA          1.3208  -20.5993  -43.1103 C.3       9 UNK         0.1400 
     28 CB          2.6756  -20.8725  -42.4396 C.3       9 UNK        -0.1800 
     29 N           1.4029  -19.3283  -43.8229 N.am      9 UNK        -0.5000 
     30 C           0.3528  -18.6030  -44.2179 C.2       8 UNK         0.5000 
     31 O          -0.8121  -18.9076  -43.9533 O.2       8 UNK        -0.5000 
     32 CA          0.6571  -17.3414  -45.0570 C.3       8 UNK         0.1400 
     33 CB         -0.5924  -16.4711  -45.2883 C.3       8 UNK        -0.1800 
     34 N           1.7092  -16.4997  -44.4867 N.am      8 UNK        -0.5000 
     35 C           3.0277  -16.7288  -44.5439 C.2       7 UNK         0.5000 
     36 O           3.5236  -17.7390  -45.0437 O.2       7 UNK        -0.5000 
     37 CA          3.9402  -15.6693  -43.9057 C.3       7 UNK         0.1400 
     38 CB          4.1175  -14.4633  -44.8414 C.3       7 UNK        -0.1800 
     39 N           3.3989  -15.2209  -42.6236 N.am      7 UNK        -0.5000 
     40 C           3.7201  -15.7578  -41.4382 C.2       6 UNK         0.5000 
     41 O           4.5854  -16.6215  -41.2904 O.2       6 UNK        -0.5000 
     42 CA          2.9382  -15.2607  -40.2059 C.3       6 UNK         0.1400 
     43 CB          3.6956  -14.1261  -39.5019 C.3       6 UNK        -0.1800 
     44 N           1.5852  -14.8084  -40.5335 N.am      6 UNK        -0.5000 
     45 C           0.5815  -15.6302  -40.8733 C.2       5 UNK         0.5000 
     46 O           0.6796  -16.8573  -40.8779 O.2       5 UNK        -0.5000 
     47 CA         -0.7526  -14.9836  -41.2978 C.3       5 UNK         0.1400 
     48 CB         -1.7381  -14.9722  -40.1195 C.3       5 UNK        -0.1800 
     49 N          -0.6413  -13.6224  -41.8332 N.am      5 UNK        -0.5000 
     50 C           0.0925  -13.2448  -42.8888 C.2       4 UNK         0.5000 
     51 O           0.8255  -14.0110  -43.5163 O.2       4 UNK        -0.5000 
     52 CA          0.0299  -11.7645  -43.3126 C.3       4 UNK         0.1400 
     53 CB         -0.8980  -10.8848  -42.4443 C.3       4 UNK        -0.1800 
     54 N           1.3700  -11.1806  -43.3939 N.am      4 UNK        -0.5000 
     55 C           2.2690  -11.0669  -42.4027 C.2       3 UNK         0.5000 
     56 O           2.0598  -11.4527  -41.2513 O.2       3 UNK        -0.5000 
     57 CA          3.6384  -10.4373  -42.7441 C.3       3 UNK         0.1400 
     58 CB          4.7934  -11.3512  -42.3025 C.3       3 UNK        -0.1800 
     59 N           3.7941  -10.1362  -44.1697 N.am      3 UNK        -0.5000 
     60 C           3.3697   -9.0164  -44.7718 C.2       2 UNK         0.5000 
     61 O           2.8469   -8.0753  -44.1744 O.2       2 UNK        -0.5000 
     62 CA          3.5257   -8.9498  -46.3049 C.3       2 UNK         0.1400 
     63 CB          4.8125   -8.2016  -46.6837 C.3       2 UNK        -0.1800 
     64 N           3.5286  -10.2618  -46.9605 N.am      2 UNK        -0.5000 
     65 C           2.5101  -11.1319  -46.9740 C.2       1 UNK         0.5000 
     66 O           1.4361  -10.9209  -46.4083 O.2       1 UNK        -0.5000 
     67 C          -3.6988  -23.4560  -47.0167 C.2       11 UNK         0.5000 
     68 O          -4.0890  -23.5643  -48.1815 O.2       11 UNK        -0.5000 
     69 N          -4.1468  -24.2207  -46.0109 N.am      12 UNK        -0.5000 
     70 CA         -5.0594  -25.3573  -46.1503 C.3       12 UNK         0.1400 
     71 CB         -5.3823  -25.9141  -44.7562 C.3       12 UNK        -0.1800 
     72 C          -4.5161  -26.4752  -47.0644 C.2       12 UNK         0.5000 
     73 O          -5.3090  -27.1570  -47.7131 O.2       12 UNK        -0.5000 
     74 N          -3.1855  -26.6213  -47.1170 N.am      13 UNK        -0.5000 
     75 CA         -2.4824  -27.5566  -47.9892 C.3       13 UNK         0.1400 
     76 CB         -1.4113  -28.2997  -47.1743 C.3       13 UNK        -0.1800 
     77 C          -1.8454  -26.8204  -49.1781 C.2       13 UNK         0.5000 
     78 O          -2.0301  -27.2451  -50.3183 O.2       13 UNK        -0.5000 
     79 N          -1.1118  -25.7328  -48.8969 N.am      14 UNK        -0.5000 
     80 CA         -0.2808  -25.0107  -49.8651 C.3       14 UNK         0.1400 
     81 CB          0.6127  -24.0044  -49.1227 C.3       14 UNK        -0.1800 
     82 C          -1.0734  -24.3078  -50.9808 C.2       14 UNK         0.5000 
     83 O          -0.6088  -24.2794  -52.1206 O.2       14 UNK        -0.5000 
     84 N          -2.2521  -23.7723  -50.6403 N.am      15 UNK        -0.5000 
     85 CA         -3.1493  -23.0874  -51.5715 C.3       15 UNK         0.1400 
     86 CB         -3.3255  -21.6330  -51.1112 C.3       15 UNK        -0.1800 
     87 C          -4.5098  -23.7931  -51.6814 C.2       15 UNK         0.5000 
     88 O          -5.4248  -23.2289  -52.2848 O.2       15 UNK        -0.5000 
     89 N          -4.6339  -24.9880  -51.0839 N.am      16 UNK        -0.5000 
     90 CA         -5.8481  -25.8047  -50.9858 C.3       16 UNK         0.1400 
     91 CB         -6.2317  -26.3639  -52.3720 C.3       16 UNK        -0.1800 
     92 C          -7.0090  -25.0561  -50.2948 C.2       16 UNK         0.5000 
     93 O          -8.1462  -25.1177  -50.7609 O.2       16 UNK        -0.5000 
     94 N          -6.6850  -24.3122  -49.2253 N.am      17 UNK        -0.5000 
     95 CA         -7.5720  -23.4072  -48.4815 C.3       17 UNK         0.1400 
     96 CB         -8.7249  -24.1763  -47.8018 C.3       17 UNK        -0.1800 
     97 C          -8.0496  -22.2272  -49.3533 C.2       17 UNK         0.5000 
     98 O          -9.2133  -21.8292  -49.2895 O.2       17 UNK        -0.5000 
     99 N          -7.1173  -21.7133  -50.1680 N.am      18 UNK        -0.5000 
    100 CA        -7.2545  -20.6349  -51.1511 C.3       18 UNK         0.1400 
    101 CB        -7.7302  -19.3230  -50.4943 C.3       18 UNK        -0.1800 
    102 C         -8.0794  -21.0078  -52.4014 C.2       18 UNK         0.5000 
    103 O         -8.3526  -20.1267  -53.2170 O.2       18 UNK        -0.5000 
    104 N         -8.4219  -22.2934  -52.5751 N.am      19 UNK        -0.5000 
    105 CA        -9.1130  -22.8042  -53.7617 C.3       19 UNK         0.1400 
    106 CB        -9.7162  -24.1834  -53.4601 C.3       19 UNK        -0.1800 
    107 C         -8.1912  -22.8763  -54.9933 C.2       19 UNK         0.5000 
    108 O         -8.6522  -22.6245  -56.1072 O.2       19 UNK        -0.5000 
    109 N         -6.9083  -23.1966  -54.7715 N.am      20 UNK        -0.5000 
    110 CA        -5.8641  -23.1989  -55.7997 C.3       20 UNK         0.1400 
    111 CB        -4.9066  -24.3734  -55.5408 C.3       20 UNK        -0.1800 
    112 C         -5.0887  -21.8680  -55.8297 C.2       20 UNK         0.5000 
    113 O         -4.3430  -21.6243  -56.7795 O.2       20 UNK        -0.5000 
    114 N         -5.2500  -21.0471  -54.7784 N.am      21 UNK        -0.5000 
    115 CA        -4.6814  -19.7045  -54.5840 C.3       21 UNK         0.1400 
    116 CB        -5.3156  -18.7116  -55.5785 C.3       21 UNK        -0.1800 
    117 C         -3.1364  -19.6580  -54.6088 C.2       21 UNK         0.5000 
    118 O         -2.5555  -18.6020  -54.8628 O.2       21 UNK        -0.5000 
    119 N         -2.5053  -20.8098  -54.3464 N.am      22 UNK        -0.5000 
    120 CA        -1.0592  -21.0570  -54.4496 C.3       22 UNK         0.1400 
    121 C         -0.5200  -21.0706  -55.9159 C.2       22 UNK         0.5000 
    122 N         -1.3658  -21.2160  -56.9313 N.am      22 UNK        -0.7600 
    123 O          0.6820  -20.9735  -56.1467 O.2       22 UNK        -0.5000 
    124 C124       -0.2300  -20.1644  -53.4799 C.3       23 UNK        -0.0398 
    125 S125        1.1803  -21.0567  -52.7455 S.3       23 UNK        -0.2404 
    126 C126        2.0942  -19.6880  -51.9587 C.3       23 UNK        -0.0205 
    127 H127        3.2339  -11.8467  -51.6769 H         1 UNK         0.0600 
    128 H128        4.9588  -12.2229  -51.6438 H         1 UNK         0.0600 
    129 H129        4.4148  -10.5527  -51.4520 H         1 UNK         0.0600 
    130 H130        2.1997  -12.3597  -49.7751 H         1 UNK         0.3000 
    131 H131        3.6525  -12.8865  -47.3148 H         1 UNK         0.0600 
    132 H132        0.6890  -13.1441  -48.0231 H         1 UNK         0.0800 
    133 H133        1.3528  -13.5619  -46.4665 H         1 UNK         0.0800 
    134 H134       -0.1085  -15.0717  -49.1395 H         1 UNK         0.0800 
    135 H135        1.1776  -14.9702  -50.3264 H         1 UNK         0.0800 
    136 H136        1.9775  -17.0284  -51.3860 H         1 UNK         0.1150 
    137 H137        0.5985  -20.8331  -49.9503 H         1 UNK         0.1150 
    138 H138       -0.5040  -17.2391  -47.9079 H         1 UNK         0.1150 
    139 H139       -0.3235  -20.9312  -47.7041 H         1 UNK         0.0800 
    140 H140       -0.5907  -19.4822  -46.7812 H         1 UNK         0.0800 
    141 H141       -4.1529  -20.9251  -46.5393 H         1 UNK         0.0800 
    142 H142       -2.6869  -20.4794  -45.7312 H         1 UNK         0.0800 
    143 H143       -1.8871  -22.5618  -47.5288 H         1 UNK         0.0600 
    144 H144       -1.7228  -22.1363  -44.7633 H         1 UNK         0.3000 
    145 H145       -0.7272  -24.5715  -43.4013 H         1 UNK         0.0600 
    146 H146        0.8735  -25.9008  -44.7156 H         1 UNK         0.0600 
    147 H147        1.7667  -24.4580  -45.1743 H         1 UNK         0.0600 
    148 H148        1.7433  -24.9904  -43.4934 H         1 UNK         0.0600 
    149 H149       -0.0157  -22.6737  -42.5362 H         1 UNK         0.3000 
    150 H150        0.5591  -20.5146  -42.3321 H         1 UNK         0.0600 
    151 H151        2.9396  -20.0737  -41.7458 H         1 UNK         0.0600 
    152 H152        3.4778  -20.9569  -43.1741 H         1 UNK         0.0600 
    153 H153        2.6515  -21.8027  -41.8706 H         1 UNK         0.0600 
    154 H154        2.3214  -19.0340  -44.1374 H         1 UNK         0.3000 
    155 H155        1.0034  -17.6921  -46.0304 H         1 UNK         0.0600 
    156 H156       -0.9809  -16.0704  -44.3532 H         1 UNK         0.0600 
    157 H157       -1.3953  -17.0433  -45.7546 H         1 UNK         0.0600 
    158 H158       -0.3699  -15.6290  -45.9439 H         1 UNK         0.0600 
    159 H159        1.3916  -15.6317  -44.0614 H         1 UNK         0.3000 
    160 H160        4.9231  -16.1230  -43.7619 H         1 UNK         0.0600 
    161 H161        4.9160  -13.8104  -44.4919 H         1 UNK         0.0600 
    162 H162        3.2058  -13.8710  -44.9157 H         1 UNK         0.0600 
    163 H163        4.3876  -14.7865  -45.8476 H         1 UNK         0.0600 
    164 H164        2.6294  -14.5634  -42.6657 H         1 UNK         0.3000 
    165 H165        2.8604  -16.0966  -39.5073 H         1 UNK         0.0600 
    166 H166        3.1859  -13.8179  -38.5889 H         1 UNK         0.0600 
    167 H167        4.7019  -14.4410  -39.2227 H         1 UNK         0.0600 
    168 H168        3.7914  -13.2513  -40.1433 H         1 UNK         0.0600 
    169 H169        1.4311  -13.8090  -40.5645 H         1 UNK         0.3000 
    170 H170       -1.1756  -15.6110  -42.0835 H         1 UNK         0.0600 
    171 H171       -1.8713  -15.9747  -39.7104 H         1 UNK         0.0600 
    172 H172       -1.3879  -14.3310  -39.3096 H         1 UNK         0.0600 
    173 H173       -2.7212  -14.6173  -40.4294 H         1 UNK         0.0600 
    174 H174       -1.1876  -12.9157  -41.3627 H         1 UNK         0.3000 
    175 H175       -0.3675  -11.7604  -44.3285 H         1 UNK         0.0600 
    176 H176       -0.5810  -10.8506  -41.4014 H         1 UNK         0.0600 
    177 H177       -0.9149   -9.8596  -42.8144 H         1 UNK         0.0600 
    178 H178       -1.9262  -11.2478  -42.4711 H         1 UNK         0.0600 
    179 H179        1.6392  -10.8764  -44.3220 H         1 UNK         0.3000 
    180 H180        3.7150   -9.5076  -42.1766 H         1 UNK         0.0600 
    181 H181        4.6873  -12.3599  -42.7000 H         1 UNK         0.0600 
    182 H182        4.8295  -11.4298  -41.2159 H         1 UNK         0.0600 
    183 H183        5.7581  -10.9592  -42.6251 H         1 UNK         0.0600 
    184 H184        4.2169  -10.8530  -44.7406 H         1 UNK         0.3000 
    185 H185        2.6751   -8.3868  -46.6944 H         1 UNK         0.0600 
    186 H186        4.8332   -7.2067  -46.2368 H         1 UNK         0.0600 
    187 H187        5.7017   -8.7338  -46.3433 H         1 UNK         0.0600 
    188 H188        4.8909   -8.0735  -47.7635 H         1 UNK         0.0600 
    189 H189        4.3589  -10.5089  -47.4907 H         1 UNK         0.3000 
    190 H190       -3.7649  -24.0624  -45.0901 H         1 UNK         0.3000 
    191 H191       -5.9868  -24.9913  -46.5895 H         1 UNK         0.0600 
    192 H192       -4.4866  -26.2757  -44.2496 H         1 UNK         0.0600 
    193 H193       -6.0822  -26.7483  -44.8215 H         1 UNK         0.0600 
    194 H194       -5.8433  -25.1545  -44.1246 H         1 UNK         0.0600 
    195 H195       -2.6018  -25.9904  -46.5793 H         1 UNK         0.3000 
    196 H196       -3.1733  -28.3019  -48.3890 H         1 UNK         0.0600 
    197 H197       -1.8640  -28.8761  -46.3674 H         1 UNK         0.0600 
    198 H198       -0.6890  -27.6143  -46.7287 H         1 UNK         0.0600 
    199 H199       -0.8577  -28.9989  -47.8023 H         1 UNK         0.0600 
    200 H200       -1.0179  -25.4443  -47.9252 H         1 UNK         0.3000 
    201 H201        0.3710  -25.7440  -50.3446 H         1 UNK         0.0600 
    202 H202        1.2351  -24.5018  -48.3786 H         1 UNK         0.0600 
    203 H203        0.0266  -23.2430  -48.6105 H         1 UNK         0.0600 
    204 H204        1.2808  -23.4904  -49.8152 H         1 UNK         0.0600 
    205 H205       -2.5765  -23.8444  -49.6835 H         1 UNK         0.3000 
    206 H206       -2.7289  -23.0796  -52.5774 H         1 UNK         0.0600 
    207 H207       -2.3620  -21.1344  -51.0018 H         1 UNK         0.0600 
    208 H208       -3.9070  -21.0558  -51.8287 H         1 UNK         0.0600 
    209 H209       -3.8445  -21.5803  -50.1545 H         1 UNK         0.0600 
    210 H210       -3.8113  -25.3745  -50.6434 H         1 UNK         0.3000 
    211 H211       -5.6028  -26.6525  -50.3456 H         1 UNK         0.0600 
    212 H212       -6.5331  -25.5751  -53.0606 H         1 UNK         0.0600 
    213 H213       -7.0637  -27.0647  -52.2946 H         1 UNK         0.0600 
    214 H214       -5.3976  -26.9003  -52.8242 H         1 UNK         0.0600 
    215 H215       -5.7070  -24.2734  -48.9518 H         1 UNK         0.3000 
    216 H216       -6.9631  -22.9671  -47.6906 H         1 UNK         0.0600 
    217 H217       -9.2770  -23.5260  -47.1224 H         1 UNK         0.0600 
    218 H218       -8.3520  -25.0158  -47.2155 H         1 UNK         0.0600 
    219 H219       -9.4389  -24.5668  -48.5272 H         1 UNK         0.0600 
    220 H220       -6.2150  -22.1667  -50.1664 H         1 UNK         0.3000 
    221 H221       -6.2443  -20.4548  -51.5190 H         1 UNK         0.0600 
    222 H222       -8.7712  -19.3805  -50.1762 H         1 UNK         0.0600 
    223 H223       -7.1241  -19.0755  -49.6228 H         1 UNK         0.0600 
    224 H224       -7.6508  -18.4868  -51.1898 H         1 UNK         0.0600 
    225 H225       -8.1548  -22.9714  -51.8737 H         1 UNK         0.3000 
    226 H226       -9.9347  -22.1244  -53.9973 H         1 UNK         0.0600 
    227 H227      -10.3558  -24.1526  -52.5778 H         1 UNK         0.0600 
    228 H228      -10.3270  -24.5305  -54.2943 H         1 UNK         0.0600 
    229 H229       -8.9439  -24.9335  -53.2893 H         1 UNK         0.0600 
    230 H230       -6.5988  -23.3662  -53.8184 H         1 UNK         0.3000 
    231 H231       -6.3098  -23.3410  -56.7863 H         1 UNK         0.0600 
    232 H232       -5.4437  -25.3217  -55.5189 H         1 UNK         0.0600 
    233 H233       -4.3760  -24.2678  -54.5954 H         1 UNK         0.0600 
    234 H234       -4.1560  -24.4447  -56.3289 H         1 UNK         0.0600 
    235 H235       -5.8663  -21.3701  -54.0473 H         1 UNK         0.3000 
    236 H236       -4.9732  -19.3934  -53.5801 H         1 UNK         0.0600 
    237 H237       -5.0216  -18.9266  -56.6063 H         1 UNK         0.0600 
    238 H238       -6.4040  -18.7455  -55.5264 H         1 UNK         0.0600 
    239 H239       -5.0145  -17.6866  -55.3590 H         1 UNK         0.0600 
    240 H240       -3.0793  -21.6232  -54.1907 H         1 UNK         0.3000 
    241 H241       -0.9520  -22.0904  -54.1179 H         1 UNK         0.0600 
    242 H242       -2.3656  -21.3050  -56.7814 H         1 UNK         0.3800 
    243 H243       -1.0046  -21.2313  -57.8718 H         1 UNK         0.3800 
    244 H244       -0.8519  -19.8288  -52.6489 H         1 UNK         0.0800 
    245 H245        0.1174  -19.2567  -53.9763 H         1 UNK         0.0800 
    246 H246        2.3652  -18.9640  -52.7287 H         1 UNK         0.0800 
    247 H247        3.0310  -20.0797  -51.5610 H         1 UNK         0.0800 
@<TRIPOS>BOND
     1    1    2 1    
     2    1  127 1    
     3    1  128 1    
     4    1  129 1    
     5    2    3 2    
     6    2    4 am   BACKBONE|DICT|INTERRES
     7    4    5 1    
     8    4  130 1    
     9    5    6 1    
    10    5   65 1    
    11    5  131 1    
    12    6    7 1    
    13    6  132 1    
    14    6  133 1    
    15    7    8 1    
    16    8    9 1    
    17    8  134 1    
    18    8  135 1    
    19    9   10 ar   
    20    9   14 ar   
    21   10   11 ar   
    22   10  136 1    
    23   11   12 ar   
    24   11  126 1    
    25   12   13 ar   
    26   12  137 1    
    27   13   14 ar   
    28   13   15 1    
    29   14  138 1    
    30   15   16 1    
    31   15  139 1    
    32   15  140 1    
    33   16   17 1    
    34   17   18 1    
    35   17  141 1    
    36   17  142 1    
    37   18   19 1    
    38   18   67 1    
    39   18  143 1    
    40   19   20 am   BACKBONE|DICT|INTERRES
    41   19  144 1    
    42   20   21 2    
    43   20   22 1    
    44   22   23 1    
    45   22   24 1    
    46   22  145 1    
    47   23  146 1    
    48   23  147 1    
    49   23  148 1    
    50   24   25 am   BACKBONE|DICT|INTERRES
    51   24  149 1    
    52   25   26 2    
    53   25   27 1    
    54   27   28 1    
    55   27   29 1    
    56   27  150 1    
    57   28  151 1    
    58   28  152 1    
    59   28  153 1    
    60   29   30 am   BACKBONE|DICT|INTERRES
    61   29  154 1    
    62   30   31 2    
    63   30   32 1    
    64   32   33 1    
    65   32   34 1    
    66   32  155 1    
    67   33  156 1    
    68   33  157 1    
    69   33  158 1    
    70   34   35 am   BACKBONE|DICT|INTERRES
    71   34  159 1    
    72   35   36 2    
    73   35   37 1    
    74   37   38 1    
    75   37   39 1    
    76   37  160 1    
    77   38  161 1    
    78   38  162 1    
    79   38  163 1    
    80   39   40 am   BACKBONE|DICT|INTERRES
    81   39  164 1    
    82   40   41 2    
    83   40   42 1    
    84   42   43 1    
    85   42   44 1    
    86   42  165 1    
    87   43  166 1    
    88   43  167 1    
    89   43  168 1    
    90   44   45 am   BACKBONE|DICT|INTERRES
    91   44  169 1    
    92   45   46 2    
    93   45   47 1    
    94   47   48 1    
    95   47   49 1    
    96   47  170 1    
    97   48  171 1    
    98   48  172 1    
    99   48  173 1    
   100   49   50 am   BACKBONE|DICT|INTERRES
   101   49  174 1    
   102   50   51 2    
   103   50   52 1    
   104   52   53 1    
   105   52   54 1    
   106   52  175 1    
   107   53  176 1    
   108   53  177 1    
   109   53  178 1    
   110   54   55 am   BACKBONE|DICT|INTERRES
   111   54  179 1    
   112   55   56 2    
   113   55   57 1    
   114   57   58 1    
   115   57   59 1    
   116   57  180 1    
   117   58  181 1    
   118   58  182 1    
   119   58  183 1    
   120   59   60 am   BACKBONE|DICT|INTERRES
   121   59  184 1    
   122   60   61 2    
   123   60   62 1    
   124   62   63 1    
   125   62   64 1    
   126   62  185 1    
   127   63  186 1    
   128   63  187 1    
   129   63  188 1    
   130   64   65 am   BACKBONE|DICT|INTERRES
   131   64  189 1    
   132   65   66 2    
   133   67   68 2    
   134   67   69 am   BACKBONE|DICT|INTERRES
   135   69   70 1    
   136   69  190 1    
   137   70   71 1    
   138   70   72 1    
   139   70  191 1    
   140   71  192 1    
   141   71  193 1    
   142   71  194 1    
   143   72   73 2    
   144   72   74 am   BACKBONE|DICT|INTERRES
   145   74   75 1    
   146   74  195 1    
   147   75   76 1    
   148   75   77 1    
   149   75  196 1    
   150   76  197 1    
   151   76  198 1    
   152   76  199 1    
   153   77   78 2    
   154   77   79 am   BACKBONE|DICT|INTERRES
   155   79   80 1    
   156   79  200 1    
   157   80   81 1    
   158   80   82 1    
   159   80  201 1    
   160   81  202 1    
   161   81  203 1    
   162   81  204 1    
   163   82   83 2    
   164   82   84 am   BACKBONE|DICT|INTERRES
   165   84   85 1    
   166   84  205 1    
   167   85   86 1    
   168   85   87 1    
   169   85  206 1    
   170   86  207 1    
   171   86  208 1    
   172   86  209 1    
   173   87   88 2    
   174   87   89 am   BACKBONE|DICT|INTERRES
   175   89   90 1    
   176   89  210 1    
   177   90   91 1    
   178   90   92 1    
   179   90  211 1    
   180   91  212 1    
   181   91  213 1    
   182   91  214 1    
   183   92   93 2    
   184   92   94 am   BACKBONE|DICT|INTERRES
   185   94   95 1    
   186   94  215 1    
   187   95   96 1    
   188   95   97 1    
   189   95  216 1    
   190   96  217 1    
   191   96  218 1    
   192   96  219 1    
   193   97   98 2    
   194   97   99 am   BACKBONE|DICT|INTERRES
   195   99  100 1    
   196   99  220 1    
   197  100  101 1    
   198  100  102 1    
   199  100  221 1    
   200  101  222 1    
   201  101  223 1    
   202  101  224 1    
   203  102  103 2    
   204  102  104 am   BACKBONE|DICT|INTERRES
   205  104  105 1    
   206  104  225 1    
   207  105  106 1    
   208  105  107 1    
   209  105  226 1    
   210  106  227 1    
   211  106  228 1    
   212  106  229 1    
   213  107  108 2    
   214  107  109 am   BACKBONE|DICT|INTERRES
   215  109  110 1    
   216  109  230 1    
   217  110  111 1    
   218  110  112 1    
   219  110  231 1    
   220  111  232 1    
   221  111  233 1    
   222  111  234 1    
   223  112  113 2    
   224  112  114 am   BACKBONE|DICT|INTERRES
   225  114  115 1    
   226  114  235 1    
   227  115  116 1    
   228  115  117 1    
   229  115  236 1    
   230  116  237 1    
   231  116  238 1    
   232  116  239 1    
   233  117  118 2    
   234  117  119 am   BACKBONE|DICT|INTERRES
   235  119  120 1    
   236  119  240 1    
   237  120  121 1    
   238  120  124 1    
   239  120  241 1    
   240  121  122 am   BACKBONE|DICT|INTERRES
   241  121  123 2    
   242  122  242 1    
   243  122  243 1    
   244  124  125 1    
   245  124  244 1    
   246  124  245 1    
   247  125  126 1    
   248  126  246 1    
   249  126  247 1    
@<TRIPOS>SUBSTRUCTURE
     1 UNK         1 GROUP             0       ****    0 ROOT    
