@<TRIPOS>MOLECULE
3R540
247   249    1
SMALL
USER_CHARGES


@<TRIPOS>ATOM
      1 CA         -5.8231  -18.4277  -47.3482 C.3       0 UNK        -0.1800 
      2 C          -4.7113  -17.4412  -47.6776 C.2       0 UNK         0.5000 
      3 O          -4.6608  -16.9307  -48.7960 O.2       0 UNK        -0.5000 
      4 N          -3.8215  -17.1774  -46.7118 N.am      1 UNK        -0.5000 
      5 CA         -2.7243  -16.2105  -46.8162 C.3       1 UNK         0.1400 
      6 C6         -1.7749  -16.2733  -45.5920 C.3       23 UNK        -0.0398 
      7 S7         -0.9558  -17.8883  -45.3513 S.3       23 UNK        -0.2404 
      8 C8          0.7680  -17.4968  -45.7947 C.3       23 UNK        -0.0205 
      9 C9          0.9925  -17.6448  -47.2914 C.ar      23 UNK        -0.0193 
     10 C10         0.7374  -16.5875  -48.1664 C.ar      23 UNK        -0.1150 
     11 C11         0.8741  -16.7656  -49.5463 C.ar      23 UNK        -0.0193 
     12 C12         1.2496  -18.0160  -50.0508 C.ar      23 UNK        -0.1150 
     13 C13         1.5211  -19.0780  -49.1844 C.ar      23 UNK        -0.0193 
     14 C14         1.4312  -18.8650  -47.8061 C.ar      23 UNK        -0.1150 
     15 C15         1.9181  -20.4468  -49.7326 C.3       23 UNK        -0.0205 
     16 S16         0.5508  -21.6629  -49.6785 S.3       23 UNK        -0.2404 
     17 C17         0.4228  -21.9306  -47.8812 C.3       23 UNK        -0.0398 
     18 CA         -0.3691  -23.1719  -47.4141 C.3       11 UNK         0.1400 
     19 N           0.0759  -23.5614  -46.0726 N.am      11 UNK        -0.5000 
     20 C          -0.3147  -24.6461  -45.3893 C.2       10 UNK         0.5000 
     21 O          -1.0791  -25.4968  -45.8395 O.2       10 UNK        -0.5000 
     22 CA          0.1925  -24.7745  -43.9371 C.3       10 UNK         0.1400 
     23 CB          1.5011  -25.5765  -43.8977 C.3       10 UNK        -0.1800 
     24 N           0.4022  -23.4837  -43.2767 N.am      10 UNK        -0.5000 
     25 C          -0.5371  -22.5443  -43.0926 C.2       9 UNK         0.5000 
     26 O          -1.7245  -22.7131  -43.3726 O.2       9 UNK        -0.5000 
     27 CA         -0.0667  -21.1683  -42.5726 C.3       9 UNK         0.1400 
     28 CB         -0.3556  -21.0359  -41.0707 C.3       9 UNK        -0.1800 
     29 N           1.3512  -20.8675  -42.8150 N.am      9 UNK        -0.5000 
     30 C           1.9576  -20.8452  -44.0086 C.2       8 UNK         0.5000 
     31 O           1.3757  -21.1101  -45.0597 O.2       8 UNK        -0.5000 
     32 CA          3.4609  -20.4980  -44.0221 C.3       8 UNK         0.1400 
     33 CB          4.1180  -20.7837  -45.3847 C.3       8 UNK        -0.1800 
     34 N           3.7335  -19.1073  -43.6605 N.am      8 UNK        -0.5000 
     35 C           3.6457  -18.5733  -42.4386 C.2       7 UNK         0.5000 
     36 O           3.2465  -19.2036  -41.4576 O.2       7 UNK        -0.5000 
     37 CA          4.0906  -17.1074  -42.2474 C.3       7 UNK         0.1400 
     38 CB          5.5093  -17.0533  -41.6507 C.3       7 UNK        -0.1800 
     39 N           3.9963  -16.2046  -43.4063 N.am      7 UNK        -0.5000 
     40 C           4.6459  -16.2408  -44.5816 C.2       6 UNK         0.5000 
     41 O           5.3224  -17.1968  -44.9595 O.2       6 UNK        -0.5000 
     42 CA          4.5524  -14.9904  -45.4851 C.3       6 UNK         0.1400 
     43 CB          3.6228  -15.2202  -46.6846 C.3       6 UNK        -0.1800 
     44 N           4.1177  -13.7870  -44.7736 N.am      6 UNK        -0.5000 
     45 C           4.8751  -13.0995  -43.9068 C.2       5 UNK         0.5000 
     46 O           6.0582  -13.3567  -43.6823 O.2       5 UNK        -0.5000 
     47 CA          4.1962  -11.9441  -43.1430 C.3       5 UNK         0.1400 
     48 CB          4.5294  -10.5974  -43.8033 C.3       5 UNK        -0.1800 
     49 N           2.7393  -12.0646  -43.0287 N.am      5 UNK        -0.5000 
     50 C           2.0750  -13.0597  -42.4222 C.2       4 UNK         0.5000 
     51 O           2.6258  -14.0266  -41.8969 O.2       4 UNK        -0.5000 
     52 CA          0.5365  -12.9784  -42.4231 C.3       4 UNK         0.1400 
     53 CB          0.0254  -12.4925  -41.0585 C.3       4 UNK        -0.1800 
     54 N          -0.0046  -12.1091  -43.4719 N.am      4 UNK        -0.5000 
     55 C           0.0105  -12.3961  -44.7788 C.2       3 UNK         0.5000 
     56 O           0.5096  -13.4194  -45.2544 O.2       3 UNK        -0.5000 
     57 CA         -0.6149  -11.3550  -45.7123 C.3       3 UNK         0.1400 
     58 CB          0.4677  -10.4883  -46.3732 C.3       3 UNK        -0.1800 
     59 N          -1.3703  -12.0653  -46.7332 N.am      3 UNK        -0.5000 
     60 C          -2.5378  -11.6717  -47.2535 C.2       2 UNK         0.5000 
     61 O          -3.0774  -10.5963  -46.9902 O.2       2 UNK        -0.5000 
     62 CA         -3.2298  -12.6484  -48.2229 C.3       2 UNK         0.1400 
     63 CB         -2.9188  -12.2669  -49.6771 C.3       2 UNK        -0.1800 
     64 N          -2.8518  -14.0470  -47.9915 N.am      2 UNK        -0.5000 
     65 C          -3.2829  -14.7775  -46.9550 C.2       1 UNK         0.5000 
     66 O          -4.0716  -14.3552  -46.1064 O.2       1 UNK        -0.5000 
     67 C          -1.8861  -22.8903  -47.4445 C.2       11 UNK         0.5000 
     68 O          -2.5666  -23.2832  -48.3921 O.2       11 UNK        -0.5000 
     69 N          -2.3903  -22.2279  -46.3940 N.am      12 UNK        -0.5000 
     70 CA         -3.8085  -21.9395  -46.2059 C.3       12 UNK         0.1400 
     71 CB         -3.9721  -20.7864  -45.2052 C.3       12 UNK        -0.1800 
     72 C          -4.5829  -23.1863  -45.7527 C.2       12 UNK         0.5000 
     73 O          -5.6708  -23.4369  -46.2698 O.2       12 UNK        -0.5000 
     74 N          -3.9967  -23.9651  -44.8312 N.am      13 UNK        -0.5000 
     75 CA         -4.5713  -25.2047  -44.2988 C.3       13 UNK         0.1400 
     76 CB         -3.7028  -25.7188  -43.1418 C.3       13 UNK        -0.1800 
     77 C          -4.7549  -26.2995  -45.3681 C.2       13 UNK         0.5000 
     78 O          -5.7824  -26.9779  -45.3736 O.2       13 UNK        -0.5000 
     79 N          -3.7756  -26.4260  -46.2740 N.am      14 UNK        -0.5000 
     80 CA         -3.8150  -27.3252  -47.4303 C.3       14 UNK         0.1400 
     81 CB         -2.3756  -27.5725  -47.9105 C.3       14 UNK        -0.1800 
     82 C          -4.6745  -26.7891  -48.5939 C.2       14 UNK         0.5000 
     83 O          -4.9053  -27.5252  -49.5535 O.2       14 UNK        -0.5000 
     84 N          -5.0977  -25.5183  -48.5079 N.am      15 UNK        -0.5000 
     85 CA         -5.8279  -24.7400  -49.5147 C.3       15 UNK         0.1400 
     86 CB         -7.2110  -25.3558  -49.8089 C.3       15 UNK        -0.1800 
     87 C          -5.0133  -24.4635  -50.7962 C.2       15 UNK         0.5000 
     88 O          -5.5904  -24.0974  -51.8196 O.2       15 UNK        -0.5000 
     89 N          -3.6819  -24.5852  -50.7124 N.am      16 UNK        -0.5000 
     90 CA         -2.7374  -24.2491  -51.7760 C.3       16 UNK         0.1400 
     91 CB         -1.3375  -24.7533  -51.3956 C.3       16 UNK        -0.1800 
     92 C          -2.7194  -22.7382  -52.0592 C.2       16 UNK         0.5000 
     93 O          -2.6848  -22.3376  -53.2218 O.2       16 UNK        -0.5000 
     94 N          -2.8056  -21.9326  -50.9900 N.am      17 UNK        -0.5000 
     95 CA         -2.9127  -20.4743  -51.0441 C.3       17 UNK         0.1400 
     96 CB         -2.8568  -19.9046  -49.6201 C.3       17 UNK        -0.1800 
     97 C          -4.1849  -20.0098  -51.7759 C.2       17 UNK         0.5000 
     98 O          -4.1179  -19.0879  -52.5905 O.2       17 UNK        -0.5000 
     99 N          -5.3063  -20.6959  -51.5124 N.am      18 UNK        -0.5000 
    100 CA        -6.5817  -20.4905  -52.1984 C.3       18 UNK         0.1400 
    101 CB        -7.6991  -21.2189  -51.4365 C.3       18 UNK        -0.1800 
    102 C         -6.5280  -20.9393  -53.6709 C.2       18 UNK         0.5000 
    103 O         -7.0656  -20.2482  -54.5365 O.2       18 UNK        -0.5000 
    104 N         -5.8290  -22.0499  -53.9425 N.am      19 UNK        -0.5000 
    105 CA        -5.5561  -22.6010  -55.2730 C.3       19 UNK         0.1400 
    106 CB        -5.2501  -24.1029  -55.1393 C.3       19 UNK        -0.1800 
    107 C         -4.4497  -21.8335  -56.0360 C.2       19 UNK         0.5000 
    108 O         -3.5540  -22.4465  -56.6189 O.2       19 UNK        -0.5000 
    109 N         -4.5560  -20.4992  -56.0378 N.am      20 UNK        -0.5000 
    110 CA        -3.7862  -19.5204  -56.8096 C.3       20 UNK         0.1400 
    111 CB        -3.9503  -19.7655  -58.3245 C.3       20 UNK        -0.1800 
    112 C         -2.3064  -19.3362  -56.4119 C.2       20 UNK         0.5000 
    113 O         -1.6261  -18.5450  -57.0680 O.2       20 UNK        -0.5000 
    114 N         -1.8201  -19.9892  -55.3426 N.am      21 UNK        -0.5000 
    115 CA        -0.4784  -19.7200  -54.7989 C.3       21 UNK         0.1400 
    116 CB         0.0143  -20.8988  -53.9461 C.3       21 UNK        -0.1800 
    117 C         -0.4173  -18.3991  -54.0023 C.2       21 UNK         0.5000 
    118 O          0.6756  -17.8750  -53.7857 O.2       21 UNK        -0.5000 
    119 N         -1.5833  -17.8791  -53.6027 N.am      22 UNK        -0.5000 
    120 CA        -1.7697  -16.5708  -52.9697 C.3       22 UNK         0.1400 
    121 C         -3.0133  -15.8427  -53.5438 C.2       22 UNK         0.5000 
    122 N         -4.1459  -16.5195  -53.6945 N.am      22 UNK        -0.7600 
    123 O         -2.9461  -14.6645  -53.8821 O.2       22 UNK        -0.5000 
    124 C124       -1.8252  -16.6902  -51.4263 C.3       23 UNK        -0.0398 
    125 S125       -1.1668  -15.2114  -50.5938 S.3       23 UNK        -0.2404 
    126 C126        0.6047  -15.6074  -50.4918 C.3       23 UNK        -0.0205 
    127 H127       -5.6423  -19.3821  -47.8418 H         1 UNK         0.0600 
    128 H128       -6.7818  -18.0418  -47.6949 H         1 UNK         0.0600 
    129 H129       -5.9012  -18.6023  -46.2754 H         1 UNK         0.0600 
    130 H130       -3.9211  -17.6186  -45.8098 H         1 UNK         0.3000 
    131 H131       -2.1512  -16.4554  -47.7130 H         1 UNK         0.0600 
    132 H132       -1.0117  -15.4997  -45.6714 H         1 UNK         0.0800 
    133 H133       -2.3236  -16.0478  -44.6757 H         1 UNK         0.0800 
    134 H134        1.4284  -18.1756  -45.2553 H         1 UNK         0.0800 
    135 H135        1.0274  -16.4962  -45.4508 H         1 UNK         0.0800 
    136 H136        0.4204  -15.6306  -47.7771 H         1 UNK         0.1150 
    137 H137        1.3306  -18.1615  -51.1189 H         1 UNK         0.1150 
    138 H138        1.6675  -19.6635  -47.1228 H         1 UNK         0.1150 
    139 H139        2.7753  -20.8307  -49.1775 H         1 UNK         0.0800 
    140 H140        2.2498  -20.3505  -50.7674 H         1 UNK         0.0800 
    141 H141       -0.0011  -21.0369  -47.4230 H         1 UNK         0.0800 
    142 H142        1.4490  -22.0054  -47.5186 H         1 UNK         0.0800 
    143 H143       -0.1601  -24.0068  -48.0856 H         1 UNK         0.0600 
    144 H144        0.6674  -22.8843  -45.6008 H         1 UNK         0.3000 
    145 H145       -0.5591  -25.3198  -43.3657 H         1 UNK         0.0600 
    146 H146        1.3729  -26.5554  -44.3617 H         1 UNK         0.0600 
    147 H147        1.8301  -25.7455  -42.8722 H         1 UNK         0.0600 
    148 H148        2.3040  -25.0637  -44.4290 H         1 UNK         0.0600 
    149 H149        1.3499  -23.2590  -43.0135 H         1 UNK         0.3000 
    150 H150       -0.6516  -20.4127  -43.1012 H         1 UNK         0.0600 
    151 H151        0.2302  -21.7458  -40.4855 H         1 UNK         0.0600 
    152 H152       -1.4090  -21.2219  -40.8563 H         1 UNK         0.0600 
    153 H153       -0.1243  -20.0327  -40.7118 H         1 UNK         0.0600 
    154 H154        1.8979  -20.5666  -42.0143 H         1 UNK         0.3000 
    155 H155        3.9431  -21.1439  -43.2855 H         1 UNK         0.0600 
    156 H156        5.1992  -20.6548  -45.3324 H         1 UNK         0.0600 
    157 H157        3.7435  -20.1172  -46.1616 H         1 UNK         0.0600 
    158 H158        3.9297  -21.8084  -45.7080 H         1 UNK         0.0600 
    159 H159        4.1435  -18.5217  -44.3824 H         1 UNK         0.3000 
    160 H160        3.4113  -16.6880  -41.5039 H         1 UNK         0.0600 
    161 H161        6.2532  -17.4566  -42.3384 H         1 UNK         0.0600 
    162 H162        5.5694  -17.6326  -40.7284 H         1 UNK         0.0600 
    163 H163        5.7955  -16.0293  -41.4096 H         1 UNK         0.0600 
    164 H164        3.4633  -15.3650  -43.2079 H         1 UNK         0.3000 
    165 H165        5.5571  -14.8152  -45.8756 H         1 UNK         0.0600 
    166 H166        3.7784  -14.4584  -47.4485 H         1 UNK         0.0600 
    167 H167        3.8003  -16.1894  -47.1532 H         1 UNK         0.0600 
    168 H168        2.5760  -15.1757  -46.3915 H         1 UNK         0.0600 
    169 H169        3.1552  -13.5062  -44.9015 H         1 UNK         0.3000 
    170 H170        4.6063  -11.9415  -42.1312 H         1 UNK         0.0600 
    171 H171        4.1382   -9.7636  -43.2202 H         1 UNK         0.0600 
    172 H172        4.1136  -10.5296  -44.8094 H         1 UNK         0.0600 
    173 H173        5.6082  -10.4567  -43.8836 H         1 UNK         0.0600 
    174 H174        2.1961  -11.3159  -43.4313 H         1 UNK         0.3000 
    175 H175        0.1580  -13.9894  -42.5892 H         1 UNK         0.0600 
    176 H176        0.3853  -13.1357  -40.2543 H         1 UNK         0.0600 
    177 H177        0.3598  -11.4773  -40.8412 H         1 UNK         0.0600 
    178 H178       -1.0639  -12.5043  -41.0180 H         1 UNK         0.0600 
    179 H179       -0.4289  -11.2461  -43.1622 H         1 UNK         0.3000 
    180 H180       -1.2828  -10.7174  -45.1304 H         1 UNK         0.0600 
    181 H181        1.1617  -11.0901  -46.9603 H         1 UNK         0.0600 
    182 H182        1.0497   -9.9504  -45.6248 H         1 UNK         0.0600 
    183 H183        0.0253   -9.7456  -47.0373 H         1 UNK         0.0600 
    184 H184       -1.0047  -12.9768  -46.9714 H         1 UNK         0.3000 
    185 H185       -4.3070  -12.5543  -48.0739 H         1 UNK         0.0600 
    186 H186       -3.4264  -12.9298  -50.3776 H         1 UNK         0.0600 
    187 H187       -3.2515  -11.2509  -49.8926 H         1 UNK         0.0600 
    188 H188       -1.8498  -12.3112  -49.8852 H         1 UNK         0.0600 
    189 H189       -2.2406  -14.4663  -48.6807 H         1 UNK         0.3000 
    190 H190       -1.7756  -21.9834  -45.6304 H         1 UNK         0.3000 
    191 H191       -4.2298  -21.6177  -47.1599 H         1 UNK         0.0600 
    192 H192       -3.4655  -19.8886  -45.5579 H         1 UNK         0.0600 
    193 H193       -5.0249  -20.5387  -45.0668 H         1 UNK         0.0600 
    194 H194       -3.5661  -21.0344  -44.2248 H         1 UNK         0.0600 
    195 H195       -3.1178  -23.6565  -44.4268 H         1 UNK         0.3000 
    196 H196       -5.5580  -24.9616  -43.8990 H         1 UNK         0.0600 
    197 H197       -4.1769  -26.5687  -42.6495 H         1 UNK         0.0600 
    198 H198       -3.5478  -24.9482  -42.3863 H         1 UNK         0.0600 
    199 H199       -2.7263  -26.0504  -43.4923 H         1 UNK         0.0600 
    200 H200       -2.9246  -25.8811  -46.1590 H         1 UNK         0.3000 
    201 H201       -4.2411  -28.2811  -47.1191 H         1 UNK         0.0600 
    202 H202       -2.3527  -28.2808  -48.7396 H         1 UNK         0.0600 
    203 H203       -1.7596  -27.9879  -47.1128 H         1 UNK         0.0600 
    204 H204       -1.9030  -26.6506  -48.2529 H         1 UNK         0.0600 
    205 H205       -4.8723  -25.0102  -47.6624 H         1 UNK         0.3000 
    206 H206       -5.9994  -23.7627  -49.0617 H         1 UNK         0.0600 
    207 H207       -7.7654  -25.5364  -48.8880 H         1 UNK         0.0600 
    208 H208       -7.8145  -24.6866  -50.4231 H         1 UNK         0.0600 
    209 H209       -7.1298  -26.3016  -50.3448 H         1 UNK         0.0600 
    210 H210       -3.2847  -24.7784  -49.8024 H         1 UNK         0.3000 
    211 H211       -3.0499  -24.7636  -52.6858 H         1 UNK         0.0600 
    212 H212       -0.9779  -24.2921  -50.4758 H         1 UNK         0.0600 
    213 H213       -0.6150  -24.5249  -52.1803 H         1 UNK         0.0600 
    214 H214       -1.3335  -25.8339  -51.2519 H         1 UNK         0.0600 
    215 H215       -2.8025  -22.3627  -50.0696 H         1 UNK         0.3000 
    216 H216       -2.0532  -20.0889  -51.5924 H         1 UNK         0.0600 
    217 H217       -2.8999  -18.8168  -49.6343 H         1 UNK         0.0600 
    218 H218       -1.9314  -20.1766  -49.1147 H         1 UNK         0.0600 
    219 H219       -3.6869  -20.2603  -49.0119 H         1 UNK         0.0600 
    220 H220       -5.2587  -21.4623  -50.8595 H         1 UNK         0.3000 
    221 H221       -6.8039  -19.4213  -52.1845 H         1 UNK         0.0600 
    222 H222       -7.5399  -22.2968  -51.4137 H         1 UNK         0.0600 
    223 H223       -7.7688  -20.8676  -50.4070 H         1 UNK         0.0600 
    224 H224       -8.6675  -21.0422  -51.9060 H         1 UNK         0.0600 
    225 H225       -5.4453  -22.5759  -53.1650 H         1 UNK         0.3000 
    226 H226       -6.4656  -22.5086  -55.8697 H         1 UNK         0.0600 
    227 H227       -5.1436  -24.5712  -56.1184 H         1 UNK         0.0600 
    228 H228       -4.3244  -24.2734  -54.5910 H         1 UNK         0.0600 
    229 H229       -6.0512  -24.6252  -54.6159 H         1 UNK         0.0600 
    230 H230       -5.3365  -20.1163  -55.5138 H         1 UNK         0.3000 
    231 H231       -4.2573  -18.5611  -56.5907 H         1 UNK         0.0600 
    232 H232       -3.4484  -20.6789  -58.6445 H         1 UNK         0.0600 
    233 H233       -3.5281  -18.9439  -58.9043 H         1 UNK         0.0600 
    234 H234       -5.0018  -19.8449  -58.6003 H         1 UNK         0.0600 
    235 H235       -2.3994  -20.6582  -54.8491 H         1 UNK         0.3000 
    236 H236        0.2152  -19.6240  -55.6370 H         1 UNK         0.0600 
    237 H237       -0.4930  -20.9495  -52.9853 H         1 UNK         0.0600 
    238 H238       -0.1285  -21.8508  -54.4577 H         1 UNK         0.0600 
    239 H239        1.0793  -20.7995  -53.7341 H         1 UNK         0.0600 
    240 H240       -2.4354  -18.3811  -53.8137 H         1 UNK         0.3000 
    241 H241       -0.9108  -15.9529  -53.2398 H         1 UNK         0.0600 
    242 H242       -4.9522  -16.0503  -54.0745 H         1 UNK         0.3800 
    243 H243       -4.2375  -17.4691  -53.3372 H         1 UNK         0.3800 
    244 H244       -1.2600  -17.5583  -51.0899 H         1 UNK         0.0800 
    245 H245       -2.8448  -16.8632  -51.0770 H         1 UNK         0.0800 
    246 H246        0.9864  -15.8237  -51.4910 H         1 UNK         0.0800 
    247 H247        1.1444  -14.7265  -50.1416 H         1 UNK         0.0800 
@<TRIPOS>BOND
     1    1    2 1    
     2    1  127 1    
     3    1  128 1    
     4    1  129 1    
     5    2    3 2    
     6    2    4 am   BACKBONE|DICT|INTERRES
     7    4    5 1    
     8    4  130 1    
     9    5    6 1    
    10    5   65 1    
    11    5  131 1    
    12    6    7 1    
    13    6  132 1    
    14    6  133 1    
    15    7    8 1    
    16    8    9 1    
    17    8  134 1    
    18    8  135 1    
    19    9   10 ar   
    20    9   14 ar   
    21   10   11 ar   
    22   10  136 1    
    23   11   12 ar   
    24   11  126 1    
    25   12   13 ar   
    26   12  137 1    
    27   13   14 ar   
    28   13   15 1    
    29   14  138 1    
    30   15   16 1    
    31   15  139 1    
    32   15  140 1    
    33   16   17 1    
    34   17   18 1    
    35   17  141 1    
    36   17  142 1    
    37   18   19 1    
    38   18   67 1    
    39   18  143 1    
    40   19   20 am   BACKBONE|DICT|INTERRES
    41   19  144 1    
    42   20   21 2    
    43   20   22 1    
    44   22   23 1    
    45   22   24 1    
    46   22  145 1    
    47   23  146 1    
    48   23  147 1    
    49   23  148 1    
    50   24   25 am   BACKBONE|DICT|INTERRES
    51   24  149 1    
    52   25   26 2    
    53   25   27 1    
    54   27   28 1    
    55   27   29 1    
    56   27  150 1    
    57   28  151 1    
    58   28  152 1    
    59   28  153 1    
    60   29   30 am   BACKBONE|DICT|INTERRES
    61   29  154 1    
    62   30   31 2    
    63   30   32 1    
    64   32   33 1    
    65   32   34 1    
    66   32  155 1    
    67   33  156 1    
    68   33  157 1    
    69   33  158 1    
    70   34   35 am   BACKBONE|DICT|INTERRES
    71   34  159 1    
    72   35   36 2    
    73   35   37 1    
    74   37   38 1    
    75   37   39 1    
    76   37  160 1    
    77   38  161 1    
    78   38  162 1    
    79   38  163 1    
    80   39   40 am   BACKBONE|DICT|INTERRES
    81   39  164 1    
    82   40   41 2    
    83   40   42 1    
    84   42   43 1    
    85   42   44 1    
    86   42  165 1    
    87   43  166 1    
    88   43  167 1    
    89   43  168 1    
    90   44   45 am   BACKBONE|DICT|INTERRES
    91   44  169 1    
    92   45   46 2    
    93   45   47 1    
    94   47   48 1    
    95   47   49 1    
    96   47  170 1    
    97   48  171 1    
    98   48  172 1    
    99   48  173 1    
   100   49   50 am   BACKBONE|DICT|INTERRES
   101   49  174 1    
   102   50   51 2    
   103   50   52 1    
   104   52   53 1    
   105   52   54 1    
   106   52  175 1    
   107   53  176 1    
   108   53  177 1    
   109   53  178 1    
   110   54   55 am   BACKBONE|DICT|INTERRES
   111   54  179 1    
   112   55   56 2    
   113   55   57 1    
   114   57   58 1    
   115   57   59 1    
   116   57  180 1    
   117   58  181 1    
   118   58  182 1    
   119   58  183 1    
   120   59   60 am   BACKBONE|DICT|INTERRES
   121   59  184 1    
   122   60   61 2    
   123   60   62 1    
   124   62   63 1    
   125   62   64 1    
   126   62  185 1    
   127   63  186 1    
   128   63  187 1    
   129   63  188 1    
   130   64   65 am   BACKBONE|DICT|INTERRES
   131   64  189 1    
   132   65   66 2    
   133   67   68 2    
   134   67   69 am   BACKBONE|DICT|INTERRES
   135   69   70 1    
   136   69  190 1    
   137   70   71 1    
   138   70   72 1    
   139   70  191 1    
   140   71  192 1    
   141   71  193 1    
   142   71  194 1    
   143   72   73 2    
   144   72   74 am   BACKBONE|DICT|INTERRES
   145   74   75 1    
   146   74  195 1    
   147   75   76 1    
   148   75   77 1    
   149   75  196 1    
   150   76  197 1    
   151   76  198 1    
   152   76  199 1    
   153   77   78 2    
   154   77   79 am   BACKBONE|DICT|INTERRES
   155   79   80 1    
   156   79  200 1    
   157   80   81 1    
   158   80   82 1    
   159   80  201 1    
   160   81  202 1    
   161   81  203 1    
   162   81  204 1    
   163   82   83 2    
   164   82   84 am   BACKBONE|DICT|INTERRES
   165   84   85 1    
   166   84  205 1    
   167   85   86 1    
   168   85   87 1    
   169   85  206 1    
   170   86  207 1    
   171   86  208 1    
   172   86  209 1    
   173   87   88 2    
   174   87   89 am   BACKBONE|DICT|INTERRES
   175   89   90 1    
   176   89  210 1    
   177   90   91 1    
   178   90   92 1    
   179   90  211 1    
   180   91  212 1    
   181   91  213 1    
   182   91  214 1    
   183   92   93 2    
   184   92   94 am   BACKBONE|DICT|INTERRES
   185   94   95 1    
   186   94  215 1    
   187   95   96 1    
   188   95   97 1    
   189   95  216 1    
   190   96  217 1    
   191   96  218 1    
   192   96  219 1    
   193   97   98 2    
   194   97   99 am   BACKBONE|DICT|INTERRES
   195   99  100 1    
   196   99  220 1    
   197  100  101 1    
   198  100  102 1    
   199  100  221 1    
   200  101  222 1    
   201  101  223 1    
   202  101  224 1    
   203  102  103 2    
   204  102  104 am   BACKBONE|DICT|INTERRES
   205  104  105 1    
   206  104  225 1    
   207  105  106 1    
   208  105  107 1    
   209  105  226 1    
   210  106  227 1    
   211  106  228 1    
   212  106  229 1    
   213  107  108 2    
   214  107  109 am   BACKBONE|DICT|INTERRES
   215  109  110 1    
   216  109  230 1    
   217  110  111 1    
   218  110  112 1    
   219  110  231 1    
   220  111  232 1    
   221  111  233 1    
   222  111  234 1    
   223  112  113 2    
   224  112  114 am   BACKBONE|DICT|INTERRES
   225  114  115 1    
   226  114  235 1    
   227  115  116 1    
   228  115  117 1    
   229  115  236 1    
   230  116  237 1    
   231  116  238 1    
   232  116  239 1    
   233  117  118 2    
   234  117  119 am   BACKBONE|DICT|INTERRES
   235  119  120 1    
   236  119  240 1    
   237  120  121 1    
   238  120  124 1    
   239  120  241 1    
   240  121  122 am   BACKBONE|DICT|INTERRES
   241  121  123 2    
   242  122  242 1    
   243  122  243 1    
   244  124  125 1    
   245  124  244 1    
   246  124  245 1    
   247  125  126 1    
   248  126  246 1    
   249  126  247 1    
@<TRIPOS>SUBSTRUCTURE
     1 UNK         1 GROUP             0       ****    0 ROOT    
