@<TRIPOS>MOLECULE
3R540
247   249    1
SMALL
USER_CHARGES


@<TRIPOS>ATOM
      1 CA          5.8768  -11.4627  -48.8756 C.3       0 UNK        -0.1800 
      2 C           6.9544  -12.2929  -49.5719 C.2       0 UNK         0.5000 
      3 O           7.9317  -11.7142  -50.0437 O.2       0 UNK        -0.5000 
      4 N           6.8459  -13.6258  -49.6864 N.am      1 UNK        -0.5000 
      5 CA          5.8144  -14.5451  -49.1766 C.3       1 UNK         0.1400 
      6 C6          4.3623  -14.2347  -49.6466 C.3       23 UNK        -0.0398 
      7 S7          4.1967  -14.0391  -51.4529 S.3       23 UNK        -0.2404 
      8 C8          4.0668  -15.7705  -52.0124 C.3       23 UNK        -0.0205 
      9 C9          2.8904  -16.5220  -51.4002 C.ar      23 UNK        -0.0193 
     10 C10         1.5867  -16.0374  -51.5419 C.ar      23 UNK        -0.1150 
     11 C11         0.5029  -16.7420  -51.0099 C.ar      23 UNK        -0.0193 
     12 C12         0.7315  -17.9410  -50.3286 C.ar      23 UNK        -0.1150 
     13 C13         2.0294  -18.4370  -50.1793 C.ar      23 UNK        -0.0193 
     14 C14         3.1052  -17.7207  -50.7122 C.ar      23 UNK        -0.1150 
     15 C15         2.2616  -19.7589  -49.4648 C.3       23 UNK        -0.0205 
     16 S16         2.1019  -19.5735  -47.6642 S.3       23 UNK        -0.2404 
     17 C17         2.3660  -21.2848  -47.0961 C.3       23 UNK        -0.0398 
     18 CA          1.0876  -22.0985  -46.7730 C.3       11 UNK         0.1400 
     19 N           0.2944  -21.5717  -45.6561 N.am      11 UNK        -0.5000 
     20 C          -0.5955  -22.3208  -44.9846 C.2       10 UNK         0.5000 
     21 O          -0.8000  -23.5102  -45.2315 O.2       10 UNK        -0.5000 
     22 CA         -1.4267  -21.6364  -43.8850 C.3       10 UNK         0.1400 
     23 CB         -0.5996  -21.4483  -42.6050 C.3       10 UNK        -0.1800 
     24 N          -1.9995  -20.3605  -44.3145 N.am      10 UNK        -0.5000 
     25 C          -2.9131  -20.2367  -45.2886 C.2       9 UNK         0.5000 
     26 O          -3.3711  -21.1888  -45.9179 O.2       9 UNK        -0.5000 
     27 CA         -3.3705  -18.8120  -45.6472 C.3       9 UNK         0.1400 
     28 CB         -4.4933  -18.3462  -44.7088 C.3       9 UNK        -0.1800 
     29 N          -2.2709  -17.8511  -45.6170 N.am      9 UNK        -0.5000 
     30 C          -1.2268  -17.8758  -46.4570 C.2       8 UNK         0.5000 
     31 O          -1.1310  -18.6642  -47.3967 O.2       8 UNK        -0.5000 
     32 CA         -0.0761  -16.8977  -46.1542 C.3       8 UNK         0.1400 
     33 CB         -0.3923  -15.4875  -46.6723 C.3       8 UNK        -0.1800 
     34 N           0.2430  -16.8505  -44.7244 N.am      8 UNK        -0.5000 
     35 C           0.7132  -17.8914  -44.0193 C.2       7 UNK         0.5000 
     36 O           1.0058  -18.9784  -44.5148 O.2       7 UNK        -0.5000 
     37 CA          0.8259  -17.7148  -42.4961 C.3       7 UNK         0.1400 
     38 CB          2.2409  -17.2971  -42.0767 C.3       7 UNK        -0.1800 
     39 N          -0.1540  -16.7587  -41.9818 N.am      7 UNK        -0.5000 
     40 C          -1.4373  -17.0746  -41.7706 C.2       6 UNK         0.5000 
     41 O          -1.9149  -18.1816  -42.0243 O.2       6 UNK        -0.5000 
     42 CA         -2.3396  -15.9746  -41.1851 C.3       6 UNK         0.1400 
     43 CB         -1.9396  -15.6540  -39.7360 C.3       6 UNK        -0.1800 
     44 N          -2.3876  -14.7315  -41.9585 N.am      6 UNK        -0.5000 
     45 C          -2.7527  -14.6219  -43.2434 C.2       5 UNK         0.5000 
     46 O          -2.8946  -15.5782  -44.0017 O.2       5 UNK        -0.5000 
     47 CA         -3.0269  -13.2019  -43.7749 C.3       5 UNK         0.1400 
     48 CB         -4.5275  -12.8909  -43.6732 C.3       5 UNK        -0.1800 
     49 N          -2.2842  -12.1708  -43.0437 N.am      5 UNK        -0.5000 
     50 C          -1.0158  -11.7883  -43.2477 C.2       4 UNK         0.5000 
     51 O          -0.4803  -10.9461  -42.5258 O.2       4 UNK        -0.5000 
     52 CA         -0.2213  -12.3665  -44.4411 C.3       4 UNK         0.1400 
     53 CB         -0.3990  -11.4908  -45.6908 C.3       4 UNK        -0.1800 
     54 N           1.2012  -12.4739  -44.1387 N.am      4 UNK        -0.5000 
     55 C           1.7223  -13.3950  -43.3229 C.2       3 UNK         0.5000 
     56 O           1.0520  -14.2689  -42.7679 O.2       3 UNK        -0.5000 
     57 CA          3.2490  -13.3426  -43.1169 C.3       3 UNK         0.1400 
     58 CB          3.6064  -13.4286  -41.6239 C.3       3 UNK        -0.1800 
     59 N           3.9556  -14.4050  -43.8377 N.am      3 UNK        -0.5000 
     60 C           3.9329  -14.6015  -45.1626 C.2       2 UNK         0.5000 
     61 O           3.2906  -13.9025  -45.9508 O.2       2 UNK        -0.5000 
     62 CA          4.7758  -15.7809  -45.6933 C.3       2 UNK         0.1400 
     63 CB          4.0509  -17.1168  -45.4776 C.3       2 UNK        -0.1800 
     64 N           5.0433  -15.6312  -47.1225 N.am      2 UNK        -0.5000 
     65 C           5.8921  -14.7373  -47.6446 C.2       1 UNK         0.5000 
     66 O           6.6947  -14.0913  -46.9652 O.2       1 UNK        -0.5000 
     67 C           0.2217  -22.3948  -48.0153 C.2       11 UNK         0.5000 
     68 O           0.4883  -23.3777  -48.7052 O.2       11 UNK        -0.5000 
     69 N          -0.8272  -21.5923  -48.2543 N.am      12 UNK        -0.5000 
     70 CA         -1.8265  -21.8466  -49.2930 C.3       12 UNK         0.1400 
     71 CB         -2.7487  -20.6326  -49.4406 C.3       12 UNK        -0.1800 
     72 C          -2.6468  -23.1223  -49.0293 C.2       12 UNK         0.5000 
     73 O          -2.8860  -23.8927  -49.9589 O.2       12 UNK        -0.5000 
     74 N          -3.0374  -23.3489  -47.7679 N.am      13 UNK        -0.5000 
     75 CA         -3.7018  -24.5719  -47.3190 C.3       13 UNK         0.1400 
     76 CB         -4.2053  -24.4012  -45.8789 C.3       13 UNK        -0.1800 
     77 C          -2.8027  -25.8130  -47.4583 C.2       13 UNK         0.5000 
     78 O          -3.2707  -26.8399  -47.9497 O.2       13 UNK        -0.5000 
     79 N          -1.5191  -25.6821  -47.0918 N.am      14 UNK        -0.5000 
     80 CA         -0.4941  -26.7169  -47.2672 C.3       14 UNK         0.1400 
     81 CB          0.7997  -26.2846  -46.5618 C.3       14 UNK        -0.1800 
     82 C          -0.2222  -27.0571  -48.7474 C.2       14 UNK         0.5000 
     83 O           0.0167  -28.2209  -49.0702 O.2       14 UNK        -0.5000 
     84 N          -0.3095  -26.0465  -49.6230 N.am      15 UNK        -0.5000 
     85 CA         -0.2240  -26.1697  -51.0806 C.3       15 UNK         0.1400 
     86 CB          0.1404  -24.7972  -51.6715 C.3       15 UNK        -0.1800 
     87 C          -1.5104  -26.7199  -51.7367 C.2       15 UNK         0.5000 
     88 O          -1.5214  -26.9124  -52.9530 O.2       15 UNK        -0.5000 
     89 N          -2.5643  -26.9518  -50.9384 N.am      16 UNK        -0.5000 
     90 CA         -3.8933  -27.4418  -51.3196 C.3       16 UNK         0.1400 
     91 CB         -3.8163  -28.8410  -51.9661 C.3       16 UNK        -0.1800 
     92 C          -4.7148  -26.4342  -52.1523 C.2       16 UNK         0.5000 
     93 O          -5.6510  -26.8345  -52.8462 O.2       16 UNK        -0.5000 
     94 N          -4.3865  -25.1402  -52.0367 N.am      17 UNK        -0.5000 
     95 CA         -5.1404  -24.0276  -52.6196 C.3       17 UNK         0.1400 
     96 CB         -4.1580  -22.9111  -52.9985 C.3       17 UNK        -0.1800 
     97 C          -6.2328  -23.5060  -51.6618 C.2       17 UNK         0.5000 
     98 O          -7.0423  -22.6674  -52.0614 O.2       17 UNK        -0.5000 
     99 N          -6.2322  -24.0030  -50.4127 N.am      18 UNK        -0.5000 
    100 CA        -7.2378  -23.8110  -49.3563 C.3       18 UNK         0.1400 
    101 CB        -8.5653  -24.4794  -49.7695 C.3       18 UNK        -0.1800 
    102 C         -7.4425  -22.3463  -48.9130 C.2       18 UNK         0.5000 
    103 O         -8.4729  -22.0305  -48.3173 O.2       18 UNK        -0.5000 
    104 N         -6.4721  -21.4787  -49.2355 N.am      19 UNK        -0.5000 
    105 CA        -6.4828  -20.0205  -49.0685 C.3       19 UNK         0.1400 
    106 CB        -6.5833  -19.6298  -47.5799 C.3       19 UNK        -0.1800 
    107 C         -7.5252  -19.2924  -49.9485 C.2       19 UNK         0.5000 
    108 O         -7.7313  -18.0914  -49.7685 O.2       19 UNK        -0.5000 
    109 N         -8.1334  -20.0029  -50.9114 N.am      20 UNK        -0.5000 
    110 CA        -8.9853  -19.4293  -51.9575 C.3       20 UNK         0.1400 
    111 CB        -9.8888  -20.5323  -52.5292 C.3       20 UNK        -0.1800 
    112 C         -8.1393  -18.7838  -53.0723 C.2       20 UNK         0.5000 
    113 O         -8.5909  -17.8459  -53.7302 O.2       20 UNK        -0.5000 
    114 N         -6.9135  -19.2879  -53.2280 N.am      21 UNK        -0.5000 
    115 CA        -5.8210  -18.7471  -54.0191 C.3       21 UNK         0.1400 
    116 CB        -5.8162  -19.4169  -55.4040 C.3       21 UNK        -0.1800 
    117 C         -4.5254  -19.0353  -53.2426 C.2       21 UNK         0.5000 
    118 O         -4.5628  -19.7488  -52.2356 O.2       21 UNK        -0.5000 
    119 N         -3.4044  -18.4854  -53.7155 N.am      22 UNK        -0.5000 
    120 CA        -2.0630  -18.7915  -53.1957 C.3       22 UNK         0.1400 
    121 C         -1.5693  -20.2053  -53.6146 C.2       22 UNK         0.5000 
    122 N         -0.6778  -20.8091  -52.8400 N.am      22 UNK        -0.7600 
    123 O         -1.9467  -20.7393  -54.6552 O.2       22 UNK        -0.5000 
    124 C124       -1.0319  -17.7149  -53.6101 C.3       23 UNK        -0.0398 
    125 S125       -1.4143  -16.0610  -52.9346 S.3       23 UNK        -0.2404 
    126 C126       -0.9168  -16.2195  -51.1837 C.3       23 UNK        -0.0205 
    127 H127        5.4740  -11.9526  -47.9914 H         1 UNK         0.0600 
    128 H128        5.0603  -11.2520  -49.5660 H         1 UNK         0.0600 
    129 H129        6.2907  -10.5078  -48.5515 H         1 UNK         0.0600 
    130 H130        7.6070  -14.1006  -50.1502 H         1 UNK         0.3000 
    131 H131        6.0822  -15.5157  -49.5966 H         1 UNK         0.0600 
    132 H132        3.6761  -15.0196  -49.3289 H         1 UNK         0.0800 
    133 H133        3.9769  -13.3321  -49.1744 H         1 UNK         0.0800 
    134 H134        3.9574  -15.7786  -53.0976 H         1 UNK         0.0800 
    135 H135        5.0074  -16.2798  -51.7982 H         1 UNK         0.0800 
    136 H136        1.4133  -15.1146  -52.0778 H         1 UNK         0.1150 
    137 H137       -0.0981  -18.4925  -49.9090 H         1 UNK         0.1150 
    138 H138        4.1093  -18.1060  -50.6032 H         1 UNK         0.1150 
    139 H139        1.5414  -20.4934  -49.8261 H         1 UNK         0.0800 
    140 H140        3.2513  -20.1528  -49.7009 H         1 UNK         0.0800 
    141 H141        2.9844  -21.2310  -46.1992 H         1 UNK         0.0800 
    142 H142        2.9726  -21.8173  -47.8306 H         1 UNK         0.0800 
    143 H143        1.4558  -23.0718  -46.4418 H         1 UNK         0.0600 
    144 H144        0.4440  -20.5992  -45.3961 H         1 UNK         0.3000 
    145 H145       -2.2611  -22.2983  -43.6436 H         1 UNK         0.0600 
    146 H146       -1.1746  -20.9413  -41.8299 H         1 UNK         0.0600 
    147 H147       -0.2902  -22.4133  -42.2020 H         1 UNK         0.0600 
    148 H148        0.3057  -20.8717  -42.7878 H         1 UNK         0.0600 
    149 H149       -1.6991  -19.5303  -43.8199 H         1 UNK         0.3000 
    150 H150       -3.7657  -18.8347  -46.6643 H         1 UNK         0.0600 
    151 H151       -5.3249  -19.0518  -44.7112 H         1 UNK         0.0600 
    152 H152       -4.8871  -17.3780  -45.0183 H         1 UNK         0.0600 
    153 H153       -4.1450  -18.2513  -43.6798 H         1 UNK         0.0600 
    154 H154       -2.3170  -17.1320  -44.8996 H         1 UNK         0.3000 
    155 H155        0.8087  -17.2485  -46.6839 H         1 UNK         0.0600 
    156 H156       -0.5617  -15.5027  -47.7498 H         1 UNK         0.0600 
    157 H157        0.4367  -14.8041  -46.4852 H         1 UNK         0.0600 
    158 H158       -1.2876  -15.0757  -46.2071 H         1 UNK         0.0600 
    159 H159        0.0276  -15.9987  -44.2260 H         1 UNK         0.3000 
    160 H160        0.6318  -18.6845  -42.0346 H         1 UNK         0.0600 
    161 H161        2.5541  -16.3817  -42.5725 H         1 UNK         0.0600 
    162 H162        2.9632  -18.0734  -42.3313 H         1 UNK         0.0600 
    163 H163        2.3043  -17.1356  -41.0006 H         1 UNK         0.0600 
    164 H164        0.1640  -15.8027  -41.8538 H         1 UNK         0.3000 
    165 H165       -3.3553  -16.3752  -41.1669 H         1 UNK         0.0600 
    166 H166       -2.6641  -14.9896  -39.2649 H         1 UNK         0.0600 
    167 H167       -1.8935  -16.5614  -39.1321 H         1 UNK         0.0600 
    168 H168       -0.9615  -15.1742  -39.6835 H         1 UNK         0.0600 
    169 H169       -2.2509  -13.8796  -41.4352 H         1 UNK         0.3000 
    170 H170       -2.7704  -13.1769  -44.8348 H         1 UNK         0.0600 
    171 H171       -5.1172  -13.6268  -44.2220 H         1 UNK         0.0600 
    172 H172       -4.8741  -12.8987  -42.6390 H         1 UNK         0.0600 
    173 H173       -4.7570  -11.9128  -44.0967 H         1 UNK         0.0600 
    174 H174       -2.7883  -11.7343  -42.2860 H         1 UNK         0.3000 
    175 H175       -0.5647  -13.3732  -44.6713 H         1 UNK         0.0600 
    176 H176       -0.0253  -10.4789  -45.5291 H         1 UNK         0.0600 
    177 H177        0.1315  -11.9124  -46.5451 H         1 UNK         0.0600 
    178 H178       -1.4501  -11.4104  -45.9699 H         1 UNK         0.0600 
    179 H179        1.8095  -11.7930  -44.5687 H         1 UNK         0.3000 
    180 H180        3.6175  -12.3860  -43.4929 H         1 UNK         0.0600 
    181 H181        3.3160  -14.3869  -41.1914 H         1 UNK         0.0600 
    182 H182        3.0989  -12.6472  -41.0567 H         1 UNK         0.0600 
    183 H183        4.6773  -13.2999  -41.4657 H         1 UNK         0.0600 
    184 H184        4.5017  -15.0326  -43.2664 H         1 UNK         0.3000 
    185 H185        5.7266  -15.8045  -45.1567 H         1 UNK         0.0600 
    186 H186        3.9163  -17.3233  -44.4174 H         1 UNK         0.0600 
    187 H187        3.0657  -17.1184  -45.9431 H         1 UNK         0.0600 
    188 H188        4.6175  -17.9493  -45.8956 H         1 UNK         0.0600 
    189 H189        4.4128  -16.1262  -47.7354 H         1 UNK         0.3000 
    190 H190       -0.9600  -20.7657  -47.6812 H         1 UNK         0.3000 
    191 H191       -1.3006  -21.9862  -50.2389 H         1 UNK         0.0600 
    192 H192       -2.1950  -19.7463  -49.7481 H         1 UNK         0.0600 
    193 H193       -3.5069  -20.8224  -50.1978 H         1 UNK         0.0600 
    194 H194       -3.2643  -20.4001  -48.5097 H         1 UNK         0.0600 
    195 H195       -2.8754  -22.6339  -47.0634 H         1 UNK         0.3000 
    196 H196       -4.5711  -24.7291  -47.9583 H         1 UNK         0.0600 
    197 H197       -4.7198  -25.2995  -45.5356 H         1 UNK         0.0600 
    198 H198       -4.9114  -23.5737  -45.8060 H         1 UNK         0.0600 
    199 H199       -3.3887  -24.2044  -45.1846 H         1 UNK         0.0600 
    200 H200       -1.2263  -24.8173  -46.6462 H         1 UNK         0.3000 
    201 H201       -0.8570  -27.6249  -46.7813 H         1 UNK         0.0600 
    202 H202        0.6228  -26.0660  -45.5086 H         1 UNK         0.0600 
    203 H203        1.2307  -25.3961  -47.0218 H         1 UNK         0.0600 
    204 H204        1.5508  -27.0739  -46.6095 H         1 UNK         0.0600 
    205 H205       -0.4298  -25.1059  -49.2618 H         1 UNK         0.3000 
    206 H206        0.5823  -26.8656  -51.3206 H         1 UNK         0.0600 
    207 H207        1.0709  -24.4191  -51.2478 H         1 UNK         0.0600 
    208 H208        0.2788  -24.8574  -52.7516 H         1 UNK         0.0600 
    209 H209       -0.6386  -24.0587  -51.4824 H         1 UNK         0.0600 
    210 H210       -2.4561  -26.7490  -49.9520 H         1 UNK         0.3000 
    211 H211       -4.4397  -27.5548  -50.3825 H         1 UNK         0.0600 
    212 H212       -3.3687  -28.8073  -52.9595 H         1 UNK         0.0600 
    213 H213       -4.8102  -29.2767  -52.0736 H         1 UNK         0.0600 
    214 H214       -3.2286  -29.5259  -51.3547 H         1 UNK         0.0600 
    215 H215       -3.6236  -24.8796  -51.4162 H         1 UNK         0.3000 
    216 H216       -5.6377  -24.3603  -53.5327 H         1 UNK         0.0600 
    217 H217       -4.6687  -22.1162  -53.5417 H         1 UNK         0.0600 
    218 H218       -3.3645  -23.2833  -53.6467 H         1 UNK         0.0600 
    219 H219       -3.6894  -22.4629  -52.1224 H         1 UNK         0.0600 
    220 H220       -5.4862  -24.6458  -50.1908 H         1 UNK         0.3000 
    221 H221       -6.8664  -24.3386  -48.4775 H         1 UNK         0.0600 
    222 H222       -9.0356  -23.9597  -50.6051 H         1 UNK         0.0600 
    223 H223       -8.4091  -25.5168  -50.0655 H         1 UNK         0.0600 
    224 H224       -9.2787  -24.4847  -48.9446 H         1 UNK         0.0600 
    225 H225       -5.6860  -21.8486  -49.7497 H         1 UNK         0.3000 
    226 H226       -5.5137  -19.6744  -49.4279 H         1 UNK         0.0600 
    227 H227       -5.8698  -20.1919  -46.9777 H         1 UNK         0.0600 
    228 H228       -6.3670  -18.5704  -47.4387 H         1 UNK         0.0600 
    229 H229       -7.5792  -19.8139  -47.1770 H         1 UNK         0.0600 
    230 H230       -7.8904  -20.9811  -51.0190 H         1 UNK         0.3000 
    231 H231       -9.6199  -18.6556  -51.5205 H         1 UNK         0.0600 
    232 H232       -9.3072  -21.3300  -52.9930 H         1 UNK         0.0600 
    233 H233      -10.5604  -20.1309  -53.2891 H         1 UNK         0.0600 
    234 H234      -10.5073  -20.9783  -51.7501 H         1 UNK         0.0600 
    235 H235       -6.6172  -20.0244  -52.5985 H         1 UNK         0.3000 
    236 H236       -5.9319  -17.6658  -54.1227 H         1 UNK         0.0600 
    237 H237       -6.7565  -19.2441  -55.9277 H         1 UNK         0.0600 
    238 H238       -5.0179  -19.0204  -56.0320 H         1 UNK         0.0600 
    239 H239       -5.6697  -20.4950  -55.3270 H         1 UNK         0.0600 
    240 H240       -3.4409  -17.9209  -54.5509 H         1 UNK         0.3000 
    241 H241       -2.1253  -18.7921  -52.1060 H         1 UNK         0.0600 
    242 H242       -0.3122  -20.3720  -52.0108 H         1 UNK         0.3800 
    243 H243       -0.3322  -21.7126  -53.1212 H         1 UNK         0.3800 
    244 H244       -0.0234  -17.9973  -53.3051 H         1 UNK         0.0800 
    245 H245       -0.9930  -17.6331  -54.6975 H         1 UNK         0.0800 
    246 H246       -0.9923  -15.2414  -50.7070 H         1 UNK         0.0800 
    247 H247       -1.6319  -16.8631  -50.6689 H         1 UNK         0.0800 
@<TRIPOS>BOND
     1    1    2 1    
     2    1  127 1    
     3    1  128 1    
     4    1  129 1    
     5    2    3 2    
     6    2    4 am   BACKBONE|DICT|INTERRES
     7    4    5 1    
     8    4  130 1    
     9    5    6 1    
    10    5   65 1    
    11    5  131 1    
    12    6    7 1    
    13    6  132 1    
    14    6  133 1    
    15    7    8 1    
    16    8    9 1    
    17    8  134 1    
    18    8  135 1    
    19    9   10 ar   
    20    9   14 ar   
    21   10   11 ar   
    22   10  136 1    
    23   11   12 ar   
    24   11  126 1    
    25   12   13 ar   
    26   12  137 1    
    27   13   14 ar   
    28   13   15 1    
    29   14  138 1    
    30   15   16 1    
    31   15  139 1    
    32   15  140 1    
    33   16   17 1    
    34   17   18 1    
    35   17  141 1    
    36   17  142 1    
    37   18   19 1    
    38   18   67 1    
    39   18  143 1    
    40   19   20 am   BACKBONE|DICT|INTERRES
    41   19  144 1    
    42   20   21 2    
    43   20   22 1    
    44   22   23 1    
    45   22   24 1    
    46   22  145 1    
    47   23  146 1    
    48   23  147 1    
    49   23  148 1    
    50   24   25 am   BACKBONE|DICT|INTERRES
    51   24  149 1    
    52   25   26 2    
    53   25   27 1    
    54   27   28 1    
    55   27   29 1    
    56   27  150 1    
    57   28  151 1    
    58   28  152 1    
    59   28  153 1    
    60   29   30 am   BACKBONE|DICT|INTERRES
    61   29  154 1    
    62   30   31 2    
    63   30   32 1    
    64   32   33 1    
    65   32   34 1    
    66   32  155 1    
    67   33  156 1    
    68   33  157 1    
    69   33  158 1    
    70   34   35 am   BACKBONE|DICT|INTERRES
    71   34  159 1    
    72   35   36 2    
    73   35   37 1    
    74   37   38 1    
    75   37   39 1    
    76   37  160 1    
    77   38  161 1    
    78   38  162 1    
    79   38  163 1    
    80   39   40 am   BACKBONE|DICT|INTERRES
    81   39  164 1    
    82   40   41 2    
    83   40   42 1    
    84   42   43 1    
    85   42   44 1    
    86   42  165 1    
    87   43  166 1    
    88   43  167 1    
    89   43  168 1    
    90   44   45 am   BACKBONE|DICT|INTERRES
    91   44  169 1    
    92   45   46 2    
    93   45   47 1    
    94   47   48 1    
    95   47   49 1    
    96   47  170 1    
    97   48  171 1    
    98   48  172 1    
    99   48  173 1    
   100   49   50 am   BACKBONE|DICT|INTERRES
   101   49  174 1    
   102   50   51 2    
   103   50   52 1    
   104   52   53 1    
   105   52   54 1    
   106   52  175 1    
   107   53  176 1    
   108   53  177 1    
   109   53  178 1    
   110   54   55 am   BACKBONE|DICT|INTERRES
   111   54  179 1    
   112   55   56 2    
   113   55   57 1    
   114   57   58 1    
   115   57   59 1    
   116   57  180 1    
   117   58  181 1    
   118   58  182 1    
   119   58  183 1    
   120   59   60 am   BACKBONE|DICT|INTERRES
   121   59  184 1    
   122   60   61 2    
   123   60   62 1    
   124   62   63 1    
   125   62   64 1    
   126   62  185 1    
   127   63  186 1    
   128   63  187 1    
   129   63  188 1    
   130   64   65 am   BACKBONE|DICT|INTERRES
   131   64  189 1    
   132   65   66 2    
   133   67   68 2    
   134   67   69 am   BACKBONE|DICT|INTERRES
   135   69   70 1    
   136   69  190 1    
   137   70   71 1    
   138   70   72 1    
   139   70  191 1    
   140   71  192 1    
   141   71  193 1    
   142   71  194 1    
   143   72   73 2    
   144   72   74 am   BACKBONE|DICT|INTERRES
   145   74   75 1    
   146   74  195 1    
   147   75   76 1    
   148   75   77 1    
   149   75  196 1    
   150   76  197 1    
   151   76  198 1    
   152   76  199 1    
   153   77   78 2    
   154   77   79 am   BACKBONE|DICT|INTERRES
   155   79   80 1    
   156   79  200 1    
   157   80   81 1    
   158   80   82 1    
   159   80  201 1    
   160   81  202 1    
   161   81  203 1    
   162   81  204 1    
   163   82   83 2    
   164   82   84 am   BACKBONE|DICT|INTERRES
   165   84   85 1    
   166   84  205 1    
   167   85   86 1    
   168   85   87 1    
   169   85  206 1    
   170   86  207 1    
   171   86  208 1    
   172   86  209 1    
   173   87   88 2    
   174   87   89 am   BACKBONE|DICT|INTERRES
   175   89   90 1    
   176   89  210 1    
   177   90   91 1    
   178   90   92 1    
   179   90  211 1    
   180   91  212 1    
   181   91  213 1    
   182   91  214 1    
   183   92   93 2    
   184   92   94 am   BACKBONE|DICT|INTERRES
   185   94   95 1    
   186   94  215 1    
   187   95   96 1    
   188   95   97 1    
   189   95  216 1    
   190   96  217 1    
   191   96  218 1    
   192   96  219 1    
   193   97   98 2    
   194   97   99 am   BACKBONE|DICT|INTERRES
   195   99  100 1    
   196   99  220 1    
   197  100  101 1    
   198  100  102 1    
   199  100  221 1    
   200  101  222 1    
   201  101  223 1    
   202  101  224 1    
   203  102  103 2    
   204  102  104 am   BACKBONE|DICT|INTERRES
   205  104  105 1    
   206  104  225 1    
   207  105  106 1    
   208  105  107 1    
   209  105  226 1    
   210  106  227 1    
   211  106  228 1    
   212  106  229 1    
   213  107  108 2    
   214  107  109 am   BACKBONE|DICT|INTERRES
   215  109  110 1    
   216  109  230 1    
   217  110  111 1    
   218  110  112 1    
   219  110  231 1    
   220  111  232 1    
   221  111  233 1    
   222  111  234 1    
   223  112  113 2    
   224  112  114 am   BACKBONE|DICT|INTERRES
   225  114  115 1    
   226  114  235 1    
   227  115  116 1    
   228  115  117 1    
   229  115  236 1    
   230  116  237 1    
   231  116  238 1    
   232  116  239 1    
   233  117  118 2    
   234  117  119 am   BACKBONE|DICT|INTERRES
   235  119  120 1    
   236  119  240 1    
   237  120  121 1    
   238  120  124 1    
   239  120  241 1    
   240  121  122 am   BACKBONE|DICT|INTERRES
   241  121  123 2    
   242  122  242 1    
   243  122  243 1    
   244  124  125 1    
   245  124  244 1    
   246  124  245 1    
   247  125  126 1    
   248  126  246 1    
   249  126  247 1    
@<TRIPOS>SUBSTRUCTURE
     1 UNK         1 GROUP             0       ****    0 ROOT    
