@<TRIPOS>MOLECULE
3R540
247   249    1
SMALL
USER_CHARGES


@<TRIPOS>ATOM
      1 CA          3.7192  -12.8449  -51.0457 C.3       0 UNK        -0.1800 
      2 C           4.8297  -12.8515  -50.0046 C.2       0 UNK         0.5000 
      3 O           5.8448  -12.1791  -50.1840 O.2       0 UNK        -0.5000 
      4 N           4.6352  -13.6029  -48.9136 N.am      1 UNK        -0.5000 
      5 CA          5.6091  -13.7804  -47.8243 C.3       1 UNK         0.1400 
      6 C6          5.4362  -15.1429  -47.1054 C.3       23 UNK        -0.0398 
      7 S7          5.5587  -16.5574  -48.2526 S.3       23 UNK        -0.2404 
      8 C8          3.8607  -17.2067  -48.1934 C.3       23 UNK        -0.0205 
      9 C9          3.6780  -18.3696  -49.1539 C.ar      23 UNK        -0.0193 
     10 C10         4.2351  -19.6145  -48.8556 C.ar      23 UNK        -0.1150 
     11 C11         4.0619  -20.6969  -49.7212 C.ar      23 UNK        -0.0193 
     12 C12         3.2975  -20.5306  -50.8802 C.ar      23 UNK        -0.1150 
     13 C13         2.7323  -19.2898  -51.1974 C.ar      23 UNK        -0.0193 
     14 C14         2.9495  -18.2068  -50.3356 C.ar      23 UNK        -0.1150 
     15 C15         1.9166  -19.1636  -52.4881 C.3       23 UNK        -0.0205 
     16 S16         0.6273  -17.8598  -52.5156 S.3       23 UNK        -0.2404 
     17 C17        -0.3293  -18.0488  -50.9655 C.3       23 UNK        -0.0398 
     18 CA         -0.5975  -19.4965  -50.4785 C.3       11 UNK         0.1400 
     19 N          -0.5589  -19.5882  -49.0144 N.am      11 UNK        -0.5000 
     20 C          -0.5543  -20.7256  -48.3053 C.2       10 UNK         0.5000 
     21 O          -0.6378  -21.8497  -48.8057 O.2       10 UNK        -0.5000 
     22 CA         -0.5115  -20.5701  -46.7763 C.3       10 UNK         0.1400 
     23 CB          0.8812  -20.1311  -46.2976 C.3       10 UNK        -0.1800 
     24 N          -1.5267  -19.6205  -46.3254 N.am      10 UNK        -0.5000 
     25 C          -2.8382  -19.8944  -46.2869 C.2       9 UNK         0.5000 
     26 O          -3.3033  -21.0202  -46.4811 O.2       9 UNK        -0.5000 
     27 CA         -3.8003  -18.7278  -45.9983 C.3       9 UNK         0.1400 
     28 CB         -4.1903  -18.6995  -44.5149 C.3       9 UNK        -0.1800 
     29 N          -3.2766  -17.4211  -46.3967 N.am      9 UNK        -0.5000 
     30 C          -3.1009  -17.0404  -47.6700 C.2       8 UNK         0.5000 
     31 O          -3.3467  -17.7608  -48.6365 O.2       8 UNK        -0.5000 
     32 CA         -2.5043  -15.6414  -47.9045 C.3       8 UNK         0.1400 
     33 CB         -3.5694  -14.5521  -47.7120 C.3       8 UNK        -0.1800 
     34 N          -1.3556  -15.3601  -47.0443 N.am      8 UNK        -0.5000 
     35 C          -0.2185  -16.0692  -47.0328 C.2       7 UNK         0.5000 
     36 O          -0.0099  -17.0493  -47.7462 O.2       7 UNK        -0.5000 
     37 CA          0.8449  -15.6374  -46.0140 C.3       7 UNK         0.1400 
     38 CB          1.5839  -14.3767  -46.4928 C.3       7 UNK        -0.1800 
     39 N           0.2501  -15.4162  -44.6959 N.am      7 UNK        -0.5000 
     40 C          -0.2106  -16.4026  -43.9114 C.2       6 UNK         0.5000 
     41 O          -0.1031  -17.5981  -44.1832 O.2       6 UNK        -0.5000 
     42 CA         -0.9546  -15.9863  -42.6302 C.3       6 UNK         0.1400 
     43 CB          0.0208  -15.8310  -41.4551 C.3       6 UNK        -0.1800 
     44 N          -1.7210  -14.7512  -42.8034 N.am      6 UNK        -0.5000 
     45 C          -2.8364  -14.6672  -43.5433 C.2       5 UNK         0.5000 
     46 O          -3.3272  -15.6215  -44.1442 O.2       5 UNK        -0.5000 
     47 CA         -3.4935  -13.2813  -43.6763 C.3       5 UNK         0.1400 
     48 CB         -4.4878  -13.0449  -42.5302 C.3       5 UNK        -0.1800 
     49 N          -2.5338  -12.1777  -43.7190 N.am      5 UNK        -0.5000 
     50 C          -1.5689  -12.0293  -44.6360 C.2       4 UNK         0.5000 
     51 O          -1.3754  -12.8283  -45.5543 O.2       4 UNK        -0.5000 
     52 CA         -0.6420  -10.8045  -44.5004 C.3       4 UNK         0.1400 
     53 CB         -1.0874   -9.7862  -43.4263 C.3       4 UNK        -0.1800 
     54 N           0.7523  -11.1979  -44.2773 N.am      4 UNK        -0.5000 
     55 C           1.2414  -11.9562  -43.2831 C.2       3 UNK         0.5000 
     56 O           0.5367  -12.4829  -42.4206 O.2       3 UNK        -0.5000 
     57 CA          2.7707  -12.1732  -43.2534 C.3       3 UNK         0.1400 
     58 CB          3.1390  -13.6281  -42.9122 C.3       3 UNK        -0.1800 
     59 N           3.4087  -11.8008  -44.5211 N.am      3 UNK        -0.5000 
     60 C           3.9970  -10.6247  -44.7780 C.2       2 UNK         0.5000 
     61 O           4.0892   -9.7185  -43.9490 O.2       2 UNK        -0.5000 
     62 CA          4.5205  -10.4038  -46.2147 C.3       2 UNK         0.1400 
     63 CB          5.7929   -9.5311  -46.2558 C.3       2 UNK        -0.1800 
     64 N           4.6948  -11.6367  -46.9973 N.am      2 UNK        -0.5000 
     65 C           5.5984  -12.6127  -46.8080 C.2       1 UNK         0.5000 
     66 O           6.3989  -12.6257  -45.8727 O.2       1 UNK        -0.5000 
     67 C          -1.8850  -20.0768  -51.0984 C.2       11 UNK         0.5000 
     68 O          -1.8641  -20.5020  -52.2534 O.2       11 UNK        -0.5000 
     69 N          -2.9581  -20.1662  -50.2991 N.am      12 UNK        -0.5000 
     70 CA         -4.2216  -20.8386  -50.6039 C.3       12 UNK         0.1400 
     71 CB         -5.1505  -20.7282  -49.3866 C.3       12 UNK        -0.1800 
     72 C          -4.0769  -22.3172  -51.0195 C.2       12 UNK         0.5000 
     73 O          -4.9969  -22.8484  -51.6419 O.2       12 UNK        -0.5000 
     74 N          -2.9415  -22.9566  -50.6974 N.am      13 UNK        -0.5000 
     75 CA         -2.5546  -24.2752  -51.2047 C.3       13 UNK         0.1400 
     76 CB         -1.2398  -24.7143  -50.5431 C.3       13 UNK        -0.1800 
     77 C          -2.3967  -24.3089  -52.7373 C.2       13 UNK         0.5000 
     78 O          -2.8055  -25.2858  -53.3639 O.2       13 UNK        -0.5000 
     79 N          -1.8402  -23.2344  -53.3168 N.am      14 UNK        -0.5000 
     80 CA         -1.6435  -23.0834  -54.7614 C.3       14 UNK         0.1400 
     81 CB         -0.6000  -21.9862  -55.0244 C.3       14 UNK        -0.1800 
     82 C          -2.9594  -22.7752  -55.4987 C.2       14 UNK         0.5000 
     83 O          -3.1144  -23.1600  -56.6578 O.2       14 UNK        -0.5000 
     84 N          -3.8951  -22.1185  -54.7993 N.am      15 UNK        -0.5000 
     85 CA         -5.2606  -21.8583  -55.2603 C.3       15 UNK         0.1400 
     86 CB         -5.8280  -20.6719  -54.4640 C.3       15 UNK        -0.1800 
     87 C          -6.1869  -23.0854  -55.1222 C.2       15 UNK         0.5000 
     88 O          -7.3017  -23.0551  -55.6437 O.2       15 UNK        -0.5000 
     89 N          -5.7246  -24.1183  -54.3994 N.am      16 UNK        -0.5000 
     90 CA         -6.4317  -25.3455  -54.0143 C.3       16 UNK         0.1400 
     91 CB         -6.8420  -26.1692  -55.2526 C.3       16 UNK        -0.1800 
     92 C          -7.6037  -25.1014  -53.0374 C.2       16 UNK         0.5000 
     93 O          -8.4843  -25.9538  -52.9102 O.2       16 UNK        -0.5000 
     94 N          -7.5824  -23.9541  -52.3470 N.am      17 UNK        -0.5000 
     95 CA         -8.5268  -23.5889  -51.2932 C.3       17 UNK         0.1400 
     96 CB         -8.6773  -22.0605  -51.2603 C.3       17 UNK        -0.1800 
     97 C          -8.0753  -24.1375  -49.9278 C.2       17 UNK         0.5000 
     98 O          -8.9222  -24.5565  -49.1388 O.2       17 UNK        -0.5000 
     99 N          -6.7503  -24.1562  -49.7028 N.am      18 UNK        -0.5000 
    100 CA        -6.0393  -24.7767  -48.5781 C.3       18 UNK         0.1400 
    101 CB        -6.0514  -26.3102  -48.7493 C.3       18 UNK        -0.1800 
    102 C         -6.5341  -24.3204  -47.1862 C.2       18 UNK         0.5000 
    103 O         -6.7833  -25.1557  -46.3154 O.2       18 UNK        -0.5000 
    104 N         -6.6850  -22.9980  -47.0136 N.am      19 UNK        -0.5000 
    105 CA        -7.2064  -22.3550  -45.8009 C.3       19 UNK         0.1400 
    106 CB        -7.3304  -20.8439  -46.0430 C.3       19 UNK        -0.1800 
    107 C         -6.3768  -22.6480  -44.5344 C.2       19 UNK         0.5000 
    108 O         -6.9502  -22.9860  -43.4980 O.2       19 UNK        -0.5000 
    109 N         -5.0484  -22.5570  -44.6613 N.am      20 UNK        -0.5000 
    110 CA        -4.0767  -23.0810  -43.6983 C.3       20 UNK         0.1400 
    111 CB        -3.3064  -21.9325  -43.0268 C.3       20 UNK        -0.1800 
    112 C         -3.1187  -24.0491  -44.4098 C.2       20 UNK         0.5000 
    113 O         -2.8030  -25.0972  -43.8470 O.2       20 UNK        -0.5000 
    114 N         -2.7385  -23.6936  -45.6480 N.am      21 UNK        -0.5000 
    115 CA        -1.9124  -24.4246  -46.6093 C.3       21 UNK         0.1400 
    116 CB        -2.4671  -25.8346  -46.8902 C.3       21 UNK        -0.1800 
    117 C         -0.4203  -24.4720  -46.2321 C.2       21 UNK         0.5000 
    118 O         -0.0597  -24.9040  -45.1363 O.2       21 UNK        -0.5000 
    119 N          0.4249  -24.0336  -47.1714 N.am      22 UNK        -0.5000 
    120 CA         1.8887  -24.1162  -47.0999 C.3       22 UNK         0.1400 
    121 C          2.4017  -25.5858  -47.0819 C.2       22 UNK         0.5000 
    122 N          3.3944  -25.8979  -46.2600 N.am      22 UNK        -0.7600 
    123 O          1.9279  -26.4356  -47.8329 O.2       22 UNK        -0.5000 
    124 C124        2.5353  -23.3069  -48.2536 C.3       23 UNK        -0.0398 
    125 S125        4.2204  -22.7541  -47.8419 S.3       23 UNK        -0.2404 
    126 C126        4.7428  -22.0275  -49.4268 C.3       23 UNK        -0.0205 
    127 H127        3.3400  -11.8325  -51.1842 H         1 UNK         0.0600 
    128 H128        2.8852  -13.4841  -50.7545 H         1 UNK         0.0600 
    129 H129        4.1011  -13.2010  -52.0025 H         1 UNK         0.0600 
    130 H130        3.7885  -14.1453  -48.8382 H         1 UNK         0.3000 
    131 H131        6.6084  -13.7793  -48.2656 H         1 UNK         0.0600 
    132 H132        6.2139  -15.2747  -46.3508 H         1 UNK         0.0800 
    133 H133        4.4891  -15.1838  -46.5671 H         1 UNK         0.0800 
    134 H134        3.1549  -16.4102  -48.4294 H         1 UNK         0.0800 
    135 H135        3.6311  -17.5367  -47.1790 H         1 UNK         0.0800 
    136 H136        4.8185  -19.7372  -47.9537 H         1 UNK         0.1150 
    137 H137        3.1576  -21.3672  -51.5505 H         1 UNK         0.1150 
    138 H138        2.5441  -17.2346  -50.5740 H         1 UNK         0.1150 
    139 H139        2.6111  -18.9649  -53.3051 H         1 UNK         0.0800 
    140 H140        1.4426  -20.1167  -52.7288 H         1 UNK         0.0800 
    141 H141       -1.2604  -17.4862  -51.0577 H         1 UNK         0.0800 
    142 H142        0.2401  -17.5055  -50.2141 H         1 UNK         0.0800 
    143 H143        0.2010  -20.1547  -50.8121 H         1 UNK         0.0600 
    144 H144       -0.4757  -18.7056  -48.5154 H         1 UNK         0.3000 
    145 H145       -0.7253  -21.5400  -46.3269 H         1 UNK         0.0600 
    146 H146        0.9153  -20.0555  -45.2108 H         1 UNK         0.0600 
    147 H147        1.6432  -20.8517  -46.5954 H         1 UNK         0.0600 
    148 H148        1.1717  -19.1638  -46.7068 H         1 UNK         0.0600 
    149 H149       -1.2155  -18.6803  -46.1205 H         1 UNK         0.3000 
    150 H150       -4.7043  -18.9031  -46.5825 H         1 UNK         0.0600 
    151 H151       -4.6659  -19.6344  -44.2192 H         1 UNK         0.0600 
    152 H152       -4.9032  -17.9007  -44.3102 H         1 UNK         0.0600 
    153 H153       -3.3215  -18.5475  -43.8729 H         1 UNK         0.0600 
    154 H154       -3.0956  -16.7567  -45.6479 H         1 UNK         0.3000 
    155 H155       -2.1577  -15.5991  -48.9391 H         1 UNK         0.0600 
    156 H156       -3.9552  -14.5422  -46.6928 H         1 UNK         0.0600 
    157 H157       -4.4153  -14.7110  -48.3818 H         1 UNK         0.0600 
    158 H158       -3.1650  -13.5624  -47.9259 H         1 UNK         0.0600 
    159 H159       -1.4282  -14.5482  -46.4372 H         1 UNK         0.3000 
    160 H160        1.5748  -16.4459  -45.9338 H         1 UNK         0.0600 
    161 H161        2.4420  -14.1611  -45.8613 H         1 UNK         0.0600 
    162 H162        0.9403  -13.4978  -46.4962 H         1 UNK         0.0600 
    163 H163        1.9558  -14.5050  -47.5092 H         1 UNK         0.0600 
    164 H164        0.0542  -14.4612  -44.4320 H         1 UNK         0.3000 
    165 H165       -1.6534  -16.7881  -42.3814 H         1 UNK         0.0600 
    166 H166       -0.5089  -15.5990  -40.5311 H         1 UNK         0.0600 
    167 H167        0.5793  -16.7528  -41.2875 H         1 UNK         0.0600 
    168 H168        0.7450  -15.0376  -41.6340 H         1 UNK         0.0600 
    169 H169       -1.3417  -13.9118  -42.3833 H         1 UNK         0.3000 
    170 H170       -4.0493  -13.2697  -44.6156 H         1 UNK         0.0600 
    171 H171       -5.2305  -13.8428  -42.4870 H         1 UNK         0.0600 
    172 H172       -3.9861  -13.0103  -41.5623 H         1 UNK         0.0600 
    173 H173       -5.0280  -12.1073  -42.6629 H         1 UNK         0.0600 
    174 H174       -2.6052  -11.4887  -42.9847 H         1 UNK         0.3000 
    175 H175       -0.6714  -10.2980  -45.4662 H         1 UNK         0.0600 
    176 H176       -1.0637  -10.2074  -42.4205 H         1 UNK         0.0600 
    177 H177       -0.4353   -8.9126  -43.4289 H         1 UNK         0.0600 
    178 H178       -2.0995   -9.4267  -43.6169 H         1 UNK         0.0600 
    179 H179        1.4136  -10.8424  -44.9509 H         1 UNK         0.3000 
    180 H180        3.1591  -11.5437  -42.4503 H         1 UNK         0.0600 
    181 H181        2.6616  -14.3435  -43.5799 H         1 UNK         0.0600 
    182 H182        2.8321  -13.8761  -41.8958 H         1 UNK         0.0600 
    183 H183        4.2164  -13.7854  -42.9665 H         1 UNK         0.0600 
    184 H184        3.3737  -12.4819  -45.2635 H         1 UNK         0.3000 
    185 H185        3.7352   -9.8443  -46.7248 H         1 UNK         0.0600 
    186 H186        5.6044   -8.5431  -45.8342 H         1 UNK         0.0600 
    187 H187        6.6100   -9.9753  -45.6869 H         1 UNK         0.0600 
    188 H188        6.1371   -9.3836  -47.2795 H         1 UNK         0.0600 
    189 H189        4.0899  -11.7281  -47.8014 H         1 UNK         0.3000 
    190 H190       -2.9069  -19.7002  -49.4011 H         1 UNK         0.3000 
    191 H191       -4.6784  -20.3051  -51.4386 H         1 UNK         0.0600 
    192 H192       -4.7567  -21.2845  -48.5381 H         1 UNK         0.0600 
    193 H193       -6.1395  -21.1271  -49.6051 H         1 UNK         0.0600 
    194 H194       -5.2840  -19.6910  -49.0794 H         1 UNK         0.0600 
    195 H195       -2.2426  -22.4571  -50.1596 H         1 UNK         0.3000 
    196 H196       -3.3362  -24.9874  -50.9316 H         1 UNK         0.0600 
    197 H197       -0.9106  -25.6810  -50.9268 H         1 UNK         0.0600 
    198 H198       -1.3549  -24.8226  -49.4691 H         1 UNK         0.0600 
    199 H199       -0.4369  -23.9983  -50.7240 H         1 UNK         0.0600 
    200 H200       -1.6022  -22.4291  -52.7471 H         1 UNK         0.3000 
    201 H201       -1.2524  -24.0235  -55.1566 H         1 UNK         0.0600 
    202 H202        0.3378  -22.2011  -54.5120 H         1 UNK         0.0600 
    203 H203       -0.9471  -21.0074  -54.6924 H         1 UNK         0.0600 
    204 H204       -0.3786  -21.9088  -56.0895 H         1 UNK         0.0600 
    205 H205       -3.6674  -21.8257  -53.8602 H         1 UNK         0.3000 
    206 H206       -5.2307  -21.5810  -56.3161 H         1 UNK         0.0600 
    207 H207       -5.1805  -19.7979  -54.5374 H         1 UNK         0.0600 
    208 H208       -6.8083  -20.3816  -54.8439 H         1 UNK         0.0600 
    209 H209       -5.9489  -20.9156  -53.4086 H         1 UNK         0.0600 
    210 H210       -4.7966  -24.0262  -54.0099 H         1 UNK         0.3000 
    211 H211       -5.7050  -25.9385  -53.4573 H         1 UNK         0.0600 
    212 H212       -7.6381  -25.6851  -55.8184 H         1 UNK         0.0600 
    213 H213       -7.2042  -27.1561  -54.9626 H         1 UNK         0.0600 
    214 H214       -5.9960  -26.3203  -55.9231 H         1 UNK         0.0600 
    215 H215       -6.7785  -23.3488  -52.4671 H         1 UNK         0.3000 
    216 H216       -9.5063  -24.0176  -51.5159 H         1 UNK         0.0600 
    217 H217       -9.2974  -21.7420  -50.4213 H         1 UNK         0.0600 
    218 H218       -9.1531  -21.6987  -52.1719 H         1 UNK         0.0600 
    219 H219       -7.7145  -21.5593  -51.1735 H         1 UNK         0.0600 
    220 H220       -6.1568  -23.7755  -50.4332 H         1 UNK         0.3000 
    221 H221       -5.0021  -24.4463  -48.6507 H         1 UNK         0.0600 
    222 H222       -7.0651  -26.7104  -48.7108 H         1 UNK         0.0600 
    223 H223       -5.6137  -26.6015  -49.7042 H         1 UNK         0.0600 
    224 H224       -5.4774  -26.8060  -47.9664 H         1 UNK         0.0600 
    225 H225       -6.4895  -22.3904  -47.7933 H         1 UNK         0.3000 
    226 H226       -8.2097  -22.7509  -45.6298 H         1 UNK         0.0600 
    227 H227       -8.0310  -20.6299  -46.8503 H         1 UNK         0.0600 
    228 H228       -7.6942  -20.3309  -45.1517 H         1 UNK         0.0600 
    229 H229       -6.3709  -20.4042  -46.3081 H         1 UNK         0.0600 
    230 H230       -4.6720  -22.2342  -45.5438 H         1 UNK         0.3000 
    231 H231       -4.5869  -23.6492  -42.9175 H         1 UNK         0.0600 
    232 H232       -3.9842  -21.2555  -42.5072 H         1 UNK         0.0600 
    233 H233       -2.7298  -21.3506  -43.7449 H         1 UNK         0.0600 
    234 H234       -2.6053  -22.3195  -42.2865 H         1 UNK         0.0600 
    235 H235       -2.9980  -22.7616  -45.9600 H         1 UNK         0.3000 
    236 H236       -2.0102  -23.8492  -47.5301 H         1 UNK         0.0600 
    237 H237       -2.3691  -26.4918  -46.0260 H         1 UNK         0.0600 
    238 H238       -3.5198  -25.7955  -47.1615 H         1 UNK         0.0600 
    239 H239       -1.9324  -26.3102  -47.7126 H         1 UNK         0.0600 
    240 H240        0.0481  -23.6413  -48.0260 H         1 UNK         0.3000 
    241 H241        2.1673  -23.6465  -46.1541 H         1 UNK         0.0600 
    242 H242        3.8129  -25.2088  -45.6543 H         1 UNK         0.3800 
    243 H243        3.7433  -26.8437  -46.2485 H         1 UNK         0.3800 
    244 H244        1.9570  -22.4074  -48.4624 H         1 UNK         0.0800 
    245 H245        2.5453  -23.8777  -49.1841 H         1 UNK         0.0800 
    246 H246        4.5678  -22.7458  -50.2292 H         1 UNK         0.0800 
    247 H247        5.8209  -21.8642  -49.3951 H         1 UNK         0.0800 
@<TRIPOS>BOND
     1    1    2 1    
     2    1  127 1    
     3    1  128 1    
     4    1  129 1    
     5    2    3 2    
     6    2    4 am   BACKBONE|DICT|INTERRES
     7    4    5 1    
     8    4  130 1    
     9    5    6 1    
    10    5   65 1    
    11    5  131 1    
    12    6    7 1    
    13    6  132 1    
    14    6  133 1    
    15    7    8 1    
    16    8    9 1    
    17    8  134 1    
    18    8  135 1    
    19    9   10 ar   
    20    9   14 ar   
    21   10   11 ar   
    22   10  136 1    
    23   11   12 ar   
    24   11  126 1    
    25   12   13 ar   
    26   12  137 1    
    27   13   14 ar   
    28   13   15 1    
    29   14  138 1    
    30   15   16 1    
    31   15  139 1    
    32   15  140 1    
    33   16   17 1    
    34   17   18 1    
    35   17  141 1    
    36   17  142 1    
    37   18   19 1    
    38   18   67 1    
    39   18  143 1    
    40   19   20 am   BACKBONE|DICT|INTERRES
    41   19  144 1    
    42   20   21 2    
    43   20   22 1    
    44   22   23 1    
    45   22   24 1    
    46   22  145 1    
    47   23  146 1    
    48   23  147 1    
    49   23  148 1    
    50   24   25 am   BACKBONE|DICT|INTERRES
    51   24  149 1    
    52   25   26 2    
    53   25   27 1    
    54   27   28 1    
    55   27   29 1    
    56   27  150 1    
    57   28  151 1    
    58   28  152 1    
    59   28  153 1    
    60   29   30 am   BACKBONE|DICT|INTERRES
    61   29  154 1    
    62   30   31 2    
    63   30   32 1    
    64   32   33 1    
    65   32   34 1    
    66   32  155 1    
    67   33  156 1    
    68   33  157 1    
    69   33  158 1    
    70   34   35 am   BACKBONE|DICT|INTERRES
    71   34  159 1    
    72   35   36 2    
    73   35   37 1    
    74   37   38 1    
    75   37   39 1    
    76   37  160 1    
    77   38  161 1    
    78   38  162 1    
    79   38  163 1    
    80   39   40 am   BACKBONE|DICT|INTERRES
    81   39  164 1    
    82   40   41 2    
    83   40   42 1    
    84   42   43 1    
    85   42   44 1    
    86   42  165 1    
    87   43  166 1    
    88   43  167 1    
    89   43  168 1    
    90   44   45 am   BACKBONE|DICT|INTERRES
    91   44  169 1    
    92   45   46 2    
    93   45   47 1    
    94   47   48 1    
    95   47   49 1    
    96   47  170 1    
    97   48  171 1    
    98   48  172 1    
    99   48  173 1    
   100   49   50 am   BACKBONE|DICT|INTERRES
   101   49  174 1    
   102   50   51 2    
   103   50   52 1    
   104   52   53 1    
   105   52   54 1    
   106   52  175 1    
   107   53  176 1    
   108   53  177 1    
   109   53  178 1    
   110   54   55 am   BACKBONE|DICT|INTERRES
   111   54  179 1    
   112   55   56 2    
   113   55   57 1    
   114   57   58 1    
   115   57   59 1    
   116   57  180 1    
   117   58  181 1    
   118   58  182 1    
   119   58  183 1    
   120   59   60 am   BACKBONE|DICT|INTERRES
   121   59  184 1    
   122   60   61 2    
   123   60   62 1    
   124   62   63 1    
   125   62   64 1    
   126   62  185 1    
   127   63  186 1    
   128   63  187 1    
   129   63  188 1    
   130   64   65 am   BACKBONE|DICT|INTERRES
   131   64  189 1    
   132   65   66 2    
   133   67   68 2    
   134   67   69 am   BACKBONE|DICT|INTERRES
   135   69   70 1    
   136   69  190 1    
   137   70   71 1    
   138   70   72 1    
   139   70  191 1    
   140   71  192 1    
   141   71  193 1    
   142   71  194 1    
   143   72   73 2    
   144   72   74 am   BACKBONE|DICT|INTERRES
   145   74   75 1    
   146   74  195 1    
   147   75   76 1    
   148   75   77 1    
   149   75  196 1    
   150   76  197 1    
   151   76  198 1    
   152   76  199 1    
   153   77   78 2    
   154   77   79 am   BACKBONE|DICT|INTERRES
   155   79   80 1    
   156   79  200 1    
   157   80   81 1    
   158   80   82 1    
   159   80  201 1    
   160   81  202 1    
   161   81  203 1    
   162   81  204 1    
   163   82   83 2    
   164   82   84 am   BACKBONE|DICT|INTERRES
   165   84   85 1    
   166   84  205 1    
   167   85   86 1    
   168   85   87 1    
   169   85  206 1    
   170   86  207 1    
   171   86  208 1    
   172   86  209 1    
   173   87   88 2    
   174   87   89 am   BACKBONE|DICT|INTERRES
   175   89   90 1    
   176   89  210 1    
   177   90   91 1    
   178   90   92 1    
   179   90  211 1    
   180   91  212 1    
   181   91  213 1    
   182   91  214 1    
   183   92   93 2    
   184   92   94 am   BACKBONE|DICT|INTERRES
   185   94   95 1    
   186   94  215 1    
   187   95   96 1    
   188   95   97 1    
   189   95  216 1    
   190   96  217 1    
   191   96  218 1    
   192   96  219 1    
   193   97   98 2    
   194   97   99 am   BACKBONE|DICT|INTERRES
   195   99  100 1    
   196   99  220 1    
   197  100  101 1    
   198  100  102 1    
   199  100  221 1    
   200  101  222 1    
   201  101  223 1    
   202  101  224 1    
   203  102  103 2    
   204  102  104 am   BACKBONE|DICT|INTERRES
   205  104  105 1    
   206  104  225 1    
   207  105  106 1    
   208  105  107 1    
   209  105  226 1    
   210  106  227 1    
   211  106  228 1    
   212  106  229 1    
   213  107  108 2    
   214  107  109 am   BACKBONE|DICT|INTERRES
   215  109  110 1    
   216  109  230 1    
   217  110  111 1    
   218  110  112 1    
   219  110  231 1    
   220  111  232 1    
   221  111  233 1    
   222  111  234 1    
   223  112  113 2    
   224  112  114 am   BACKBONE|DICT|INTERRES
   225  114  115 1    
   226  114  235 1    
   227  115  116 1    
   228  115  117 1    
   229  115  236 1    
   230  116  237 1    
   231  116  238 1    
   232  116  239 1    
   233  117  118 2    
   234  117  119 am   BACKBONE|DICT|INTERRES
   235  119  120 1    
   236  119  240 1    
   237  120  121 1    
   238  120  124 1    
   239  120  241 1    
   240  121  122 am   BACKBONE|DICT|INTERRES
   241  121  123 2    
   242  122  242 1    
   243  122  243 1    
   244  124  125 1    
   245  124  244 1    
   246  124  245 1    
   247  125  126 1    
   248  126  246 1    
   249  126  247 1    
@<TRIPOS>SUBSTRUCTURE
     1 UNK         1 GROUP             0       ****    0 ROOT    
