@<TRIPOS>MOLECULE
3R540
247   249    1
SMALL
USER_CHARGES


@<TRIPOS>ATOM
      1 CA         -5.6926  -17.1111  -47.0214 C.3       0 UNK        -0.1800 
      2 C          -4.3550  -17.7562  -46.6640 C.2       0 UNK         0.5000 
      3 O          -4.3547  -18.8058  -46.0270 O.2       0 UNK        -0.5000 
      4 N          -3.1939  -17.1845  -47.0209 N.am      1 UNK        -0.5000 
      5 CA         -2.9631  -15.9107  -47.7218 C.3       1 UNK         0.1400 
      6 C6         -1.4882  -15.7744  -48.1776 C.3       23 UNK        -0.0398 
      7 S7         -1.0560  -17.0665  -49.3852 S.3       23 UNK        -0.2404 
      8 C8          0.7407  -17.2417  -49.1611 C.3       23 UNK        -0.0205 
      9 C9          1.3029  -18.3719  -50.0185 C.ar      23 UNK        -0.0193 
     10 C10         1.2552  -18.2912  -51.4147 C.ar      23 UNK        -0.1150 
     11 C11         1.7525  -19.3300  -52.2069 C.ar      23 UNK        -0.0193 
     12 C12         2.3179  -20.4473  -51.5877 C.ar      23 UNK        -0.1150 
     13 C13         2.3839  -20.5493  -50.1954 C.ar      23 UNK        -0.0193 
     14 C14         1.8746  -19.4989  -49.4169 C.ar      23 UNK        -0.1150 
     15 C15         3.0242  -21.8123  -49.6105 C.3       23 UNK        -0.0205 
     16 S16         3.1162  -21.9194  -47.7910 S.3       23 UNK        -0.2404 
     17 C17         1.3775  -22.2634  -47.3467 C.3       23 UNK        -0.0398 
     18 CA          1.2519  -23.1665  -46.0920 C.3       11 UNK         0.1400 
     19 N           1.9207  -22.5784  -44.9338 N.am      11 UNK        -0.5000 
     20 C           2.4949  -23.2490  -43.9310 C.2       10 UNK         0.5000 
     21 O           2.4680  -24.4766  -43.8276 O.2       10 UNK        -0.5000 
     22 CA          3.2074  -22.3995  -42.8638 C.3       10 UNK         0.1400 
     23 CB          4.5134  -21.8064  -43.4162 C.3       10 UNK        -0.1800 
     24 N           2.3588  -21.3191  -42.3637 N.am      10 UNK        -0.5000 
     25 C           1.3144  -21.4980  -41.5433 C.2       9 UNK         0.5000 
     26 O           0.9798  -22.5926  -41.0885 O.2       9 UNK        -0.5000 
     27 CA          0.5056  -20.2435  -41.1650 C.3       9 UNK         0.1400 
     28 CB          1.1728  -19.5000  -39.9977 C.3       9 UNK        -0.1800 
     29 N           0.3264  -19.3238  -42.2876 N.am      9 UNK        -0.5000 
     30 C          -0.4133  -19.5877  -43.3740 C.2       8 UNK         0.5000 
     31 O          -1.0707  -20.6175  -43.5209 O.2       8 UNK        -0.5000 
     32 CA         -0.4015  -18.5270  -44.4911 C.3       8 UNK         0.1400 
     33 CB         -1.3975  -17.4029  -44.1714 C.3       8 UNK        -0.1800 
     34 N           0.9205  -17.9412  -44.7186 N.am      8 UNK        -0.5000 
     35 C           2.0121  -18.6234  -45.0898 C.2       7 UNK         0.5000 
     36 O           2.0199  -19.8310  -45.3041 O.2       7 UNK        -0.5000 
     37 CA          3.3297  -17.8391  -45.1790 C.3       7 UNK         0.1400 
     38 CB          3.4305  -17.0676  -46.5028 C.3       7 UNK        -0.1800 
     39 N           3.4787  -16.9202  -44.0530 N.am      7 UNK        -0.5000 
     40 C           3.7157  -17.3094  -42.7923 C.2       6 UNK         0.5000 
     41 O           3.8812  -18.4827  -42.4561 O.2       6 UNK        -0.5000 
     42 CA          3.7271  -16.2002  -41.7249 C.3       6 UNK         0.1400 
     43 CB          5.0980  -15.5094  -41.6725 C.3       6 UNK        -0.1800 
     44 N           2.6837  -15.1969  -41.9487 N.am      6 UNK        -0.5000 
     45 C           1.3711  -15.4435  -41.8393 C.2       5 UNK         0.5000 
     46 O           0.9071  -16.5372  -41.5189 O.2       5 UNK        -0.5000 
     47 CA          0.4146  -14.2871  -42.1820 C.3       5 UNK         0.1400 
     48 CB          0.2080  -13.3785  -40.9614 C.3       5 UNK        -0.1800 
     49 N           0.8348  -13.4721  -43.3253 N.am      5 UNK        -0.5000 
     50 C           1.0441  -13.9269  -44.5677 C.2       4 UNK         0.5000 
     51 O           1.0056  -15.1186  -44.8749 O.2       4 UNK        -0.5000 
     52 CA          1.2537  -12.8572  -45.6521 C.3       4 UNK         0.1400 
     53 CB          1.7541  -13.4469  -46.9831 C.3       4 UNK        -0.1800 
     54 N          -0.0245  -12.1903  -45.8789 N.am      4 UNK        -0.5000 
     55 C          -0.4473  -11.0958  -45.2343 C.2       3 UNK         0.5000 
     56 O           0.2528  -10.4379  -44.4638 O.2       3 UNK        -0.5000 
     57 CA         -1.9240  -10.7195  -45.4441 C.3       3 UNK         0.1400 
     58 CB         -2.1144   -9.9591  -46.7652 C.3       3 UNK        -0.1800 
     59 N          -2.7951  -11.8969  -45.4304 N.am      3 UNK        -0.5000 
     60 C          -3.0539  -12.6517  -44.3551 C.2       2 UNK         0.5000 
     61 O          -2.6006  -12.4196  -43.2346 O.2       2 UNK        -0.5000 
     62 CA         -3.9691  -13.8749  -44.5571 C.3       2 UNK         0.1400 
     63 CB         -5.4282  -13.4497  -44.8113 C.3       2 UNK        -0.1800 
     64 N          -3.5073  -14.8318  -45.5720 N.am      2 UNK        -0.5000 
     65 C          -3.3853  -14.6726  -46.8989 C.2       1 UNK         0.5000 
     66 O          -3.6022  -13.6129  -47.4864 O.2       1 UNK        -0.5000 
     67 C          -0.2172  -23.4711  -45.7423 C.2       11 UNK         0.5000 
     68 O          -1.1272  -22.8628  -46.3014 O.2       11 UNK        -0.5000 
     69 N          -0.4356  -24.4138  -44.8173 N.am      12 UNK        -0.5000 
     70 CA         -1.7691  -24.8440  -44.3841 C.3       12 UNK         0.1400 
     71 CB         -1.6242  -25.7473  -43.1506 C.3       12 UNK        -0.1800 
     72 C          -2.5788  -25.5577  -45.4890 C.2       12 UNK         0.5000 
     73 O          -3.8100  -25.5512  -45.4388 O.2       12 UNK        -0.5000 
     74 N          -1.8712  -26.1550  -46.4596 N.am      13 UNK        -0.5000 
     75 CA         -2.4032  -26.8936  -47.6035 C.3       13 UNK         0.1400 
     76 CB         -1.2290  -27.4207  -48.4437 C.3       13 UNK        -0.1800 
     77 C          -3.3622  -26.0531  -48.4679 C.2       13 UNK         0.5000 
     78 O          -2.9259  -25.1079  -49.1314 O.2       13 UNK        -0.5000 
     79 N          -4.6508  -26.4218  -48.4275 N.am      14 UNK        -0.5000 
     80 CA         -5.7665  -25.8467  -49.1871 C.3       14 UNK         0.1400 
     81 CB         -5.6446  -26.2326  -50.6766 C.3       14 UNK        -0.1800 
     82 C          -5.9422  -24.3276  -48.9791 C.2       14 UNK         0.5000 
     83 O          -6.2770  -23.6211  -49.9303 O.2       14 UNK        -0.5000 
     84 N          -5.6856  -23.8520  -47.7493 N.am      15 UNK        -0.5000 
     85 CA         -5.6707  -22.4390  -47.3456 C.3       15 UNK         0.1400 
     86 CB         -7.0949  -21.8448  -47.3653 C.3       15 UNK        -0.1800 
     87 C          -4.6657  -21.6227  -48.1838 C.2       15 UNK         0.5000 
     88 O          -5.0399  -20.6409  -48.8292 O.2       15 UNK        -0.5000 
     89 N          -3.4156  -22.1063  -48.1976 N.am      16 UNK        -0.5000 
     90 CA         -2.2719  -21.5946  -48.9533 C.3       16 UNK         0.1400 
     91 CB         -1.8108  -20.2501  -48.3721 C.3       16 UNK        -0.1800 
     92 C          -2.5534  -21.5475  -50.4641 C.2       16 UNK         0.5000 
     93 O          -2.4181  -20.4956  -51.0935 O.2       16 UNK        -0.5000 
     94 N          -2.9869  -22.7035  -50.9910 N.am      17 UNK        -0.5000 
     95 CA         -3.4007  -22.9379  -52.3763 C.3       17 UNK         0.1400 
     96 CB         -2.1730  -22.9275  -53.3087 C.3       17 UNK        -0.1800 
     97 C          -4.5003  -21.9548  -52.8246 C.2       17 UNK         0.5000 
     98 O          -4.3094  -21.2149  -53.7891 O.2       17 UNK        -0.5000 
     99 N          -5.6145  -21.9428  -52.0793 N.am      18 UNK        -0.5000 
    100 CA        -6.7914  -21.0895  -52.2595 C.3       18 UNK         0.1400 
    101 CB        -7.5769  -21.5174  -53.5165 C.3       18 UNK        -0.1800 
    102 C         -6.4482  -19.5853  -52.2372 C.2       18 UNK         0.5000 
    103 O         -6.8794  -18.8400  -53.1190 O.2       18 UNK        -0.5000 
    104 N         -5.6703  -19.1812  -51.2222 N.am      19 UNK        -0.5000 
    105 CA        -5.1626  -17.8314  -50.9755 C.3       19 UNK         0.1400 
    106 CB        -6.3185  -16.8739  -50.6156 C.3       19 UNK        -0.1800 
    107 C         -4.2852  -17.3120  -52.1327 C.2       19 UNK         0.5000 
    108 O         -4.6139  -16.3007  -52.7565 O.2       19 UNK        -0.5000 
    109 N         -3.1752  -18.0189  -52.3808 N.am      20 UNK        -0.5000 
    110 CA        -2.1231  -17.6948  -53.3470 C.3       20 UNK         0.1400 
    111 CB        -1.4934  -16.3108  -53.0659 C.3       20 UNK        -0.1800 
    112 C         -2.5460  -17.8380  -54.8218 C.2       20 UNK         0.5000 
    113 O         -2.0036  -17.1325  -55.6749 O.2       20 UNK        -0.5000 
    114 N         -3.4340  -18.7906  -55.1396 N.am      21 UNK        -0.5000 
    115 CA        -3.7541  -19.1898  -56.5168 C.3       21 UNK         0.1400 
    116 CB        -5.2096  -19.6860  -56.5876 C.3       21 UNK        -0.1800 
    117 C         -2.7325  -20.2290  -57.0363 C.2       21 UNK         0.5000 
    118 O         -3.1093  -21.2411  -57.6303 O.2       21 UNK        -0.5000 
    119 N         -1.4506  -19.9652  -56.7640 N.am      22 UNK        -0.5000 
    120 CA        -0.2929  -20.8104  -57.0669 C.3       22 UNK         0.1400 
    121 C          0.0598  -20.8114  -58.5790 C.2       22 UNK         0.5000 
    122 N          0.5401  -21.9285  -59.1080 N.am      22 UNK        -0.7600 
    123 O         -0.0571  -19.8002  -59.2686 O.2       22 UNK        -0.5000 
    124 C124        0.9316  -20.3874  -56.2132 C.3       23 UNK        -0.0398 
    125 S125        0.6080  -20.5362  -54.4212 S.3       23 UNK        -0.2404 
    126 C126        1.6982  -19.2526  -53.7283 C.3       23 UNK        -0.0205 
    127 H127       -6.3854  -17.8767  -47.3713 H         1 UNK         0.0600 
    128 H128       -5.6185  -16.3576  -47.8017 H         1 UNK         0.0600 
    129 H129       -6.1264  -16.6435  -46.1379 H         1 UNK         0.0600 
    130 H130       -2.3503  -17.6950  -46.8093 H         1 UNK         0.3000 
    131 H131       -3.5794  -15.9101  -48.6227 H         1 UNK         0.0600 
    132 H132       -0.8124  -15.8309  -47.3220 H         1 UNK         0.0800 
    133 H133       -1.3110  -14.8084  -48.6545 H         1 UNK         0.0800 
    134 H134        1.2353  -16.3051  -49.4216 H         1 UNK         0.0800 
    135 H135        0.9439  -17.4249  -48.1056 H         1 UNK         0.0800 
    136 H136        0.8222  -17.4191  -51.8808 H         1 UNK         0.1150 
    137 H137        2.7062  -21.2490  -52.2006 H         1 UNK         0.1150 
    138 H138        1.9158  -19.5460  -48.3394 H         1 UNK         0.1150 
    139 H139        2.4997  -22.6900  -49.9910 H         1 UNK         0.0800 
    140 H140        4.0438  -21.8799  -49.9923 H         1 UNK         0.0800 
    141 H141        0.8858  -22.7379  -48.1970 H         1 UNK         0.0800 
    142 H142        0.8660  -21.3128  -47.1895 H         1 UNK         0.0800 
    143 H143        1.7292  -24.1197  -46.3294 H         1 UNK         0.0600 
    144 H144        1.9787  -21.5605  -44.9454 H         1 UNK         0.3000 
    145 H145        3.4624  -23.0548  -42.0282 H         1 UNK         0.0600 
    146 H146        5.1726  -22.5917  -43.7882 H         1 UNK         0.0600 
    147 H147        4.3284  -21.1152  -44.2394 H         1 UNK         0.0600 
    148 H148        5.0566  -21.2634  -42.6425 H         1 UNK         0.0600 
    149 H149        2.5796  -20.3821  -42.6764 H         1 UNK         0.3000 
    150 H150       -0.4828  -20.5720  -40.8369 H         1 UNK         0.0600 
    151 H151        1.3158  -20.1615  -39.1424 H         1 UNK         0.0600 
    152 H152        0.5597  -18.6633  -39.6626 H         1 UNK         0.0600 
    153 H153        2.1506  -19.1063  -40.2775 H         1 UNK         0.0600 
    154 H154        0.7747  -18.4164  -42.2100 H         1 UNK         0.3000 
    155 H155       -0.7099  -19.0120  -45.4192 H         1 UNK         0.0600 
    156 H156       -1.3632  -16.6198  -44.9268 H         1 UNK         0.0600 
    157 H157       -1.1855  -16.9401  -43.2081 H         1 UNK         0.0600 
    158 H158       -2.4168  -17.7880  -44.1288 H         1 UNK         0.0600 
    159 H159        0.9982  -16.9331  -44.6032 H         1 UNK         0.3000 
    160 H160        4.1514  -18.5580  -45.1452 H         1 UNK         0.0600 
    161 H161        2.6102  -16.3611  -46.6240 H         1 UNK         0.0600 
    162 H162        3.4036  -17.7513  -47.3518 H         1 UNK         0.0600 
    163 H163        4.3654  -16.5109  -46.5658 H         1 UNK         0.0600 
    164 H164        3.2887  -15.9456  -44.2332 H         1 UNK         0.3000 
    165 H165        3.5450  -16.6703  -40.7560 H         1 UNK         0.0600 
    166 H166        5.1388  -14.7755  -40.8675 H         1 UNK         0.0600 
    167 H167        5.8927  -16.2343  -41.4907 H         1 UNK         0.0600 
    168 H168        5.3287  -14.9967  -42.6071 H         1 UNK         0.0600 
    169 H169        2.9819  -14.2716  -42.2204 H         1 UNK         0.3000 
    170 H170       -0.5508  -14.7270  -42.4391 H         1 UNK         0.0600 
    171 H171       -0.1277  -13.9541  -40.0976 H         1 UNK         0.0600 
    172 H172        1.1287  -12.8667  -40.6789 H         1 UNK         0.0600 
    173 H173       -0.5507  -12.6209  -41.1594 H         1 UNK         0.0600 
    174 H174        0.8477  -12.4718  -43.1792 H         1 UNK         0.3000 
    175 H175        2.0010  -12.1458  -45.2946 H         1 UNK         0.0600 
    176 H176        1.8831  -12.6667  -47.7333 H         1 UNK         0.0600 
    177 H177        2.7220  -13.9317  -46.8524 H         1 UNK         0.0600 
    178 H178        1.0656  -14.1881  -47.3893 H         1 UNK         0.0600 
    179 H179       -0.6880  -12.6804  -46.4594 H         1 UNK         0.3000 
    180 H180       -2.2230  -10.0628  -44.6244 H         1 UNK         0.0600 
    181 H181       -1.8622  -10.5774  -47.6277 H         1 UNK         0.0600 
    182 H182       -1.4816   -9.0713  -46.7997 H         1 UNK         0.0600 
    183 H183       -3.1462   -9.6271  -46.8822 H         1 UNK         0.0600 
    184 H184       -3.1851  -12.2023  -46.3183 H         1 UNK         0.3000 
    185 H185       -3.9574  -14.4253  -43.6147 H         1 UNK         0.0600 
    186 H186       -5.7899  -12.8043  -44.0099 H         1 UNK         0.0600 
    187 H187       -5.5405  -12.9000  -45.7460 H         1 UNK         0.0600 
    188 H188       -6.0883  -14.3161  -44.8523 H         1 UNK         0.0600 
    189 H189       -3.2827  -15.7467  -45.2088 H         1 UNK         0.3000 
    190 H190        0.3641  -24.8378  -44.3620 H         1 UNK         0.3000 
    191 H191       -2.3303  -23.9540  -44.0912 H         1 UNK         0.0600 
    192 H192       -1.0501  -26.6470  -43.3759 H         1 UNK         0.0600 
    193 H193       -1.1228  -25.2235  -42.3362 H         1 UNK         0.0600 
    194 H194       -2.6003  -26.0636  -42.7805 H         1 UNK         0.0600 
    195 H195       -0.8667  -26.0818  -46.4097 H         1 UNK         0.3000 
    196 H196       -2.9467  -27.7557  -47.2115 H         1 UNK         0.0600 
    197 H197       -1.5881  -27.9832  -49.3065 H         1 UNK         0.0600 
    198 H198       -0.5951  -28.0901  -47.8618 H         1 UNK         0.0600 
    199 H199       -0.6048  -26.6084  -48.8188 H         1 UNK         0.0600 
    200 H200       -4.9024  -27.1818  -47.8105 H         1 UNK         0.3000 
    201 H201       -6.6757  -26.3087  -48.8001 H         1 UNK         0.0600 
    202 H202       -5.5714  -27.3133  -50.7978 H         1 UNK         0.0600 
    203 H203       -4.7647  -25.7852  -51.1385 H         1 UNK         0.0600 
    204 H204       -6.5168  -25.9041  -51.2432 H         1 UNK         0.0600 
    205 H205       -5.3820  -24.5127  -47.0449 H         1 UNK         0.3000 
    206 H206       -5.3135  -22.4088  -46.3151 H         1 UNK         0.0600 
    207 H207       -7.7732  -22.4262  -46.7411 H         1 UNK         0.0600 
    208 H208       -7.0925  -20.8239  -46.9811 H         1 UNK         0.0600 
    209 H209       -7.5106  -21.8117  -48.3728 H         1 UNK         0.0600 
    210 H210       -3.2163  -22.9354  -47.6550 H         1 UNK         0.3000 
    211 H211       -1.4619  -22.3115  -48.8214 H         1 UNK         0.0600 
    212 H212       -2.5519  -19.4706  -48.5438 H         1 UNK         0.0600 
    213 H213       -0.8785  -19.9360  -48.8377 H         1 UNK         0.0600 
    214 H214       -1.6349  -20.3194  -47.2991 H         1 UNK         0.0600 
    215 H215       -3.0714  -23.4999  -50.3655 H         1 UNK         0.3000 
    216 H216       -3.8377  -23.9361  -52.4119 H         1 UNK         0.0600 
    217 H217       -2.4556  -23.1736  -54.3329 H         1 UNK         0.0600 
    218 H218       -1.4269  -23.6554  -52.9906 H         1 UNK         0.0600 
    219 H219       -1.6977  -21.9473  -53.3289 H         1 UNK         0.0600 
    220 H220       -5.6736  -22.5713  -51.2793 H         1 UNK         0.3000 
    221 H221       -7.4313  -21.2690  -51.3942 H         1 UNK         0.0600 
    222 H222       -7.0066  -21.3440  -54.4290 H         1 UNK         0.0600 
    223 H223       -7.8340  -22.5759  -53.4779 H         1 UNK         0.0600 
    224 H224       -8.5102  -20.9600  -53.6027 H         1 UNK         0.0600 
    225 H225       -5.3784  -19.8735  -50.5348 H         1 UNK         0.3000 
    226 H226       -4.5140  -17.9075  -50.1009 H         1 UNK         0.0600 
    227 H227       -6.9133  -17.2656  -49.7910 H         1 UNK         0.0600 
    228 H228       -5.9346  -15.9000  -50.3104 H         1 UNK         0.0600 
    229 H229       -6.9898  -16.7091  -51.4588 H         1 UNK         0.0600 
    230 H230       -3.0063  -18.8674  -51.8414 H         1 UNK         0.3000 
    231 H231       -1.3478  -18.4440  -53.1828 H         1 UNK         0.0600 
    232 H232       -2.1596  -15.4961  -53.3505 H         1 UNK         0.0600 
    233 H233       -0.5689  -16.1826  -53.6298 H         1 UNK         0.0600 
    234 H234       -1.2476  -16.1806  -52.0158 H         1 UNK         0.0600 
    235 H235       -3.7863  -19.4092  -54.4137 H         1 UNK         0.3000 
    236 H236       -3.6835  -18.3184  -57.1708 H         1 UNK         0.0600 
    237 H237       -5.8966  -18.9659  -56.1424 H         1 UNK         0.0600 
    238 H238       -5.5179  -19.8349  -57.6228 H         1 UNK         0.0600 
    239 H239       -5.3406  -20.6364  -56.0719 H         1 UNK         0.0600 
    240 H240       -1.2434  -19.0811  -56.3205 H         1 UNK         0.3000 
    241 H241       -0.5599  -21.8322  -56.7891 H         1 UNK         0.0600 
    242 H242        0.7876  -21.9403  -60.0857 H         1 UNK         0.3800 
    243 H243        0.6522  -22.7687  -58.5614 H         1 UNK         0.3800 
    244 H244        1.7963  -21.0109  -56.4470 H         1 UNK         0.0800 
    245 H245        1.2201  -19.3606  -56.4453 H         1 UNK         0.0800 
    246 H246        1.3504  -18.2714  -54.0552 H         1 UNK         0.0800 
    247 H247        2.7060  -19.3779  -54.1270 H         1 UNK         0.0800 
@<TRIPOS>BOND
     1    1    2 1    
     2    1  127 1    
     3    1  128 1    
     4    1  129 1    
     5    2    3 2    
     6    2    4 am   BACKBONE|DICT|INTERRES
     7    4    5 1    
     8    4  130 1    
     9    5    6 1    
    10    5   65 1    
    11    5  131 1    
    12    6    7 1    
    13    6  132 1    
    14    6  133 1    
    15    7    8 1    
    16    8    9 1    
    17    8  134 1    
    18    8  135 1    
    19    9   10 ar   
    20    9   14 ar   
    21   10   11 ar   
    22   10  136 1    
    23   11   12 ar   
    24   11  126 1    
    25   12   13 ar   
    26   12  137 1    
    27   13   14 ar   
    28   13   15 1    
    29   14  138 1    
    30   15   16 1    
    31   15  139 1    
    32   15  140 1    
    33   16   17 1    
    34   17   18 1    
    35   17  141 1    
    36   17  142 1    
    37   18   19 1    
    38   18   67 1    
    39   18  143 1    
    40   19   20 am   BACKBONE|DICT|INTERRES
    41   19  144 1    
    42   20   21 2    
    43   20   22 1    
    44   22   23 1    
    45   22   24 1    
    46   22  145 1    
    47   23  146 1    
    48   23  147 1    
    49   23  148 1    
    50   24   25 am   BACKBONE|DICT|INTERRES
    51   24  149 1    
    52   25   26 2    
    53   25   27 1    
    54   27   28 1    
    55   27   29 1    
    56   27  150 1    
    57   28  151 1    
    58   28  152 1    
    59   28  153 1    
    60   29   30 am   BACKBONE|DICT|INTERRES
    61   29  154 1    
    62   30   31 2    
    63   30   32 1    
    64   32   33 1    
    65   32   34 1    
    66   32  155 1    
    67   33  156 1    
    68   33  157 1    
    69   33  158 1    
    70   34   35 am   BACKBONE|DICT|INTERRES
    71   34  159 1    
    72   35   36 2    
    73   35   37 1    
    74   37   38 1    
    75   37   39 1    
    76   37  160 1    
    77   38  161 1    
    78   38  162 1    
    79   38  163 1    
    80   39   40 am   BACKBONE|DICT|INTERRES
    81   39  164 1    
    82   40   41 2    
    83   40   42 1    
    84   42   43 1    
    85   42   44 1    
    86   42  165 1    
    87   43  166 1    
    88   43  167 1    
    89   43  168 1    
    90   44   45 am   BACKBONE|DICT|INTERRES
    91   44  169 1    
    92   45   46 2    
    93   45   47 1    
    94   47   48 1    
    95   47   49 1    
    96   47  170 1    
    97   48  171 1    
    98   48  172 1    
    99   48  173 1    
   100   49   50 am   BACKBONE|DICT|INTERRES
   101   49  174 1    
   102   50   51 2    
   103   50   52 1    
   104   52   53 1    
   105   52   54 1    
   106   52  175 1    
   107   53  176 1    
   108   53  177 1    
   109   53  178 1    
   110   54   55 am   BACKBONE|DICT|INTERRES
   111   54  179 1    
   112   55   56 2    
   113   55   57 1    
   114   57   58 1    
   115   57   59 1    
   116   57  180 1    
   117   58  181 1    
   118   58  182 1    
   119   58  183 1    
   120   59   60 am   BACKBONE|DICT|INTERRES
   121   59  184 1    
   122   60   61 2    
   123   60   62 1    
   124   62   63 1    
   125   62   64 1    
   126   62  185 1    
   127   63  186 1    
   128   63  187 1    
   129   63  188 1    
   130   64   65 am   BACKBONE|DICT|INTERRES
   131   64  189 1    
   132   65   66 2    
   133   67   68 2    
   134   67   69 am   BACKBONE|DICT|INTERRES
   135   69   70 1    
   136   69  190 1    
   137   70   71 1    
   138   70   72 1    
   139   70  191 1    
   140   71  192 1    
   141   71  193 1    
   142   71  194 1    
   143   72   73 2    
   144   72   74 am   BACKBONE|DICT|INTERRES
   145   74   75 1    
   146   74  195 1    
   147   75   76 1    
   148   75   77 1    
   149   75  196 1    
   150   76  197 1    
   151   76  198 1    
   152   76  199 1    
   153   77   78 2    
   154   77   79 am   BACKBONE|DICT|INTERRES
   155   79   80 1    
   156   79  200 1    
   157   80   81 1    
   158   80   82 1    
   159   80  201 1    
   160   81  202 1    
   161   81  203 1    
   162   81  204 1    
   163   82   83 2    
   164   82   84 am   BACKBONE|DICT|INTERRES
   165   84   85 1    
   166   84  205 1    
   167   85   86 1    
   168   85   87 1    
   169   85  206 1    
   170   86  207 1    
   171   86  208 1    
   172   86  209 1    
   173   87   88 2    
   174   87   89 am   BACKBONE|DICT|INTERRES
   175   89   90 1    
   176   89  210 1    
   177   90   91 1    
   178   90   92 1    
   179   90  211 1    
   180   91  212 1    
   181   91  213 1    
   182   91  214 1    
   183   92   93 2    
   184   92   94 am   BACKBONE|DICT|INTERRES
   185   94   95 1    
   186   94  215 1    
   187   95   96 1    
   188   95   97 1    
   189   95  216 1    
   190   96  217 1    
   191   96  218 1    
   192   96  219 1    
   193   97   98 2    
   194   97   99 am   BACKBONE|DICT|INTERRES
   195   99  100 1    
   196   99  220 1    
   197  100  101 1    
   198  100  102 1    
   199  100  221 1    
   200  101  222 1    
   201  101  223 1    
   202  101  224 1    
   203  102  103 2    
   204  102  104 am   BACKBONE|DICT|INTERRES
   205  104  105 1    
   206  104  225 1    
   207  105  106 1    
   208  105  107 1    
   209  105  226 1    
   210  106  227 1    
   211  106  228 1    
   212  106  229 1    
   213  107  108 2    
   214  107  109 am   BACKBONE|DICT|INTERRES
   215  109  110 1    
   216  109  230 1    
   217  110  111 1    
   218  110  112 1    
   219  110  231 1    
   220  111  232 1    
   221  111  233 1    
   222  111  234 1    
   223  112  113 2    
   224  112  114 am   BACKBONE|DICT|INTERRES
   225  114  115 1    
   226  114  235 1    
   227  115  116 1    
   228  115  117 1    
   229  115  236 1    
   230  116  237 1    
   231  116  238 1    
   232  116  239 1    
   233  117  118 2    
   234  117  119 am   BACKBONE|DICT|INTERRES
   235  119  120 1    
   236  119  240 1    
   237  120  121 1    
   238  120  124 1    
   239  120  241 1    
   240  121  122 am   BACKBONE|DICT|INTERRES
   241  121  123 2    
   242  122  242 1    
   243  122  243 1    
   244  124  125 1    
   245  124  244 1    
   246  124  245 1    
   247  125  126 1    
   248  126  246 1    
   249  126  247 1    
@<TRIPOS>SUBSTRUCTURE
     1 UNK         1 GROUP             0       ****    0 ROOT    
