@<TRIPOS>MOLECULE
3R540
247   249    1
SMALL
USER_CHARGES


@<TRIPOS>ATOM
      1 CA          2.6480  -15.7887  -47.3678 C.3       0 UNK        -0.1800 
      2 C           2.0104  -14.5852  -46.6892 C.2       0 UNK         0.5000 
      3 O           2.4392  -14.1992  -45.6031 O.2       0 UNK        -0.5000 
      4 N           1.0035  -13.9839  -47.3381 N.am      1 UNK        -0.5000 
      5 CA          0.1731  -12.8722  -46.8436 C.3       1 UNK         0.1400 
      6 C6         -0.8979  -12.4347  -47.8774 C.3       23 UNK        -0.0398 
      7 S7         -1.9176  -13.8186  -48.4925 S.3       23 UNK        -0.2404 
      8 C8         -1.1994  -14.0525  -50.1543 C.3       23 UNK        -0.0205 
      9 C9         -1.5627  -15.3980  -50.7688 C.ar      23 UNK        -0.0193 
     10 C10        -2.0855  -15.4696  -52.0652 C.ar      23 UNK        -0.1150 
     11 C11        -2.3647  -16.7098  -52.6502 C.ar      23 UNK        -0.0193 
     12 C12        -2.1370  -17.8812  -51.9248 C.ar      23 UNK        -0.1150 
     13 C13        -1.6184  -17.8212  -50.6306 C.ar      23 UNK        -0.0193 
     14 C14        -1.3276  -16.5805  -50.0605 C.ar      23 UNK        -0.1150 
     15 C15        -1.3847  -19.0914  -49.8378 C.3       23 UNK        -0.0205 
     16 S16         0.3878  -19.5066  -49.7382 S.3       23 UNK        -0.2404 
     17 C17         0.5861  -19.7453  -47.9377 C.3       23 UNK        -0.0398 
     18 CA          0.3117  -21.1920  -47.4554 C.3       11 UNK         0.1400 
     19 N           0.6385  -21.3601  -46.0403 N.am      11 UNK        -0.5000 
     20 C           0.6177  -22.5223  -45.3730 C.2       10 UNK         0.5000 
     21 O           0.4001  -23.6145  -45.8998 O.2       10 UNK        -0.5000 
     22 CA          0.8138  -22.4366  -43.8484 C.3       10 UNK         0.1400 
     23 CB          2.3016  -22.3009  -43.4928 C.3       10 UNK        -0.1800 
     24 N           0.0593  -21.3317  -43.2506 N.am      10 UNK        -0.5000 
     25 C          -1.2789  -21.2396  -43.2585 C.2       9 UNK         0.5000 
     26 O          -2.0190  -22.1048  -43.7273 O.2       9 UNK        -0.5000 
     27 CA         -1.8950  -19.9500  -42.6860 C.3       9 UNK         0.1400 
     28 CB         -1.9278  -19.9937  -41.1512 C.3       9 UNK        -0.1800 
     29 N          -1.2017  -18.7408  -43.1332 N.am      9 UNK        -0.5000 
     30 C          -1.1452  -18.3217  -44.4058 C.2       8 UNK         0.5000 
     31 O          -1.7032  -18.8952  -45.3388 O.2       8 UNK        -0.5000 
     32 CA         -0.2760  -17.0863  -44.6997 C.3       8 UNK         0.1400 
     33 CB         -1.0153  -15.7939  -44.3269 C.3       8 UNK        -0.1800 
     34 N           1.0089  -17.1342  -44.0057 N.am      8 UNK        -0.5000 
     35 C           1.9411  -18.0805  -44.1825 C.2       7 UNK         0.5000 
     36 O           1.8443  -18.9936  -45.0012 O.2       7 UNK        -0.5000 
     37 CA          3.1601  -18.0291  -43.2484 C.3       7 UNK         0.1400 
     38 CB          4.1880  -16.9985  -43.7380 C.3       7 UNK        -0.1800 
     39 N           2.7700  -17.7305  -41.8703 N.am      7 UNK        -0.5000 
     40 C           2.0710  -18.5640  -41.0862 C.2       6 UNK         0.5000 
     41 O           1.7235  -19.6944  -41.4278 O.2       6 UNK        -0.5000 
     42 CA          1.6566  -18.0261  -39.7043 C.3       6 UNK         0.1400 
     43 CB          2.8014  -18.1900  -38.6937 C.3       6 UNK        -0.1800 
     44 N           1.2481  -16.6213  -39.7514 N.am      6 UNK        -0.5000 
     45 C           0.1450  -16.1731  -40.3684 C.2       5 UNK         0.5000 
     46 O          -0.6732  -16.9074  -40.9204 O.2       5 UNK        -0.5000 
     47 CA         -0.0449  -14.6441  -40.4219 C.3       5 UNK         0.1400 
     48 CB         -0.7648  -14.1433  -39.1612 C.3       5 UNK        -0.1800 
     49 N           1.2191  -13.9179  -40.5849 N.am      5 UNK        -0.5000 
     50 C           2.0172  -14.0350  -41.6537 C.2       4 UNK         0.5000 
     51 O           1.7518  -14.7453  -42.6238 O.2       4 UNK        -0.5000 
     52 CA          3.3670  -13.3133  -41.5882 C.3       4 UNK         0.1400 
     53 CB          4.3483  -14.1426  -40.7312 C.3       4 UNK        -0.1800 
     54 N           3.8892  -13.1355  -42.9426 N.am      4 UNK        -0.5000 
     55 C           4.9767  -12.4229  -43.2623 C.2       3 UNK         0.5000 
     56 O           5.6394  -11.7791  -42.4474 O.2       3 UNK        -0.5000 
     57 CA          5.3919  -12.4134  -44.7404 C.3       3 UNK         0.1400 
     58 CB          5.8283  -13.8086  -45.2188 C.3       3 UNK        -0.1800 
     59 N           4.3171  -11.9075  -45.5904 N.am      3 UNK        -0.5000 
     60 C           4.1132  -10.6081  -45.8501 C.2       2 UNK         0.5000 
     61 O           4.8006   -9.7052  -45.3704 O.2       2 UNK        -0.5000 
     62 CA          2.9836  -10.2369  -46.8311 C.3       2 UNK         0.1400 
     63 CB          3.5732   -9.7473  -48.1640 C.3       2 UNK        -0.1800 
     64 N           2.0754  -11.3487  -47.1100 N.am      2 UNK        -0.5000 
     65 C           0.9852  -11.6404  -46.3894 C.2       1 UNK         0.5000 
     66 O           0.6147  -10.9908  -45.4108 O.2       1 UNK        -0.5000 
     67 C          -1.1336  -21.6431  -47.7475 C.2       11 UNK         0.5000 
     68 O          -1.3365  -22.4344  -48.6645 O.2       11 UNK        -0.5000 
     69 N          -2.1062  -21.1587  -46.9610 N.am      12 UNK        -0.5000 
     70 CA         -3.5257  -21.4913  -47.0960 C.3       12 UNK         0.1400 
     71 CB         -4.3576  -20.6665  -46.1039 C.3       12 UNK        -0.1800 
     72 C          -3.8126  -22.9930  -46.9332 C.2       12 UNK         0.5000 
     73 O          -4.6157  -23.5342  -47.6924 O.2       12 UNK        -0.5000 
     74 N          -3.1219  -23.6428  -45.9862 N.am      13 UNK        -0.5000 
     75 CA         -3.1617  -25.0892  -45.7767 C.3       13 UNK         0.1400 
     76 CB         -2.4106  -25.4465  -44.4853 C.3       13 UNK        -0.1800 
     77 C          -2.6045  -25.8733  -46.9795 C.2       13 UNK         0.5000 
     78 O          -3.2515  -26.8162  -47.4368 O.2       13 UNK        -0.5000 
     79 N          -1.4451  -25.4457  -47.5018 N.am      14 UNK        -0.5000 
     80 CA         -0.8126  -26.0130  -48.6980 C.3       14 UNK         0.1400 
     81 CB          0.5943  -25.4183  -48.8626 C.3       14 UNK        -0.1800 
     82 C          -1.6489  -25.8041  -49.9771 C.2       14 UNK         0.5000 
     83 O          -1.7179  -26.6992  -50.8193 O.2       14 UNK        -0.5000 
     84 N          -2.3023  -24.6404  -50.0714 N.am      15 UNK        -0.5000 
     85 CA         -3.2309  -24.2461  -51.1297 C.3       15 UNK         0.1400 
     86 CB         -3.3166  -22.7113  -51.1429 C.3       15 UNK        -0.1800 
     87 C          -4.6393  -24.8621  -50.9876 C.2       15 UNK         0.5000 
     88 O          -5.5113  -24.5360  -51.7961 O.2       15 UNK        -0.5000 
     89 N          -4.8549  -25.6948  -49.9559 N.am      16 UNK        -0.5000 
     90 CA         -6.0888  -26.4166  -49.6195 C.3       16 UNK         0.1400 
     91 CB         -6.3645  -27.5089  -50.6732 C.3       16 UNK        -0.1800 
     92 C          -7.3073  -25.4954  -49.3899 C.2       16 UNK         0.5000 
     93 O          -8.4405  -25.8947  -49.6629 O.2       16 UNK        -0.5000 
     94 N          -7.0423  -24.2637  -48.9279 N.am      17 UNK        -0.5000 
     95 CA         -7.9702  -23.1394  -48.7557 C.3       17 UNK         0.1400 
     96 CB         -9.0052  -23.4501  -47.6554 C.3       17 UNK        -0.1800 
     97 C          -8.6323  -22.6508  -50.0668 C.2       17 UNK         0.5000 
     98 O          -9.5898  -21.8779  -50.0086 O.2       17 UNK        -0.5000 
     99 N          -8.1124  -23.0873  -51.2225 N.am      18 UNK        -0.5000 
    100 CA        -8.6455  -22.7966  -52.5545 C.3       18 UNK         0.1400 
    101 CB        -8.6480  -24.1050  -53.3637 C.3       18 UNK        -0.1800 
    102 C         -7.8367  -21.7112  -53.2892 C.2       18 UNK         0.5000 
    103 O         -8.1930  -21.3614  -54.4148 O.2       18 UNK        -0.5000 
    104 N         -6.7524  -21.2236  -52.6629 N.am      19 UNK        -0.5000 
    105 CA        -5.7654  -20.2737  -53.1989 C.3       19 UNK         0.1400 
    106 CB        -6.4144  -18.9084  -53.5080 C.3       19 UNK        -0.1800 
    107 C         -4.9630  -20.8421  -54.3922 C.2       19 UNK         0.5000 
    108 O         -4.4189  -20.0794  -55.1929 O.2       19 UNK        -0.5000 
    109 N         -4.8728  -22.1801  -54.4646 N.am      20 UNK        -0.5000 
    110 CA        -4.2365  -22.9574  -55.5314 C.3       20 UNK         0.1400 
    111 CB        -4.4580  -24.4513  -55.2499 C.3       20 UNK        -0.1800 
    112 C         -2.7381  -22.6646  -55.7392 C.2       20 UNK         0.5000 
    113 O         -2.2319  -22.8748  -56.8420 O.2       20 UNK        -0.5000 
    114 N         -2.0646  -22.1427  -54.7035 N.am      21 UNK        -0.5000 
    115 CA        -0.6709  -21.6915  -54.7426 C.3       21 UNK         0.1400 
    116 CB        -0.2271  -21.3031  -53.3234 C.3       21 UNK        -0.1800 
    117 C         -0.4113  -20.5379  -55.7369 C.2       21 UNK         0.5000 
    118 O          0.7200  -20.3980  -56.2035 O.2       21 UNK        -0.5000 
    119 N         -1.4538  -19.7625  -56.0684 N.am      22 UNK        -0.5000 
    120 CA        -1.4320  -18.7383  -57.1273 C.3       22 UNK         0.1400 
    121 C         -1.8545  -19.2802  -58.5265 C.2       22 UNK         0.5000 
    122 N         -2.1361  -20.5665  -58.7020 N.am      22 UNK        -0.7600 
    123 O         -1.9110  -18.5187  -59.4884 O.2       22 UNK        -0.5000 
    124 C124       -2.2466  -17.4781  -56.7333 C.3       23 UNK        -0.0398 
    125 S125       -1.5398  -16.6415  -55.2729 S.3       23 UNK        -0.2404 
    126 C126       -2.8936  -16.7978  -54.0712 C.3       23 UNK        -0.0205 
    127 H127        3.7192  -15.6273  -47.4870 H         1 UNK         0.0600 
    128 H128        2.5035  -16.6814  -46.7610 H         1 UNK         0.0600 
    129 H129        2.2187  -15.9754  -48.3524 H         1 UNK         0.0600 
    130 H130        0.7071  -14.3657  -48.2234 H         1 UNK         0.3000 
    131 H131       -0.3518  -13.2416  -45.9624 H         1 UNK         0.0600 
    132 H132       -1.5752  -11.7067  -47.4271 H         1 UNK         0.0800 
    133 H133       -0.4350  -11.9255  -48.7250 H         1 UNK         0.0800 
    134 H134       -1.5297  -13.2331  -50.7947 H         1 UNK         0.0800 
    135 H135       -0.1123  -13.9861  -50.1035 H         1 UNK         0.0800 
    136 H136       -2.2541  -14.5642  -52.6312 H         1 UNK         0.1150 
    137 H137       -2.3596  -18.8389  -52.3721 H         1 UNK         0.1150 
    138 H138       -0.9152  -16.5381  -49.0621 H         1 UNK         0.1150 
    139 H139       -1.8157  -18.9590  -48.8448 H         1 UNK         0.0800 
    140 H140       -1.9168  -19.9312  -50.2870 H         1 UNK         0.0800 
    141 H141       -0.0296  -19.0247  -47.3995 H         1 UNK         0.0800 
    142 H142        1.6164  -19.4795  -47.6979 H         1 UNK         0.0800 
    143 H143        0.9751  -21.8574  -48.0119 H         1 UNK         0.0600 
    144 H144        0.8821  -20.5130  -45.5327 H         1 UNK         0.3000 
    145 H145        0.4437  -23.3674  -43.4137 H         1 UNK         0.0600 
    146 H146        2.4508  -22.3158  -42.4131 H         1 UNK         0.0600 
    147 H147        2.8803  -23.1242  -43.9132 H         1 UNK         0.0600 
    148 H148        2.7252  -21.3719  -43.8750 H         1 UNK         0.0600 
    149 H149        0.6007  -20.5994  -42.8014 H         1 UNK         0.3000 
    150 H150       -2.9254  -19.8905  -43.0420 H         1 UNK         0.0600 
    151 H151       -2.4549  -20.8804  -40.7968 H         1 UNK         0.0600 
    152 H152       -2.4441  -19.1243  -40.7440 H         1 UNK         0.0600 
    153 H153       -0.9244  -20.0155  -40.7260 H         1 UNK         0.0600 
    154 H154       -0.7618  -18.1762  -42.4126 H         1 UNK         0.3000 
    155 H155       -0.0686  -17.0622  -45.7713 H         1 UNK         0.0600 
    156 H156       -1.8871  -15.6466  -44.9653 H         1 UNK         0.0600 
    157 H157       -0.3691  -14.9253  -44.4437 H         1 UNK         0.0600 
    158 H158       -1.3619  -15.8076  -43.2939 H         1 UNK         0.0600 
    159 H159        1.2073  -16.3700  -43.3640 H         1 UNK         0.3000 
    160 H160        3.6342  -19.0128  -43.2623 H         1 UNK         0.0600 
    161 H161        5.0758  -16.9922  -43.1058 H         1 UNK         0.0600 
    162 H162        3.7755  -15.9906  -43.7472 H         1 UNK         0.0600 
    163 H163        4.5127  -17.2253  -44.7542 H         1 UNK         0.0600 
    164 H164        2.9679  -16.8011  -41.5340 H         1 UNK         0.3000 
    165 H165        0.8067  -18.6175  -39.3571 H         1 UNK         0.0600 
    166 H166        2.4923  -17.8814  -37.6949 H         1 UNK         0.0600 
    167 H167        3.1165  -19.2323  -38.6275 H         1 UNK         0.0600 
    168 H168        3.6752  -17.5997  -38.9725 H         1 UNK         0.0600 
    169 H169        1.8623  -15.9506  -39.3146 H         1 UNK         0.3000 
    170 H170       -0.6741  -14.4198  -41.2858 H         1 UNK         0.0600 
    171 H171       -1.7187  -14.6556  -39.0277 H         1 UNK         0.0600 
    172 H172       -0.1715  -14.3143  -38.2621 H         1 UNK         0.0600 
    173 H173       -0.9772  -13.0760  -39.2262 H         1 UNK         0.0600 
    174 H174        1.5025  -13.3246  -39.8182 H         1 UNK         0.3000 
    175 H175        3.2151  -12.3312  -41.1363 H         1 UNK         0.0600 
    176 H176        5.2902  -13.6182  -40.5736 H         1 UNK         0.0600 
    177 H177        3.9370  -14.3490  -39.7425 H         1 UNK         0.0600 
    178 H178        4.5772  -15.1009  -41.1987 H         1 UNK         0.0600 
    179 H179        3.3569  -13.6092  -43.6685 H         1 UNK         0.3000 
    180 H180        6.2612  -11.7586  -44.8346 H         1 UNK         0.0600 
    181 H181        5.0084  -14.5247  -45.2043 H         1 UNK         0.0600 
    182 H182        6.6214  -14.2074  -44.5851 H         1 UNK         0.0600 
    183 H183        6.2149  -13.7694  -46.2372 H         1 UNK         0.0600 
    184 H184        3.6500  -12.5914  -45.9286 H         1 UNK         0.3000 
    185 H185        2.4234   -9.4110  -46.3874 H         1 UNK         0.0600 
    186 H186        2.7874   -9.4313  -48.8504 H         1 UNK         0.0600 
    187 H187        4.2313   -8.8909  -48.0109 H         1 UNK         0.0600 
    188 H188        4.1572  -10.5259  -48.6564 H         1 UNK         0.0600 
    189 H189        2.3131  -11.9449  -47.8895 H         1 UNK         0.3000 
    190 H190       -1.8717  -20.4723  -46.2466 H         1 UNK         0.3000 
    191 H191       -3.8312  -21.2057  -48.1039 H         1 UNK         0.0600 
    192 H192       -4.2328  -19.5978  -46.2784 H         1 UNK         0.0600 
    193 H193       -4.0746  -20.8727  -45.0718 H         1 UNK         0.0600 
    194 H194       -5.4204  -20.8901  -46.2045 H         1 UNK         0.0600 
    195 H195       -2.5214  -23.1058  -45.3674 H         1 UNK         0.3000 
    196 H196       -4.2074  -25.3770  -45.6493 H         1 UNK         0.0600 
    197 H197       -1.3610  -25.1565  -44.5334 H         1 UNK         0.0600 
    198 H198       -2.4471  -26.5200  -44.2965 H         1 UNK         0.0600 
    199 H199       -2.8536  -24.9484  -43.6227 H         1 UNK         0.0600 
    200 H200       -0.9655  -24.6680  -47.0595 H         1 UNK         0.3000 
    201 H201       -0.7101  -27.0889  -48.5424 H         1 UNK         0.0600 
    202 H202        0.5621  -24.3379  -49.0053 H         1 UNK         0.0600 
    203 H203        1.1020  -25.8489  -49.7265 H         1 UNK         0.0600 
    204 H204        1.2119  -25.6201  -47.9872 H         1 UNK         0.0600 
    205 H205       -2.1100  -23.9311  -49.3662 H         1 UNK         0.3000 
    206 H206       -2.8262  -24.5766  -52.0879 H         1 UNK         0.0600 
    207 H207       -2.3340  -22.2610  -51.2799 H         1 UNK         0.0600 
    208 H208       -3.9524  -22.3566  -51.9490 H         1 UNK         0.0600 
    209 H209       -3.7319  -22.3283  -50.2111 H         1 UNK         0.0600 
    210 H210       -4.0859  -25.8492  -49.3162 H         1 UNK         0.3000 
    211 H211       -5.9007  -26.9124  -48.6663 H         1 UNK         0.0600 
    212 H212       -6.6202  -27.0787  -51.6423 H         1 UNK         0.0600 
    213 H213       -7.1936  -28.1488  -50.3693 H         1 UNK         0.0600 
    214 H214       -5.4949  -28.1516  -50.8106 H         1 UNK         0.0600 
    215 H215       -6.0764  -24.0585  -48.6757 H         1 UNK         0.3000 
    216 H216       -7.3597  -22.3067  -48.4039 H         1 UNK         0.0600 
    217 H217       -8.5170  -23.7765  -46.7371 H         1 UNK         0.0600 
    218 H218       -9.5950  -22.5662  -47.4101 H         1 UNK         0.0600 
    219 H219       -9.7013  -24.2311  -47.9621 H         1 UNK         0.0600 
    220 H220       -7.3158  -23.7158  -51.1941 H         1 UNK         0.3000 
    221 H221       -9.6754  -22.4416  -52.4819 H         1 UNK         0.0600 
    222 H222       -7.6384  -24.4888  -53.5146 H         1 UNK         0.0600 
    223 H223       -9.2262  -24.8787  -52.8579 H         1 UNK         0.0600 
    224 H224       -9.0942  -23.9589  -54.3482 H         1 UNK         0.0600 
    225 H225       -6.5642  -21.5804  -51.7373 H         1 UNK         0.3000 
    226 H226       -5.0390  -20.1112  -52.4016 H         1 UNK         0.0600 
    227 H227       -6.9923  -18.5453  -52.6581 H         1 UNK         0.0600 
    228 H228       -5.6597  -18.1543  -53.7281 H         1 UNK         0.0600 
    229 H229       -7.0800  -18.9591  -54.3698 H         1 UNK         0.0600 
    230 H230       -5.3509  -22.7198  -53.7568 H         1 UNK         0.3000 
    231 H231       -4.7453  -22.7050  -56.4638 H         1 UNK         0.0600 
    232 H232       -5.5202  -24.6888  -55.1876 H         1 UNK         0.0600 
    233 H233       -3.9916  -24.7580  -54.3133 H         1 UNK         0.0600 
    234 H234       -4.0347  -25.0670  -56.0447 H         1 UNK         0.0600 
    235 H235       -2.5644  -21.9924  -53.8418 H         1 UNK         0.3000 
    236 H236       -0.0614  -22.5372  -55.0676 H         1 UNK         0.0600 
    237 H237        0.8098  -20.9648  -53.3159 H         1 UNK         0.0600 
    238 H238       -0.8347  -20.4959  -52.9164 H         1 UNK         0.0600 
    239 H239       -0.2923  -22.1515  -52.6420 H         1 UNK         0.0600 
    240 H240       -2.3624  -19.9530  -55.6613 H         1 UNK         0.3000 
    241 H241       -0.4011  -18.4074  -57.2655 H         1 UNK         0.0600 
    242 H242       -2.0749  -21.2360  -57.9429 H         1 UNK         0.3800 
    243 H243       -2.3977  -20.8875  -59.6207 H         1 UNK         0.3800 
    244 H244       -2.2470  -16.7490  -57.5452 H         1 UNK         0.0800 
    245 H245       -3.2923  -17.7374  -56.5606 H         1 UNK         0.0800 
    246 H246       -3.3978  -17.7532  -54.2160 H         1 UNK         0.0800 
    247 H247       -3.6374  -16.0200  -54.2498 H         1 UNK         0.0800 
@<TRIPOS>BOND
     1    1    2 1    
     2    1  127 1    
     3    1  128 1    
     4    1  129 1    
     5    2    3 2    
     6    2    4 am   BACKBONE|DICT|INTERRES
     7    4    5 1    
     8    4  130 1    
     9    5    6 1    
    10    5   65 1    
    11    5  131 1    
    12    6    7 1    
    13    6  132 1    
    14    6  133 1    
    15    7    8 1    
    16    8    9 1    
    17    8  134 1    
    18    8  135 1    
    19    9   10 ar   
    20    9   14 ar   
    21   10   11 ar   
    22   10  136 1    
    23   11   12 ar   
    24   11  126 1    
    25   12   13 ar   
    26   12  137 1    
    27   13   14 ar   
    28   13   15 1    
    29   14  138 1    
    30   15   16 1    
    31   15  139 1    
    32   15  140 1    
    33   16   17 1    
    34   17   18 1    
    35   17  141 1    
    36   17  142 1    
    37   18   19 1    
    38   18   67 1    
    39   18  143 1    
    40   19   20 am   BACKBONE|DICT|INTERRES
    41   19  144 1    
    42   20   21 2    
    43   20   22 1    
    44   22   23 1    
    45   22   24 1    
    46   22  145 1    
    47   23  146 1    
    48   23  147 1    
    49   23  148 1    
    50   24   25 am   BACKBONE|DICT|INTERRES
    51   24  149 1    
    52   25   26 2    
    53   25   27 1    
    54   27   28 1    
    55   27   29 1    
    56   27  150 1    
    57   28  151 1    
    58   28  152 1    
    59   28  153 1    
    60   29   30 am   BACKBONE|DICT|INTERRES
    61   29  154 1    
    62   30   31 2    
    63   30   32 1    
    64   32   33 1    
    65   32   34 1    
    66   32  155 1    
    67   33  156 1    
    68   33  157 1    
    69   33  158 1    
    70   34   35 am   BACKBONE|DICT|INTERRES
    71   34  159 1    
    72   35   36 2    
    73   35   37 1    
    74   37   38 1    
    75   37   39 1    
    76   37  160 1    
    77   38  161 1    
    78   38  162 1    
    79   38  163 1    
    80   39   40 am   BACKBONE|DICT|INTERRES
    81   39  164 1    
    82   40   41 2    
    83   40   42 1    
    84   42   43 1    
    85   42   44 1    
    86   42  165 1    
    87   43  166 1    
    88   43  167 1    
    89   43  168 1    
    90   44   45 am   BACKBONE|DICT|INTERRES
    91   44  169 1    
    92   45   46 2    
    93   45   47 1    
    94   47   48 1    
    95   47   49 1    
    96   47  170 1    
    97   48  171 1    
    98   48  172 1    
    99   48  173 1    
   100   49   50 am   BACKBONE|DICT|INTERRES
   101   49  174 1    
   102   50   51 2    
   103   50   52 1    
   104   52   53 1    
   105   52   54 1    
   106   52  175 1    
   107   53  176 1    
   108   53  177 1    
   109   53  178 1    
   110   54   55 am   BACKBONE|DICT|INTERRES
   111   54  179 1    
   112   55   56 2    
   113   55   57 1    
   114   57   58 1    
   115   57   59 1    
   116   57  180 1    
   117   58  181 1    
   118   58  182 1    
   119   58  183 1    
   120   59   60 am   BACKBONE|DICT|INTERRES
   121   59  184 1    
   122   60   61 2    
   123   60   62 1    
   124   62   63 1    
   125   62   64 1    
   126   62  185 1    
   127   63  186 1    
   128   63  187 1    
   129   63  188 1    
   130   64   65 am   BACKBONE|DICT|INTERRES
   131   64  189 1    
   132   65   66 2    
   133   67   68 2    
   134   67   69 am   BACKBONE|DICT|INTERRES
   135   69   70 1    
   136   69  190 1    
   137   70   71 1    
   138   70   72 1    
   139   70  191 1    
   140   71  192 1    
   141   71  193 1    
   142   71  194 1    
   143   72   73 2    
   144   72   74 am   BACKBONE|DICT|INTERRES
   145   74   75 1    
   146   74  195 1    
   147   75   76 1    
   148   75   77 1    
   149   75  196 1    
   150   76  197 1    
   151   76  198 1    
   152   76  199 1    
   153   77   78 2    
   154   77   79 am   BACKBONE|DICT|INTERRES
   155   79   80 1    
   156   79  200 1    
   157   80   81 1    
   158   80   82 1    
   159   80  201 1    
   160   81  202 1    
   161   81  203 1    
   162   81  204 1    
   163   82   83 2    
   164   82   84 am   BACKBONE|DICT|INTERRES
   165   84   85 1    
   166   84  205 1    
   167   85   86 1    
   168   85   87 1    
   169   85  206 1    
   170   86  207 1    
   171   86  208 1    
   172   86  209 1    
   173   87   88 2    
   174   87   89 am   BACKBONE|DICT|INTERRES
   175   89   90 1    
   176   89  210 1    
   177   90   91 1    
   178   90   92 1    
   179   90  211 1    
   180   91  212 1    
   181   91  213 1    
   182   91  214 1    
   183   92   93 2    
   184   92   94 am   BACKBONE|DICT|INTERRES
   185   94   95 1    
   186   94  215 1    
   187   95   96 1    
   188   95   97 1    
   189   95  216 1    
   190   96  217 1    
   191   96  218 1    
   192   96  219 1    
   193   97   98 2    
   194   97   99 am   BACKBONE|DICT|INTERRES
   195   99  100 1    
   196   99  220 1    
   197  100  101 1    
   198  100  102 1    
   199  100  221 1    
   200  101  222 1    
   201  101  223 1    
   202  101  224 1    
   203  102  103 2    
   204  102  104 am   BACKBONE|DICT|INTERRES
   205  104  105 1    
   206  104  225 1    
   207  105  106 1    
   208  105  107 1    
   209  105  226 1    
   210  106  227 1    
   211  106  228 1    
   212  106  229 1    
   213  107  108 2    
   214  107  109 am   BACKBONE|DICT|INTERRES
   215  109  110 1    
   216  109  230 1    
   217  110  111 1    
   218  110  112 1    
   219  110  231 1    
   220  111  232 1    
   221  111  233 1    
   222  111  234 1    
   223  112  113 2    
   224  112  114 am   BACKBONE|DICT|INTERRES
   225  114  115 1    
   226  114  235 1    
   227  115  116 1    
   228  115  117 1    
   229  115  236 1    
   230  116  237 1    
   231  116  238 1    
   232  116  239 1    
   233  117  118 2    
   234  117  119 am   BACKBONE|DICT|INTERRES
   235  119  120 1    
   236  119  240 1    
   237  120  121 1    
   238  120  124 1    
   239  120  241 1    
   240  121  122 am   BACKBONE|DICT|INTERRES
   241  121  123 2    
   242  122  242 1    
   243  122  243 1    
   244  124  125 1    
   245  124  244 1    
   246  124  245 1    
   247  125  126 1    
   248  126  246 1    
   249  126  247 1    
@<TRIPOS>SUBSTRUCTURE
     1 UNK         1 GROUP             0       ****    0 ROOT    
