@<TRIPOS>MOLECULE
3R540
247   249    1
SMALL
USER_CHARGES


@<TRIPOS>ATOM
      1 CA         -1.3450  -12.8503  -46.5179 C.3       0 UNK        -0.1800 
      2 C          -0.1938  -12.1676  -47.2380 C.2       0 UNK         0.5000 
      3 O          -0.4112  -11.1862  -47.9497 O.2       0 UNK        -0.5000 
      4 N           1.0326  -12.6686  -47.0487 N.am      1 UNK        -0.5000 
      5 CA          2.2601  -12.1165  -47.6290 C.3       1 UNK         0.1400 
      6 C6          3.3254  -13.2130  -47.8762 C.3       23 UNK        -0.0398 
      7 S7          2.8268  -14.3546  -49.2072 S.3       23 UNK        -0.2404 
      8 C8          2.2255  -15.7664  -48.2327 C.3       23 UNK        -0.0205 
      9 C9          1.5265  -16.7938  -49.1071 C.ar      23 UNK        -0.0193 
     10 C10         0.2964  -16.4904  -49.6968 C.ar      23 UNK        -0.1150 
     11 C11        -0.3742  -17.4358  -50.4787 C.ar      23 UNK        -0.0193 
     12 C12         0.2032  -18.6936  -50.6747 C.ar      23 UNK        -0.1150 
     13 C13         1.4393  -19.0061  -50.0982 C.ar      23 UNK        -0.0193 
     14 C14         2.0950  -18.0528  -49.3144 C.ar      23 UNK        -0.1150 
     15 C15         2.0735  -20.3714  -50.3225 C.3       23 UNK        -0.0205 
     16 S16         1.8762  -21.4548  -48.8741 S.3       23 UNK        -0.2404 
     17 C17         0.0635  -21.5956  -48.8239 C.3       23 UNK        -0.0398 
     18 CA         -0.4169  -22.7137  -47.8771 C.3       11 UNK         0.1400 
     19 N          -0.1970  -22.3970  -46.4626 N.am      11 UNK        -0.5000 
     20 C          -0.3791  -23.2676  -45.4593 C.2       10 UNK         0.5000 
     21 O          -0.7265  -24.4363  -45.6252 O.2       10 UNK        -0.5000 
     22 CA         -0.2014  -22.7349  -44.0279 C.3       10 UNK         0.1400 
     23 CB          1.2859  -22.5966  -43.6707 C.3       10 UNK        -0.1800 
     24 N          -0.8901  -21.4615  -43.8196 N.am      10 UNK        -0.5000 
     25 C          -2.2184  -21.2976  -43.8997 C.2       9 UNK         0.5000 
     26 O          -3.0075  -22.2201  -44.1052 O.2       9 UNK        -0.5000 
     27 CA         -2.7548  -19.8591  -43.7750 C.3       9 UNK         0.1400 
     28 CB         -2.8503  -19.4347  -42.3025 C.3       9 UNK        -0.1800 
     29 N          -1.9512  -18.8863  -44.5162 N.am      9 UNK        -0.5000 
     30 C          -1.7796  -18.8968  -45.8462 C.2       8 UNK         0.5000 
     31 O          -2.3103  -19.7091  -46.6022 O.2       8 UNK        -0.5000 
     32 CA         -0.8070  -17.8563  -46.4231 C.3       8 UNK         0.1400 
     33 CB         -1.4834  -16.4842  -46.5396 C.3       8 UNK        -0.1800 
     34 N           0.4182  -17.7422  -45.6312 N.am      8 UNK        -0.5000 
     35 C           1.3011  -18.7384  -45.4690 C.2       7 UNK         0.5000 
     36 O           1.1939  -19.8430  -45.9989 O.2       7 UNK        -0.5000 
     37 CA          2.4612  -18.4765  -44.4941 C.3       7 UNK         0.1400 
     38 CB          3.5573  -17.6270  -45.1529 C.3       7 UNK        -0.1800 
     39 N           2.0067  -17.8250  -43.2657 N.am      7 UNK        -0.5000 
     40 C           1.2108  -18.4035  -42.3545 C.2       6 UNK         0.5000 
     41 O           0.8142  -19.5647  -42.4330 O.2       6 UNK        -0.5000 
     42 CA          0.7458  -17.5260  -41.1785 C.3       6 UNK         0.1400 
     43 CB          1.7552  -17.5946  -40.0232 C.3       6 UNK        -0.1800 
     44 N           0.5378  -16.1274  -41.5556 N.am      6 UNK        -0.5000 
     45 C          -0.3794  -15.6957  -42.4341 C.2       5 UNK         0.5000 
     46 O          -1.1704  -16.4390  -43.0148 O.2       5 UNK        -0.5000 
     47 CA         -0.3760  -14.1874  -42.7453 C.3       5 UNK         0.1400 
     48 CB         -1.3207  -13.4336  -41.7991 C.3       5 UNK        -0.1800 
     49 N           0.9660  -13.6105  -42.6506 N.am      5 UNK        -0.5000 
     50 C           1.9591  -13.8353  -43.5191 C.2       4 UNK         0.5000 
     51 O           1.8098  -14.4329  -44.5887 O.2       4 UNK        -0.5000 
     52 CA          3.3410  -13.3067  -43.0902 C.3       4 UNK         0.1400 
     53 CB          4.4951  -13.8326  -43.9589 C.3       4 UNK        -0.1800 
     54 N           3.3670  -11.8450  -43.0677 N.am      4 UNK        -0.5000 
     55 C           2.9335  -11.0910  -42.0465 C.2       3 UNK         0.5000 
     56 O           2.4490  -11.5660  -41.0177 O.2       3 UNK        -0.5000 
     57 CA          3.0481   -9.5597  -42.1859 C.3       3 UNK         0.1400 
     58 CB          4.3258   -9.0539  -41.4993 C.3       3 UNK        -0.1800 
     59 N           3.0428   -9.1018  -43.5752 N.am      3 UNK        -0.5000 
     60 C           1.9702   -9.1182  -44.3761 C.2       2 UNK         0.5000 
     61 O           0.8498   -9.4754  -44.0087 O.2       2 UNK        -0.5000 
     62 CA          2.1768   -8.7000  -45.8457 C.3       2 UNK         0.1400 
     63 CB          3.5030   -7.9545  -46.1210 C.3       2 UNK        -0.1800 
     64 N           2.0328   -9.8599  -46.7277 N.am      2 UNK        -0.5000 
     65 C           2.7631  -10.9845  -46.7131 C.2       1 UNK         0.5000 
     66 O           3.7409  -11.1597  -45.9835 O.2       1 UNK        -0.5000 
     67 C          -1.8855  -23.0624  -48.1807 C.2       11 UNK         0.5000 
     68 O          -2.1279  -23.9735  -48.9721 O.2       11 UNK        -0.5000 
     69 N          -2.8320  -22.3581  -47.5467 N.am      12 UNK        -0.5000 
     70 CA         -4.2652  -22.6290  -47.6354 C.3       12 UNK         0.1400 
     71 CB         -5.0462  -21.5098  -46.9312 C.3       12 UNK        -0.1800 
     72 C          -4.6364  -24.0044  -47.0545 C.2       12 UNK         0.5000 
     73 O          -5.3668  -24.7557  -47.7003 O.2       12 UNK        -0.5000 
     74 N          -4.0992  -24.3192  -45.8673 N.am      13 UNK        -0.5000 
     75 CA         -4.2957  -25.5930  -45.1737 C.3       13 UNK         0.1400 
     76 CB         -3.7430  -25.4855  -43.7443 C.3       13 UNK        -0.1800 
     77 C          -3.6637  -26.7865  -45.9138 C.2       13 UNK         0.5000 
     78 O          -4.2851  -27.8463  -46.0001 O.2       13 UNK        -0.5000 
     79 N          -2.4499  -26.5905  -46.4455 N.am      14 UNK        -0.5000 
     80 CA         -1.7044  -27.5923  -47.2108 C.3       14 UNK         0.1400 
     81 CB         -0.2234  -27.1821  -47.2480 C.3       14 UNK        -0.1800 
     82 C          -2.2271  -27.7911  -48.6468 C.2       14 UNK         0.5000 
     83 O          -1.8805  -28.7933  -49.2730 O.2       14 UNK        -0.5000 
     84 N          -3.0078  -26.8229  -49.1509 N.am      15 UNK        -0.5000 
     85 CA         -3.4488  -26.6682  -50.5423 C.3       15 UNK         0.1400 
     86 CB         -4.3906  -27.8140  -50.9661 C.3       15 UNK        -0.1800 
     87 C          -2.2585  -26.4589  -51.5062 C.2       15 UNK         0.5000 
     88 O          -2.2686  -26.9541  -52.6342 O.2       15 UNK        -0.5000 
     89 N          -1.2491  -25.7230  -51.0238 N.am      16 UNK        -0.5000 
     90 CA         -0.0247  -25.3667  -51.7418 C.3       16 UNK         0.1400 
     91 CB          1.1474  -25.3856  -50.7476 C.3       16 UNK        -0.1800 
     92 C          -0.1313  -23.9899  -52.4257 C.2       16 UNK         0.5000 
     93 O           0.7572  -23.6290  -53.1989 O.2       16 UNK        -0.5000 
     94 N          -1.2026  -23.2419  -52.1270 N.am      17 UNK        -0.5000 
     95 CA         -1.5500  -21.9713  -52.7604 C.3       17 UNK         0.1400 
     96 CB         -2.6414  -21.2959  -51.9163 C.3       17 UNK        -0.1800 
     97 C          -1.9880  -22.1453  -54.2326 C.2       17 UNK         0.5000 
     98 O          -2.2579  -23.2646  -54.6774 O.2       17 UNK        -0.5000 
     99 N          -2.0220  -21.0274  -54.9691 N.am      18 UNK        -0.5000 
    100 CA        -2.2940  -20.9472  -56.4060 C.3       18 UNK         0.1400 
    101 CB        -1.8809  -19.5495  -56.9013 C.3       18 UNK        -0.1800 
    102 C         -3.7552  -21.2846  -56.7734 C.2       18 UNK         0.5000 
    103 O         -4.5604  -20.3791  -57.0024 O.2       18 UNK        -0.5000 
    104 N         -4.0600  -22.5885  -56.8218 N.am      19 UNK        -0.5000 
    105 CA        -5.3325  -23.2417  -57.1582 C.3       19 UNK         0.1400 
    106 CB        -5.8117  -22.8725  -58.5759 C.3       19 UNK        -0.1800 
    107 C         -6.4334  -23.0192  -56.1057 C.2       19 UNK         0.5000 
    108 O         -6.9634  -23.9911  -55.5652 O.2       19 UNK        -0.5000 
    109 N         -6.7343  -21.7514  -55.8102 N.am      20 UNK        -0.5000 
    110 CA        -7.5325  -21.3324  -54.6633 C.3       20 UNK         0.1400 
    111 CB        -8.0443  -19.9053  -54.9099 C.3       20 UNK        -0.1800 
    112 C         -6.6691  -21.3798  -53.3925 C.2       20 UNK         0.5000 
    113 O         -5.4568  -21.1652  -53.4699 O.2       20 UNK        -0.5000 
    114 N         -7.3028  -21.6146  -52.2380 N.am      21 UNK        -0.5000 
    115 CA        -6.6675  -21.6886  -50.9183 C.3       21 UNK         0.1400 
    116 CB        -7.5901  -22.4827  -49.9759 C.3       21 UNK        -0.1800 
    117 C         -6.2912  -20.2957  -50.3604 C.2       21 UNK         0.5000 
    118 O         -6.7026  -19.9397  -49.2558 O.2       21 UNK        -0.5000 
    119 N         -5.5283  -19.5308  -51.1507 N.am      22 UNK        -0.5000 
    120 CA        -5.1133  -18.1428  -50.9035 C.3       22 UNK         0.1400 
    121 C         -6.3184  -17.1595  -50.7279 C.2       22 UNK         0.5000 
    122 N         -6.1591  -16.0504  -50.0192 N.am      22 UNK        -0.7600 
    123 O         -7.3950  -17.3662  -51.2849 O.2       22 UNK        -0.5000 
    124 C124       -4.0048  -18.0598  -49.8102 C.3       23 UNK        -0.0398 
    125 S125       -2.9732  -16.5596  -49.9648 S.3       23 UNK        -0.2404 
    126 C126       -1.6902  -17.0725  -51.1535 C.3       23 UNK        -0.0205 
    127 H127       -1.8206  -12.1573  -45.8241 H         1 UNK         0.0600 
    128 H128       -0.9999  -13.7139  -45.9548 H         1 UNK         0.0600 
    129 H129       -2.0919  -13.1890  -47.2359 H         1 UNK         0.0600 
    130 H130        1.1688  -13.4268  -46.3898 H         1 UNK         0.3000 
    131 H131        2.0341  -11.6630  -48.5969 H         1 UNK         0.0600 
    132 H132        3.5234  -13.7802  -46.9674 H         1 UNK         0.0800 
    133 H133        4.2753  -12.7641  -48.1718 H         1 UNK         0.0800 
    134 H134        3.0718  -16.2167  -47.7142 H         1 UNK         0.0800 
    135 H135        1.5344  -15.4235  -47.4627 H         1 UNK         0.0800 
    136 H136       -0.1401  -15.5128  -49.5466 H         1 UNK         0.1150 
    137 H137       -0.3029  -19.4261  -51.2856 H         1 UNK         0.1150 
    138 H138        3.0446  -18.2983  -48.8601 H         1 UNK         0.1150 
    139 H139        1.6478  -20.8579  -51.2018 H         1 UNK         0.0800 
    140 H140        3.1375  -20.2478  -50.5287 H         1 UNK         0.0800 
    141 H141       -0.3637  -20.6352  -48.5296 H         1 UNK         0.0800 
    142 H142       -0.2679  -21.7865  -49.8452 H         1 UNK         0.0800 
    143 H143        0.1628  -23.6129  -48.0914 H         1 UNK         0.0600 
    144 H144        0.1360  -21.4591  -46.2532 H         1 UNK         0.3000 
    145 H145       -0.6434  -23.4653  -43.3470 H         1 UNK         0.0600 
    146 H146        1.4143  -22.3067  -42.6278 H         1 UNK         0.0600 
    147 H147        1.8107  -23.5421  -43.8124 H         1 UNK         0.0600 
    148 H148        1.7834  -21.8491  -44.2885 H         1 UNK         0.0600 
    149 H149       -0.3069  -20.6622  -43.5907 H         1 UNK         0.3000 
    150 H150       -3.7614  -19.8430  -44.1975 H         1 UNK         0.0600 
    151 H151       -3.4938  -20.1144  -41.7426 H         1 UNK         0.0600 
    152 H152       -3.2708  -18.4334  -42.2064 H         1 UNK         0.0600 
    153 H153       -1.8739  -19.4352  -41.8187 H         1 UNK         0.0600 
    154 H154       -1.5083  -18.1503  -43.9748 H         1 UNK         0.3000 
    155 H155       -0.5322  -18.1883  -47.4263 H         1 UNK         0.0600 
    156 H156       -1.6929  -16.0484  -45.5636 H         1 UNK         0.0600 
    157 H157       -2.4335  -16.5613  -47.0680 H         1 UNK         0.0600 
    158 H158       -0.8596  -15.7874  -47.0967 H         1 UNK         0.0600 
    159 H159        0.5618  -16.8779  -45.1297 H         1 UNK         0.3000 
    160 H160        2.8954  -19.4425  -44.2274 H         1 UNK         0.0600 
    161 H161        3.2043  -16.6219  -45.3824 H         1 UNK         0.0600 
    162 H162        3.8952  -18.0805  -46.0857 H         1 UNK         0.0600 
    163 H163        4.4273  -17.5352  -44.5027 H         1 UNK         0.0600 
    164 H164        2.2695  -16.8601  -43.1360 H         1 UNK         0.3000 
    165 H165       -0.2074  -17.9228  -40.8239 H         1 UNK         0.0600 
    166 H166        2.7248  -17.1848  -40.3089 H         1 UNK         0.0600 
    167 H167        1.3987  -17.0411  -39.1543 H         1 UNK         0.0600 
    168 H168        1.9152  -18.6261  -39.7062 H         1 UNK         0.0600 
    169 H169        1.1396  -15.4461  -41.1179 H         1 UNK         0.3000 
    170 H170       -0.7411  -14.0587  -43.7634 H         1 UNK         0.0600 
    171 H171       -2.3348  -13.8306  -41.8626 H         1 UNK         0.0600 
    172 H172       -1.0000  -13.5135  -40.7596 H         1 UNK         0.0600 
    173 H173       -1.3698  -12.3749  -42.0547 H         1 UNK         0.0600 
    174 H174        1.1724  -13.0509  -41.8304 H         1 UNK         0.3000 
    175 H175        3.5206  -13.6809  -42.0799 H         1 UNK         0.0600 
    176 H176        4.4855  -14.9215  -44.0098 H         1 UNK         0.0600 
    177 H177        4.4467  -13.4535  -44.9762 H         1 UNK         0.0600 
    178 H178        5.4592  -13.5379  -43.5448 H         1 UNK         0.0600 
    179 H179        3.6812  -11.3913  -43.9193 H         1 UNK         0.3000 
    180 H180        2.1897   -9.1181  -41.6752 H         1 UNK         0.0600 
    181 H181        4.3840   -7.9656  -41.5259 H         1 UNK         0.0600 
    182 H182        4.3508   -9.3537  -40.4507 H         1 UNK         0.0600 
    183 H183        5.2232   -9.4509  -41.9757 H         1 UNK         0.0600 
    184 H184        3.9304   -8.8192  -43.9649 H         1 UNK         0.3000 
    185 H185        1.3599   -8.0190  -46.0888 H         1 UNK         0.0600 
    186 H186        3.5494   -7.6204  -47.1576 H         1 UNK         0.0600 
    187 H187        3.5889   -7.0653  -45.4952 H         1 UNK         0.0600 
    188 H188        4.3808   -8.5749  -45.9391 H         1 UNK         0.0600 
    189 H189        1.1982   -9.8666  -47.3034 H         1 UNK         0.3000 
    190 H190       -2.5560  -21.5669  -46.9707 H         1 UNK         0.3000 
    191 H191       -4.5395  -22.6245  -48.6920 H         1 UNK         0.0600 
    192 H192       -6.1216  -21.6681  -47.0140 H         1 UNK         0.0600 
    193 H193       -4.8254  -20.5384  -47.3734 H         1 UNK         0.0600 
    194 H194       -4.8080  -21.4516  -45.8701 H         1 UNK         0.0600 
    195 H195       -3.5358  -23.6237  -45.3858 H         1 UNK         0.3000 
    196 H196       -5.3704  -25.7753  -45.1083 H         1 UNK         0.0600 
    197 H197       -3.8877  -26.4177  -43.1969 H         1 UNK         0.0600 
    198 H198       -4.2485  -24.6977  -43.1855 H         1 UNK         0.0600 
    199 H199       -2.6753  -25.2633  -43.7412 H         1 UNK         0.0600 
    200 H200       -1.9734  -25.7088  -46.2693 H         1 UNK         0.3000 
    201 H201       -1.7808  -28.5520  -46.6956 H         1 UNK         0.0600 
    202 H202       -0.0856  -26.2242  -47.7513 H         1 UNK         0.0600 
    203 H203        0.3771  -27.9214  -47.7796 H         1 UNK         0.0600 
    204 H204        0.1870  -27.0936  -46.2420 H         1 UNK         0.0600 
    205 H205       -3.2061  -26.0331  -48.5503 H         1 UNK         0.3000 
    206 H206       -4.0266  -25.7431  -50.5713 H         1 UNK         0.0600 
    207 H207       -5.2105  -27.9312  -50.2574 H         1 UNK         0.0600 
    208 H208       -4.8323  -27.6130  -51.9426 H         1 UNK         0.0600 
    209 H209       -3.8677  -28.7680  -51.0362 H         1 UNK         0.0600 
    210 H210       -1.3776  -25.3009  -50.1085 H         1 UNK         0.3000 
    211 H211        0.1743  -26.1073  -52.5191 H         1 UNK         0.0600 
    212 H212        1.0382  -24.6195  -49.9809 H         1 UNK         0.0600 
    213 H213        2.0942  -25.2030  -51.2573 H         1 UNK         0.0600 
    214 H214        1.2279  -26.3519  -50.2493 H         1 UNK         0.0600 
    215 H215       -1.8873  -23.6351  -51.4986 H         1 UNK         0.3000 
    216 H216       -0.6620  -21.3364  -52.7532 H         1 UNK         0.0600 
    217 H217       -2.9541  -20.3483  -52.3554 H         1 UNK         0.0600 
    218 H218       -2.2937  -21.0829  -50.9061 H         1 UNK         0.0600 
    219 H219       -3.5228  -21.9307  -51.8342 H         1 UNK         0.0600 
    220 H220       -1.8225  -20.1477  -54.5171 H         1 UNK         0.3000 
    221 H221       -1.6543  -21.6735  -56.9119 H         1 UNK         0.0600 
    222 H222       -2.4396  -18.7601  -56.3968 H         1 UNK         0.0600 
    223 H223       -0.8190  -19.3688  -56.7330 H         1 UNK         0.0600 
    224 H224       -2.0602  -19.4458  -57.9723 H         1 UNK         0.0600 
    225 H225       -3.3444  -23.2178  -56.4738 H         1 UNK         0.3000 
    226 H226       -5.1170  -24.3114  -57.1612 H         1 UNK         0.0600 
    227 H227       -5.0475  -23.0966  -59.3200 H         1 UNK         0.0600 
    228 H228       -6.7024  -23.4423  -58.8432 H         1 UNK         0.0600 
    229 H229       -6.0655  -21.8160  -58.6642 H         1 UNK         0.0600 
    230 H230       -6.1618  -21.0349  -56.2490 H         1 UNK         0.3000 
    231 H231       -8.3863  -22.0034  -54.5477 H         1 UNK         0.0600 
    232 H232       -8.6545  -19.5576  -54.0753 H         1 UNK         0.0600 
    233 H233       -8.6620  -19.8578  -55.8070 H         1 UNK         0.0600 
    234 H234       -7.2218  -19.1989  -55.0316 H         1 UNK         0.0600 
    235 H235       -8.3055  -21.7341  -52.2512 H         1 UNK         0.3000 
    236 H236       -5.7393  -22.2549  -51.0134 H         1 UNK         0.0600 
    237 H237       -8.5436  -21.9755  -49.8240 H         1 UNK         0.0600 
    238 H238       -7.7974  -23.4767  -50.3725 H         1 UNK         0.0600 
    239 H239       -7.1309  -22.6202  -48.9971 H         1 UNK         0.0600 
    240 H240       -5.2930  -19.9130  -52.0624 H         1 UNK         0.3000 
    241 H241       -4.6591  -17.8396  -51.8472 H         1 UNK         0.0600 
    242 H242       -5.2659  -15.8321  -49.6023 H         1 UNK         0.3800 
    243 H243       -6.9294  -15.4074  -49.9244 H         1 UNK         0.3800 
    244 H244       -3.3442  -18.9262  -49.8669 H         1 UNK         0.0800 
    245 H245       -4.4448  -18.0939  -48.8122 H         1 UNK         0.0800 
    246 H246       -2.0583  -17.8942  -51.7692 H         1 UNK         0.0800 
    247 H247       -1.5049  -16.2431  -51.8371 H         1 UNK         0.0800 
@<TRIPOS>BOND
     1    1    2 1    
     2    1  127 1    
     3    1  128 1    
     4    1  129 1    
     5    2    3 2    
     6    2    4 am   BACKBONE|DICT|INTERRES
     7    4    5 1    
     8    4  130 1    
     9    5    6 1    
    10    5   65 1    
    11    5  131 1    
    12    6    7 1    
    13    6  132 1    
    14    6  133 1    
    15    7    8 1    
    16    8    9 1    
    17    8  134 1    
    18    8  135 1    
    19    9   10 ar   
    20    9   14 ar   
    21   10   11 ar   
    22   10  136 1    
    23   11   12 ar   
    24   11  126 1    
    25   12   13 ar   
    26   12  137 1    
    27   13   14 ar   
    28   13   15 1    
    29   14  138 1    
    30   15   16 1    
    31   15  139 1    
    32   15  140 1    
    33   16   17 1    
    34   17   18 1    
    35   17  141 1    
    36   17  142 1    
    37   18   19 1    
    38   18   67 1    
    39   18  143 1    
    40   19   20 am   BACKBONE|DICT|INTERRES
    41   19  144 1    
    42   20   21 2    
    43   20   22 1    
    44   22   23 1    
    45   22   24 1    
    46   22  145 1    
    47   23  146 1    
    48   23  147 1    
    49   23  148 1    
    50   24   25 am   BACKBONE|DICT|INTERRES
    51   24  149 1    
    52   25   26 2    
    53   25   27 1    
    54   27   28 1    
    55   27   29 1    
    56   27  150 1    
    57   28  151 1    
    58   28  152 1    
    59   28  153 1    
    60   29   30 am   BACKBONE|DICT|INTERRES
    61   29  154 1    
    62   30   31 2    
    63   30   32 1    
    64   32   33 1    
    65   32   34 1    
    66   32  155 1    
    67   33  156 1    
    68   33  157 1    
    69   33  158 1    
    70   34   35 am   BACKBONE|DICT|INTERRES
    71   34  159 1    
    72   35   36 2    
    73   35   37 1    
    74   37   38 1    
    75   37   39 1    
    76   37  160 1    
    77   38  161 1    
    78   38  162 1    
    79   38  163 1    
    80   39   40 am   BACKBONE|DICT|INTERRES
    81   39  164 1    
    82   40   41 2    
    83   40   42 1    
    84   42   43 1    
    85   42   44 1    
    86   42  165 1    
    87   43  166 1    
    88   43  167 1    
    89   43  168 1    
    90   44   45 am   BACKBONE|DICT|INTERRES
    91   44  169 1    
    92   45   46 2    
    93   45   47 1    
    94   47   48 1    
    95   47   49 1    
    96   47  170 1    
    97   48  171 1    
    98   48  172 1    
    99   48  173 1    
   100   49   50 am   BACKBONE|DICT|INTERRES
   101   49  174 1    
   102   50   51 2    
   103   50   52 1    
   104   52   53 1    
   105   52   54 1    
   106   52  175 1    
   107   53  176 1    
   108   53  177 1    
   109   53  178 1    
   110   54   55 am   BACKBONE|DICT|INTERRES
   111   54  179 1    
   112   55   56 2    
   113   55   57 1    
   114   57   58 1    
   115   57   59 1    
   116   57  180 1    
   117   58  181 1    
   118   58  182 1    
   119   58  183 1    
   120   59   60 am   BACKBONE|DICT|INTERRES
   121   59  184 1    
   122   60   61 2    
   123   60   62 1    
   124   62   63 1    
   125   62   64 1    
   126   62  185 1    
   127   63  186 1    
   128   63  187 1    
   129   63  188 1    
   130   64   65 am   BACKBONE|DICT|INTERRES
   131   64  189 1    
   132   65   66 2    
   133   67   68 2    
   134   67   69 am   BACKBONE|DICT|INTERRES
   135   69   70 1    
   136   69  190 1    
   137   70   71 1    
   138   70   72 1    
   139   70  191 1    
   140   71  192 1    
   141   71  193 1    
   142   71  194 1    
   143   72   73 2    
   144   72   74 am   BACKBONE|DICT|INTERRES
   145   74   75 1    
   146   74  195 1    
   147   75   76 1    
   148   75   77 1    
   149   75  196 1    
   150   76  197 1    
   151   76  198 1    
   152   76  199 1    
   153   77   78 2    
   154   77   79 am   BACKBONE|DICT|INTERRES
   155   79   80 1    
   156   79  200 1    
   157   80   81 1    
   158   80   82 1    
   159   80  201 1    
   160   81  202 1    
   161   81  203 1    
   162   81  204 1    
   163   82   83 2    
   164   82   84 am   BACKBONE|DICT|INTERRES
   165   84   85 1    
   166   84  205 1    
   167   85   86 1    
   168   85   87 1    
   169   85  206 1    
   170   86  207 1    
   171   86  208 1    
   172   86  209 1    
   173   87   88 2    
   174   87   89 am   BACKBONE|DICT|INTERRES
   175   89   90 1    
   176   89  210 1    
   177   90   91 1    
   178   90   92 1    
   179   90  211 1    
   180   91  212 1    
   181   91  213 1    
   182   91  214 1    
   183   92   93 2    
   184   92   94 am   BACKBONE|DICT|INTERRES
   185   94   95 1    
   186   94  215 1    
   187   95   96 1    
   188   95   97 1    
   189   95  216 1    
   190   96  217 1    
   191   96  218 1    
   192   96  219 1    
   193   97   98 2    
   194   97   99 am   BACKBONE|DICT|INTERRES
   195   99  100 1    
   196   99  220 1    
   197  100  101 1    
   198  100  102 1    
   199  100  221 1    
   200  101  222 1    
   201  101  223 1    
   202  101  224 1    
   203  102  103 2    
   204  102  104 am   BACKBONE|DICT|INTERRES
   205  104  105 1    
   206  104  225 1    
   207  105  106 1    
   208  105  107 1    
   209  105  226 1    
   210  106  227 1    
   211  106  228 1    
   212  106  229 1    
   213  107  108 2    
   214  107  109 am   BACKBONE|DICT|INTERRES
   215  109  110 1    
   216  109  230 1    
   217  110  111 1    
   218  110  112 1    
   219  110  231 1    
   220  111  232 1    
   221  111  233 1    
   222  111  234 1    
   223  112  113 2    
   224  112  114 am   BACKBONE|DICT|INTERRES
   225  114  115 1    
   226  114  235 1    
   227  115  116 1    
   228  115  117 1    
   229  115  236 1    
   230  116  237 1    
   231  116  238 1    
   232  116  239 1    
   233  117  118 2    
   234  117  119 am   BACKBONE|DICT|INTERRES
   235  119  120 1    
   236  119  240 1    
   237  120  121 1    
   238  120  124 1    
   239  120  241 1    
   240  121  122 am   BACKBONE|DICT|INTERRES
   241  121  123 2    
   242  122  242 1    
   243  122  243 1    
   244  124  125 1    
   245  124  244 1    
   246  124  245 1    
   247  125  126 1    
   248  126  246 1    
   249  126  247 1    
@<TRIPOS>SUBSTRUCTURE
     1 UNK         1 GROUP             0       ****    0 ROOT    
