@<TRIPOS>MOLECULE
3R540
247   249    1
SMALL
USER_CHARGES


@<TRIPOS>ATOM
      1 CA         -4.0286  -14.6385  -45.0236 C.3       0 UNK        -0.1800 
      2 C          -2.8882  -13.6643  -44.7690 C.2       0 UNK         0.5000 
      3 O          -3.0353  -12.7395  -43.9692 O.2       0 UNK        -0.5000 
      4 N          -1.7477  -13.8664  -45.4415 N.am      1 UNK        -0.5000 
      5 CA         -0.5359  -13.0390  -45.3631 C.3       1 UNK         0.1400 
      6 C6          0.3209  -13.1307  -46.6563 C.3       23 UNK        -0.0398 
      7 S7          0.6998  -14.8312  -47.2096 S.3       23 UNK        -0.2404 
      8 C8         -0.0313  -14.8543  -48.8821 C.3       23 UNK        -0.0205 
      9 C9          0.1128  -16.1630  -49.6693 C.ar      23 UNK        -0.0193 
     10 C10        -0.6173  -16.2860  -50.8564 C.ar      23 UNK        -0.1150 
     11 C11        -0.4775  -17.4082  -51.6765 C.ar      23 UNK        -0.0193 
     12 C12         0.3976  -18.4263  -51.2950 C.ar      23 UNK        -0.1150 
     13 C13         1.1202  -18.3409  -50.1037 C.ar      23 UNK        -0.0193 
     14 C14         0.9713  -17.2093  -49.2913 C.ar      23 UNK        -0.1150 
     15 C15         2.1239  -19.4359  -49.7593 C.3       23 UNK        -0.0205 
     16 S16         1.3393  -21.0419  -49.3851 S.3       23 UNK        -0.2404 
     17 C17         0.9326  -20.8332  -47.6192 C.3       23 UNK        -0.0398 
     18 CA         -0.5009  -21.2509  -47.2080 C.3       11 UNK         0.1400 
     19 N          -0.6897  -21.1032  -45.7600 N.am      11 UNK        -0.5000 
     20 C          -1.7799  -21.4652  -45.0686 C.2       10 UNK         0.5000 
     21 O          -2.7442  -22.0434  -45.5658 O.2       10 UNK        -0.5000 
     22 CA         -1.8272  -21.0633  -43.5817 C.3       10 UNK         0.1400 
     23 CB         -1.0252  -22.0455  -42.7156 C.3       10 UNK        -0.1800 
     24 N          -1.3516  -19.6972  -43.3562 N.am      10 UNK        -0.5000 
     25 C          -1.9523  -18.6005  -43.8402 C.2       9 UNK         0.5000 
     26 O          -3.0127  -18.6221  -44.4634 O.2       9 UNK        -0.5000 
     27 CA         -1.2226  -17.2591  -43.6456 C.3       9 UNK         0.1400 
     28 CB         -1.5247  -16.6739  -42.2612 C.3       9 UNK        -0.1800 
     29 N           0.2238  -17.3606  -43.8557 N.am      9 UNK        -0.5000 
     30 C           0.7792  -17.7228  -45.0218 C.2       8 UNK         0.5000 
     31 O           0.1248  -17.9358  -46.0399 O.2       8 UNK        -0.5000 
     32 CA          2.2970  -17.9801  -45.0370 C.3       8 UNK         0.1400 
     33 CB          3.1029  -16.6855  -45.2061 C.3       8 UNK        -0.1800 
     34 N           2.7243  -18.6778  -43.8269 N.am      8 UNK        -0.5000 
     35 C           2.4577  -19.9660  -43.5705 C.2       7 UNK         0.5000 
     36 O           1.8764  -20.7096  -44.3602 O.2       7 UNK        -0.5000 
     37 CA          2.8742  -20.4998  -42.1867 C.3       7 UNK         0.1400 
     38 CB          4.3122  -21.0368  -42.2284 C.3       7 UNK        -0.1800 
     39 N           2.7697  -19.4825  -41.1392 N.am      7 UNK        -0.5000 
     40 C           1.6164  -18.9513  -40.7073 C.2       6 UNK         0.5000 
     41 O           0.5096  -19.3258  -41.0931 O.2       6 UNK        -0.5000 
     42 CA          1.7281  -17.7602  -39.7334 C.3       6 UNK         0.1400 
     43 CB          1.7837  -18.2518  -38.2799 C.3       6 UNK        -0.1800 
     44 N           2.8972  -16.9173  -40.0107 N.am      6 UNK        -0.5000 
     45 C           3.0570  -16.2091  -41.1362 C.2       5 UNK         0.5000 
     46 O           2.1979  -16.1359  -42.0168 O.2       5 UNK        -0.5000 
     47 CA          4.4323  -15.5661  -41.3555 C.3       5 UNK         0.1400 
     48 CB          5.4367  -16.6486  -41.8085 C.3       5 UNK        -0.1800 
     49 N           4.3203  -14.5078  -42.3583 N.am      5 UNK        -0.5000 
     50 C           5.2925  -13.6539  -42.7064 C.2       4 UNK         0.5000 
     51 O           6.4244  -13.6636  -42.2208 O.2       4 UNK        -0.5000 
     52 CA          4.9296  -12.5767  -43.7413 C.3       4 UNK         0.1400 
     53 CB          4.6727  -13.1803  -45.1319 C.3       4 UNK        -0.1800 
     54 N           3.7639  -11.8169  -43.2965 N.am      4 UNK        -0.5000 
     55 C           3.8244  -10.8045  -42.4170 C.2       3 UNK         0.5000 
     56 O           4.8797  -10.3389  -41.9848 O.2       3 UNK        -0.5000 
     57 CA          2.4903  -10.2085  -41.9228 C.3       3 UNK         0.1400 
     58 CB          2.1146   -8.9704  -42.7512 C.3       3 UNK        -0.1800 
     59 N           1.3813  -11.1601  -41.9637 N.am      3 UNK        -0.5000 
     60 C           1.2901  -12.2726  -41.2220 C.2       2 UNK         0.5000 
     61 O           2.0873  -12.5700  -40.3320 O.2       2 UNK        -0.5000 
     62 CA          0.1298  -13.2307  -41.5508 C.3       2 UNK         0.1400 
     63 CB         -1.0155  -13.0564  -40.5422 C.3       2 UNK        -0.1800 
     64 N          -0.4085  -13.0912  -42.9096 N.am      2 UNK        -0.5000 
     65 C           0.2645  -13.2672  -44.0554 C.2       1 UNK         0.5000 
     66 O           1.4627  -13.5495  -44.0891 O.2       1 UNK        -0.5000 
     67 C          -1.5918  -20.5023  -48.0046 C.2       11 UNK         0.5000 
     68 O          -2.1963  -21.0905  -48.9028 O.2       11 UNK        -0.5000 
     69 N          -1.8569  -19.2460  -47.6221 N.am      12 UNK        -0.5000 
     70 CA         -2.9002  -18.3972  -48.1924 C.3       12 UNK         0.1400 
     71 CB         -2.7935  -16.9911  -47.5880 C.3       12 UNK        -0.1800 
     72 C          -4.3117  -18.9688  -47.9727 C.2       12 UNK         0.5000 
     73 O          -5.0926  -19.0319  -48.9215 O.2       12 UNK        -0.5000 
     74 N          -4.6024  -19.4067  -46.7385 N.am      13 UNK        -0.5000 
     75 CA         -5.8705  -20.0265  -46.3446 C.3       13 UNK         0.1400 
     76 CB         -5.8968  -20.2155  -44.8207 C.3       13 UNK        -0.1800 
     77 C          -6.1388  -21.3618  -47.0636 C.2       13 UNK         0.5000 
     78 O          -7.2797  -21.6336  -47.4383 O.2       13 UNK        -0.5000 
     79 N          -5.0773  -22.1496  -47.2784 N.am      14 UNK        -0.5000 
     80 CA         -5.0912  -23.3855  -48.0611 C.3       14 UNK         0.1400 
     81 CB         -3.8710  -24.2343  -47.6684 C.3       14 UNK        -0.1800 
     82 C          -5.1053  -23.1474  -49.5844 C.2       14 UNK         0.5000 
     83 O          -5.2186  -24.1182  -50.3316 O.2       14 UNK        -0.5000 
     84 N          -4.9534  -21.8888  -50.0244 N.am      15 UNK        -0.5000 
     85 CA         -4.8647  -21.4370  -51.4160 C.3       15 UNK         0.1400 
     86 CB         -6.2248  -21.6144  -52.1205 C.3       15 UNK        -0.1800 
     87 C          -3.6958  -22.0979  -52.1767 C.2       15 UNK         0.5000 
     88 O          -3.8549  -22.4833  -53.3376 O.2       15 UNK        -0.5000 
     89 N          -2.5527  -22.2269  -51.4852 N.am      16 UNK        -0.5000 
     90 CA         -1.3388  -22.9340  -51.8965 C.3       16 UNK         0.1400 
     91 CB         -0.6164  -22.1954  -53.0404 C.3       16 UNK        -0.1800 
     92 C          -1.6112  -24.4276  -52.1669 C.2       16 UNK         0.5000 
     93 O          -1.3857  -24.9253  -53.2717 O.2       16 UNK        -0.5000 
     94 N          -2.1131  -25.1015  -51.1207 N.am      17 UNK        -0.5000 
     95 CA         -2.4285  -26.5328  -51.0470 C.3       17 UNK         0.1400 
     96 CB         -1.1429  -27.3799  -51.1543 C.3       17 UNK        -0.1800 
     97 C          -3.5255  -26.9743  -52.0379 C.2       17 UNK         0.5000 
     98 O          -3.4495  -28.0724  -52.5922 O.2       17 UNK        -0.5000 
     99 N          -4.5267  -26.1051  -52.2356 N.am      18 UNK        -0.5000 
    100 CA        -5.7490  -26.2358  -53.0392 C.3       18 UNK         0.1400 
    101 CB        -6.6497  -27.3522  -52.4800 C.3       18 UNK        -0.1800 
    102 C         -5.5541  -26.4047  -54.5598 C.2       18 UNK         0.5000 
    103 O         -6.3578  -25.8713  -55.3238 O.2       18 UNK        -0.5000 
    104 N         -4.5179  -27.1397  -54.9785 N.am      19 UNK        -0.5000 
    105 CA        -4.2108  -27.4746  -56.3687 C.3       19 UNK         0.1400 
    106 CB        -3.0961  -28.5313  -56.3950 C.3       19 UNK        -0.1800 
    107 C         -3.8216  -26.2546  -57.2209 C.2       19 UNK         0.5000 
    108 O         -4.1983  -26.1899  -58.3920 O.2       19 UNK        -0.5000 
    109 N         -3.0853  -25.3096  -56.6208 N.am      20 UNK        -0.5000 
    110 CA        -2.7100  -24.0450  -57.2548 C.3       20 UNK         0.1400 
    111 CB        -1.5144  -23.4451  -56.5075 C.3       20 UNK        -0.1800 
    112 C         -3.8816  -23.0470  -57.2994 C.2       20 UNK         0.5000 
    113 O         -3.9981  -22.2991  -58.2708 O.2       20 UNK        -0.5000 
    114 N         -4.7261  -23.0751  -56.2564 N.am      21 UNK        -0.5000 
    115 CA        -5.9388  -22.2752  -56.0612 C.3       21 UNK         0.1400 
    116 CB        -7.0340  -22.7097  -57.0576 C.3       21 UNK        -0.1800 
    117 C         -5.6616  -20.7571  -56.0922 C.2       21 UNK         0.5000 
    118 O         -6.3527  -20.0152  -56.7932 O.2       21 UNK        -0.5000 
    119 N         -4.6315  -20.3256  -55.3512 N.am      22 UNK        -0.5000 
    120 CA        -4.1295  -18.9394  -55.3610 C.3       22 UNK         0.1400 
    121 C         -5.0110  -17.8779  -54.6332 C.2       22 UNK         0.5000 
    122 N         -6.0940  -18.2518  -53.9633 N.am      22 UNK        -0.7600 
    123 O         -4.7141  -16.6878  -54.6940 O.2       22 UNK        -0.5000 
    124 C124       -2.6290  -18.8663  -54.9734 C.3       23 UNK        -0.0398 
    125 S125       -2.2616  -18.9453  -53.1824 S.3       23 UNK        -0.2404 
    126 C126       -1.1952  -17.4781  -53.0172 C.3       23 UNK        -0.0205 
    127 H127       -3.8507  -15.5824  -44.5088 H         1 UNK         0.0600 
    128 H128       -4.1404  -14.8337  -46.0896 H         1 UNK         0.0600 
    129 H129       -4.9708  -14.2273  -44.6606 H         1 UNK         0.0600 
    130 H130       -1.6696  -14.6593  -46.0622 H         1 UNK         0.3000 
    131 H131       -0.8646  -11.9990  -45.3052 H         1 UNK         0.0600 
    132 H132       -0.2060  -12.6142  -47.4594 H         1 UNK         0.0800 
    133 H133        1.2607  -12.5876  -46.5410 H         1 UNK         0.0800 
    134 H134       -1.0897  -14.6031  -48.7982 H         1 UNK         0.0800 
    135 H135        0.4300  -14.0574  -49.4668 H         1 UNK         0.0800 
    136 H136       -1.2715  -15.4818  -51.1632 H         1 UNK         0.1150 
    137 H137        0.5362  -19.2797  -51.9413 H         1 UNK         0.1150 
    138 H138        1.5525  -17.1372  -48.3842 H         1 UNK         0.1150 
    139 H139        2.7890  -19.5725  -50.6132 H         1 UNK         0.0800 
    140 H140        2.7651  -19.1334  -48.9299 H         1 UNK         0.0800 
    141 H141        1.1081  -19.7957  -47.3483 H         1 UNK         0.0800 
    142 H142        1.6584  -21.4140  -47.0486 H         1 UNK         0.0800 
    143 H143       -0.6136  -22.3133  -47.4333 H         1 UNK         0.0600 
    144 H144        0.0788  -20.6784  -45.2518 H         1 UNK         0.3000 
    145 H145       -2.8696  -21.1071  -43.2600 H         1 UNK         0.0600 
    146 H146       -1.0915  -21.7846  -41.6592 H         1 UNK         0.0600 
    147 H147       -1.4073  -23.0611  -42.8254 H         1 UNK         0.0600 
    148 H148        0.0289  -22.0619  -42.9900 H         1 UNK         0.0600 
    149 H149       -0.5183  -19.5854  -42.7876 H         1 UNK         0.3000 
    150 H150       -1.6078  -16.5671  -44.3953 H         1 UNK         0.0600 
    151 H151       -2.5990  -16.5584  -42.1127 H         1 UNK         0.0600 
    152 H152       -1.0778  -15.6909  -42.1520 H         1 UNK         0.0600 
    153 H153       -1.1483  -17.3062  -41.4582 H         1 UNK         0.0600 
    154 H154        0.8303  -17.1399  -43.0728 H         1 UNK         0.3000 
    155 H155        2.5262  -18.6199  -45.8910 H         1 UNK         0.0600 
    156 H156        2.7847  -15.9144  -44.5067 H         1 UNK         0.0600 
    157 H157        2.9781  -16.2840  -46.2108 H         1 UNK         0.0600 
    158 H158        4.1700  -16.8541  -45.0628 H         1 UNK         0.0600 
    159 H159        3.1489  -18.1146  -43.1068 H         1 UNK         0.3000 
    160 H160        2.2061  -21.3247  -41.9309 H         1 UNK         0.0600 
    161 H161        5.0310  -20.2498  -42.4606 H         1 UNK         0.0600 
    162 H162        4.4168  -21.8120  -42.9889 H         1 UNK         0.0600 
    163 H163        4.5955  -21.4800  -41.2736 H         1 UNK         0.0600 
    164 H164        3.6347  -19.1312  -40.7571 H         1 UNK         0.3000 
    165 H165        0.8319  -17.1478  -39.8538 H         1 UNK         0.0600 
    166 H166        1.7898  -17.4151  -37.5811 H         1 UNK         0.0600 
    167 H167        0.9135  -18.8654  -38.0427 H         1 UNK         0.0600 
    168 H168        2.6725  -18.8550  -38.0907 H         1 UNK         0.0600 
    169 H169        3.6409  -16.9361  -39.3274 H         1 UNK         0.3000 
    170 H170        4.7614  -15.1223  -40.4140 H         1 UNK         0.0600 
    171 H171        5.4720  -17.4799  -41.1037 H         1 UNK         0.0600 
    172 H172        5.1749  -17.0568  -42.7849 H         1 UNK         0.0600 
    173 H173        6.4512  -16.2572  -41.8758 H         1 UNK         0.0600 
    174 H174        3.4032  -14.4314  -42.7853 H         1 UNK         0.3000 
    175 H175        5.7828  -11.9011  -43.8351 H         1 UNK         0.0600 
    176 H176        3.8161  -13.8519  -45.1386 H         1 UNK         0.0600 
    177 H177        4.4857  -12.3996  -45.8691 H         1 UNK         0.0600 
    178 H178        5.5369  -13.7510  -45.4738 H         1 UNK         0.0600 
    179 H179        2.8592  -12.1837  -43.5715 H         1 UNK         0.3000 
    180 H180        2.6311   -9.8987  -40.8852 H         1 UNK         0.0600 
    181 H181        1.9423   -9.2236  -43.7981 H         1 UNK         0.0600 
    182 H182        2.9098   -8.2243  -42.7206 H         1 UNK         0.0600 
    183 H183        1.2116   -8.4963  -42.3661 H         1 UNK         0.0600 
    184 H184        0.6685  -10.9957  -42.6584 H         1 UNK         0.3000 
    185 H185        0.5232  -14.2418  -41.4501 H         1 UNK         0.0600 
    186 H186       -0.6607  -13.1908  -39.5195 H         1 UNK         0.0600 
    187 H187       -1.4601  -12.0627  -40.6089 H         1 UNK         0.0600 
    188 H188       -1.8059  -13.7884  -40.7089 H         1 UNK         0.0600 
    189 H189       -1.3948  -12.8582  -42.9884 H         1 UNK         0.3000 
    190 H190       -1.2677  -18.8218  -46.9093 H         1 UNK         0.3000 
    191 H191       -2.7169  -18.3278  -49.2670 H         1 UNK         0.0600 
    192 H192       -1.7748  -16.6168  -47.6471 H         1 UNK         0.0600 
    193 H193       -3.4391  -16.2886  -48.1157 H         1 UNK         0.0600 
    194 H194       -3.0794  -16.9828  -46.5374 H         1 UNK         0.0600 
    195 H195       -3.9143  -19.2773  -46.0005 H         1 UNK         0.3000 
    196 H196       -6.6735  -19.3382  -46.6158 H         1 UNK         0.0600 
    197 H197       -6.8406  -20.6559  -44.4969 H         1 UNK         0.0600 
    198 H198       -5.7881  -19.2620  -44.3035 H         1 UNK         0.0600 
    199 H199       -5.0941  -20.8719  -44.4837 H         1 UNK         0.0600 
    200 H200       -4.1833  -21.8853  -46.8729 H         1 UNK         0.3000 
    201 H201       -5.9928  -23.9483  -47.8112 H         1 UNK         0.0600 
    202 H202       -3.8707  -24.4517  -46.6002 H         1 UNK         0.0600 
    203 H203       -2.9357  -23.7255  -47.9054 H         1 UNK         0.0600 
    204 H204       -3.8704  -25.1910  -48.1917 H         1 UNK         0.0600 
    205 H205       -4.8426  -21.1579  -49.3324 H         1 UNK         0.3000 
    206 H206       -4.6433  -20.3693  -51.3809 H         1 UNK         0.0600 
    207 H207       -7.0303  -21.1675  -51.5379 H         1 UNK         0.0600 
    208 H208       -6.2248  -21.1280  -53.0935 H         1 UNK         0.0600 
    209 H209       -6.4674  -22.6659  -52.2776 H         1 UNK         0.0600 
    210 H210       -2.5261  -21.8377  -50.5435 H         1 UNK         0.3000 
    211 H211       -0.6666  -22.9111  -51.0374 H         1 UNK         0.0600 
    212 H212       -1.2925  -21.9131  -53.8442 H         1 UNK         0.0600 
    213 H213        0.1853  -22.7982  -53.4681 H         1 UNK         0.0600 
    214 H214       -0.1618  -21.2792  -52.6702 H         1 UNK         0.0600 
    215 H215       -2.3055  -24.5754  -50.2811 H         1 UNK         0.3000 
    216 H216       -2.8449  -26.6992  -50.0526 H         1 UNK         0.0600 
    217 H217       -1.3498  -28.4325  -50.9578 H         1 UNK         0.0600 
    218 H218       -0.3961  -27.0574  -50.4288 H         1 UNK         0.0600 
    219 H219       -0.6965  -27.3151  -52.1471 H         1 UNK         0.0600 
    220 H220       -4.4987  -25.2494  -51.6864 H         1 UNK         0.3000 
    221 H221       -6.2790  -25.2914  -52.9039 H         1 UNK         0.0600 
    222 H222       -6.1850  -28.3342  -52.5726 H         1 UNK         0.0600 
    223 H223       -6.8747  -27.1845  -51.4266 H         1 UNK         0.0600 
    224 H224       -7.6006  -27.3899  -53.0131 H         1 UNK         0.0600 
    225 H225       -3.9371  -27.5652  -54.2594 H         1 UNK         0.3000 
    226 H226       -5.1076  -27.9135  -56.8109 H         1 UNK         0.0600 
    227 H227       -3.3983  -29.4358  -55.8667 H         1 UNK         0.0600 
    228 H228       -2.8527  -28.8186  -57.4187 H         1 UNK         0.0600 
    229 H229       -2.1812  -28.1620  -55.9296 H         1 UNK         0.0600 
    230 H230       -2.8071  -25.4432  -55.6581 H         1 UNK         0.3000 
    231 H231       -2.4002  -24.2425  -58.2834 H         1 UNK         0.0600 
    232 H232       -1.7525  -23.3089  -55.4553 H         1 UNK         0.0600 
    233 H233       -1.2348  -22.4734  -56.9166 H         1 UNK         0.0600 
    234 H234       -0.6409  -24.0939  -56.5710 H         1 UNK         0.0600 
    235 H235       -4.4992  -23.6959  -55.4926 H         1 UNK         0.3000 
    236 H236       -6.2991  -22.5080  -55.0590 H         1 UNK         0.0600 
    237 H237       -7.2219  -23.7814  -56.9925 H         1 UNK         0.0600 
    238 H238       -7.9765  -22.2026  -56.8484 H         1 UNK         0.0600 
    239 H239       -6.7596  -22.4808  -58.0878 H         1 UNK         0.0600 
    240 H240       -4.1307  -20.9943  -54.7756 H         1 UNK         0.3000 
    241 H241       -4.1650  -18.6292  -56.4074 H         1 UNK         0.0600 
    242 H242       -6.6575  -17.5529  -53.5056 H         1 UNK         0.3800 
    243 H243       -6.3715  -19.2176  -53.9381 H         1 UNK         0.3800 
    244 H244       -2.0772  -19.6675  -55.4672 H         1 UNK         0.0800 
    245 H245       -2.2115  -17.9436  -55.3794 H         1 UNK         0.0800 
    246 H246       -1.8009  -16.5854  -53.1820 H         1 UNK         0.0800 
    247 H247       -0.4397  -17.4912  -53.8041 H         1 UNK         0.0800 
@<TRIPOS>BOND
     1    1    2 1    
     2    1  127 1    
     3    1  128 1    
     4    1  129 1    
     5    2    3 2    
     6    2    4 am   BACKBONE|DICT|INTERRES
     7    4    5 1    
     8    4  130 1    
     9    5    6 1    
    10    5   65 1    
    11    5  131 1    
    12    6    7 1    
    13    6  132 1    
    14    6  133 1    
    15    7    8 1    
    16    8    9 1    
    17    8  134 1    
    18    8  135 1    
    19    9   10 ar   
    20    9   14 ar   
    21   10   11 ar   
    22   10  136 1    
    23   11   12 ar   
    24   11  126 1    
    25   12   13 ar   
    26   12  137 1    
    27   13   14 ar   
    28   13   15 1    
    29   14  138 1    
    30   15   16 1    
    31   15  139 1    
    32   15  140 1    
    33   16   17 1    
    34   17   18 1    
    35   17  141 1    
    36   17  142 1    
    37   18   19 1    
    38   18   67 1    
    39   18  143 1    
    40   19   20 am   BACKBONE|DICT|INTERRES
    41   19  144 1    
    42   20   21 2    
    43   20   22 1    
    44   22   23 1    
    45   22   24 1    
    46   22  145 1    
    47   23  146 1    
    48   23  147 1    
    49   23  148 1    
    50   24   25 am   BACKBONE|DICT|INTERRES
    51   24  149 1    
    52   25   26 2    
    53   25   27 1    
    54   27   28 1    
    55   27   29 1    
    56   27  150 1    
    57   28  151 1    
    58   28  152 1    
    59   28  153 1    
    60   29   30 am   BACKBONE|DICT|INTERRES
    61   29  154 1    
    62   30   31 2    
    63   30   32 1    
    64   32   33 1    
    65   32   34 1    
    66   32  155 1    
    67   33  156 1    
    68   33  157 1    
    69   33  158 1    
    70   34   35 am   BACKBONE|DICT|INTERRES
    71   34  159 1    
    72   35   36 2    
    73   35   37 1    
    74   37   38 1    
    75   37   39 1    
    76   37  160 1    
    77   38  161 1    
    78   38  162 1    
    79   38  163 1    
    80   39   40 am   BACKBONE|DICT|INTERRES
    81   39  164 1    
    82   40   41 2    
    83   40   42 1    
    84   42   43 1    
    85   42   44 1    
    86   42  165 1    
    87   43  166 1    
    88   43  167 1    
    89   43  168 1    
    90   44   45 am   BACKBONE|DICT|INTERRES
    91   44  169 1    
    92   45   46 2    
    93   45   47 1    
    94   47   48 1    
    95   47   49 1    
    96   47  170 1    
    97   48  171 1    
    98   48  172 1    
    99   48  173 1    
   100   49   50 am   BACKBONE|DICT|INTERRES
   101   49  174 1    
   102   50   51 2    
   103   50   52 1    
   104   52   53 1    
   105   52   54 1    
   106   52  175 1    
   107   53  176 1    
   108   53  177 1    
   109   53  178 1    
   110   54   55 am   BACKBONE|DICT|INTERRES
   111   54  179 1    
   112   55   56 2    
   113   55   57 1    
   114   57   58 1    
   115   57   59 1    
   116   57  180 1    
   117   58  181 1    
   118   58  182 1    
   119   58  183 1    
   120   59   60 am   BACKBONE|DICT|INTERRES
   121   59  184 1    
   122   60   61 2    
   123   60   62 1    
   124   62   63 1    
   125   62   64 1    
   126   62  185 1    
   127   63  186 1    
   128   63  187 1    
   129   63  188 1    
   130   64   65 am   BACKBONE|DICT|INTERRES
   131   64  189 1    
   132   65   66 2    
   133   67   68 2    
   134   67   69 am   BACKBONE|DICT|INTERRES
   135   69   70 1    
   136   69  190 1    
   137   70   71 1    
   138   70   72 1    
   139   70  191 1    
   140   71  192 1    
   141   71  193 1    
   142   71  194 1    
   143   72   73 2    
   144   72   74 am   BACKBONE|DICT|INTERRES
   145   74   75 1    
   146   74  195 1    
   147   75   76 1    
   148   75   77 1    
   149   75  196 1    
   150   76  197 1    
   151   76  198 1    
   152   76  199 1    
   153   77   78 2    
   154   77   79 am   BACKBONE|DICT|INTERRES
   155   79   80 1    
   156   79  200 1    
   157   80   81 1    
   158   80   82 1    
   159   80  201 1    
   160   81  202 1    
   161   81  203 1    
   162   81  204 1    
   163   82   83 2    
   164   82   84 am   BACKBONE|DICT|INTERRES
   165   84   85 1    
   166   84  205 1    
   167   85   86 1    
   168   85   87 1    
   169   85  206 1    
   170   86  207 1    
   171   86  208 1    
   172   86  209 1    
   173   87   88 2    
   174   87   89 am   BACKBONE|DICT|INTERRES
   175   89   90 1    
   176   89  210 1    
   177   90   91 1    
   178   90   92 1    
   179   90  211 1    
   180   91  212 1    
   181   91  213 1    
   182   91  214 1    
   183   92   93 2    
   184   92   94 am   BACKBONE|DICT|INTERRES
   185   94   95 1    
   186   94  215 1    
   187   95   96 1    
   188   95   97 1    
   189   95  216 1    
   190   96  217 1    
   191   96  218 1    
   192   96  219 1    
   193   97   98 2    
   194   97   99 am   BACKBONE|DICT|INTERRES
   195   99  100 1    
   196   99  220 1    
   197  100  101 1    
   198  100  102 1    
   199  100  221 1    
   200  101  222 1    
   201  101  223 1    
   202  101  224 1    
   203  102  103 2    
   204  102  104 am   BACKBONE|DICT|INTERRES
   205  104  105 1    
   206  104  225 1    
   207  105  106 1    
   208  105  107 1    
   209  105  226 1    
   210  106  227 1    
   211  106  228 1    
   212  106  229 1    
   213  107  108 2    
   214  107  109 am   BACKBONE|DICT|INTERRES
   215  109  110 1    
   216  109  230 1    
   217  110  111 1    
   218  110  112 1    
   219  110  231 1    
   220  111  232 1    
   221  111  233 1    
   222  111  234 1    
   223  112  113 2    
   224  112  114 am   BACKBONE|DICT|INTERRES
   225  114  115 1    
   226  114  235 1    
   227  115  116 1    
   228  115  117 1    
   229  115  236 1    
   230  116  237 1    
   231  116  238 1    
   232  116  239 1    
   233  117  118 2    
   234  117  119 am   BACKBONE|DICT|INTERRES
   235  119  120 1    
   236  119  240 1    
   237  120  121 1    
   238  120  124 1    
   239  120  241 1    
   240  121  122 am   BACKBONE|DICT|INTERRES
   241  121  123 2    
   242  122  242 1    
   243  122  243 1    
   244  124  125 1    
   245  124  244 1    
   246  124  245 1    
   247  125  126 1    
   248  126  246 1    
   249  126  247 1    
@<TRIPOS>SUBSTRUCTURE
     1 UNK         1 GROUP             0       ****    0 ROOT    
