@<TRIPOS>MOLECULE
3R540
247   249    1
SMALL
USER_CHARGES


@<TRIPOS>ATOM
      1 CA          0.4928  -10.7079  -51.8497 C.3       0 UNK        -0.1800 
      2 C           0.8517  -12.1640  -52.1380 C.2       0 UNK         0.5000 
      3 O           0.8968  -12.5562  -53.3016 O.2       0 UNK        -0.5000 
      4 N           1.1146  -13.0022  -51.1256 N.am      1 UNK        -0.5000 
      5 CA          1.0673  -12.7031  -49.6864 C.3       1 UNK         0.1400 
      6 C6          1.9988  -13.6448  -48.8827 C.3       23 UNK        -0.0398 
      7 S7          1.5836  -15.4187  -49.0272 S.3       23 UNK        -0.2404 
      8 C8          2.9452  -16.0077  -50.0767 C.3       23 UNK        -0.0205 
      9 C9          2.7672  -17.4654  -50.4736 C.ar      23 UNK        -0.0193 
     10 C10         2.3068  -17.7991  -51.7503 C.ar      23 UNK        -0.1150 
     11 C11         2.2151  -19.1352  -52.1502 C.ar      23 UNK        -0.0193 
     12 C12         2.5859  -20.1404  -51.2488 C.ar      23 UNK        -0.1150 
     13 C13         3.0327  -19.8283  -49.9592 C.ar      23 UNK        -0.0193 
     14 C14         3.1206  -18.4817  -49.5824 C.ar      23 UNK        -0.1150 
     15 C15         3.4884  -20.9696  -49.0465 C.3       23 UNK        -0.0205 
     16 S16         3.5951  -20.5795  -47.2627 S.3       23 UNK        -0.2404 
     17 C17         1.9016  -20.9542  -46.6991 C.3       23 UNK        -0.0398 
     18 CA          1.7535  -22.4235  -46.2280 C.3       11 UNK         0.1400 
     19 N           2.6449  -22.7148  -45.1008 N.am      11 UNK        -0.5000 
     20 C           3.4547  -23.7761  -45.0064 C.2       10 UNK         0.5000 
     21 O           3.5085  -24.6733  -45.8482 O.2       10 UNK        -0.5000 
     22 CA          4.3724  -23.8494  -43.7684 C.3       10 UNK         0.1400 
     23 CB          5.7730  -23.3202  -44.1136 C.3       10 UNK        -0.1800 
     24 N           3.8584  -23.1053  -42.6165 N.am      10 UNK        -0.5000 
     25 C           2.8085  -23.4829  -41.8753 C.2       9 UNK         0.5000 
     26 O           2.1861  -24.5291  -42.0574 O.2       9 UNK        -0.5000 
     27 CA          2.3541  -22.5145  -40.7649 C.3       9 UNK         0.1400 
     28 CB          3.0328  -22.8717  -39.4340 C.3       9 UNK        -0.1800 
     29 N           2.5764  -21.0906  -41.0482 N.am      9 UNK        -0.5000 
     30 C           2.1062  -20.4242  -42.1113 C.2       8 UNK         0.5000 
     31 O           1.5327  -20.9646  -43.0558 O.2       8 UNK        -0.5000 
     32 CA          2.3069  -18.8996  -42.1247 C.3       8 UNK         0.1400 
     33 CB          2.9422  -18.4352  -43.4456 C.3       8 UNK        -0.1800 
     34 N           1.0322  -18.2094  -41.9410 N.am      8 UNK        -0.5000 
     35 C           0.3101  -18.2106  -40.8122 C.2       7 UNK         0.5000 
     36 O           0.6746  -18.7491  -39.7662 O.2       7 UNK        -0.5000 
     37 CA         -1.0456  -17.4847  -40.8557 C.3       7 UNK         0.1400 
     38 CB         -0.8594  -15.9691  -40.6816 C.3       7 UNK        -0.1800 
     39 N          -1.7766  -17.7428  -42.0953 N.am      7 UNK        -0.5000 
     40 C          -2.4595  -18.8659  -42.3603 C.2       6 UNK         0.5000 
     41 O          -2.5512  -19.8134  -41.5798 O.2       6 UNK        -0.5000 
     42 CA         -3.1763  -18.9334  -43.7222 C.3       6 UNK         0.1400 
     43 CB         -4.6003  -18.3671  -43.6056 C.3       6 UNK        -0.1800 
     44 N          -2.4418  -18.2061  -44.7590 N.am      6 UNK        -0.5000 
     45 C          -1.3546  -18.6999  -45.3709 C.2       5 UNK         0.5000 
     46 O          -0.9512  -19.8453  -45.1982 O.2       5 UNK        -0.5000 
     47 CA         -0.5689  -17.7757  -46.3203 C.3       5 UNK         0.1400 
     48 CB         -0.9553  -18.0677  -47.7743 C.3       5 UNK        -0.1800 
     49 N          -0.7457  -16.3525  -46.0295 N.am      5 UNK        -0.5000 
     50 C          -0.3182  -15.7623  -44.9019 C.2       4 UNK         0.5000 
     51 O           0.3353  -16.3488  -44.0399 O.2       4 UNK        -0.5000 
     52 CA         -0.7467  -14.3037  -44.6433 C.3       4 UNK         0.1400 
     53 CB          0.4001  -13.3359  -44.9565 C.3       4 UNK        -0.1800 
     54 N          -1.9464  -13.9053  -45.3827 N.am      4 UNK        -0.5000 
     55 C          -3.1562  -14.4598  -45.2124 C.2       3 UNK         0.5000 
     56 O          -3.3828  -15.3341  -44.3757 O.2       3 UNK        -0.5000 
     57 CA         -4.2907  -14.0141  -46.1557 C.3       3 UNK         0.1400 
     58 CB         -5.2264  -13.0284  -45.4410 C.3       3 UNK        -0.1800 
     59 N          -3.8409  -13.4151  -47.4152 N.am      3 UNK        -0.5000 
     60 C          -3.0904  -14.0208  -48.3457 C.2       2 UNK         0.5000 
     61 O          -2.6484  -15.1637  -48.2188 O.2       2 UNK        -0.5000 
     62 CA         -2.7769  -13.2253  -49.6305 C.3       2 UNK         0.1400 
     63 CB         -3.3777  -11.8015  -49.6651 C.3       2 UNK        -0.1800 
     64 N          -1.3409  -13.1759  -49.9081 N.am      2 UNK        -0.5000 
     65 C          -0.3739  -12.6802  -49.1215 C.2       1 UNK         0.5000 
     66 O          -0.5802  -12.1902  -48.0105 O.2       1 UNK        -0.5000 
     67 C           0.2842  -22.7339  -45.8770 C.2       11 UNK         0.5000 
     68 O          -0.5468  -22.7667  -46.7814 O.2       11 UNK        -0.5000 
     69 N          -0.0151  -22.9594  -44.5884 N.am      12 UNK        -0.5000 
     70 CA         -1.3580  -23.0565  -44.0102 C.3       12 UNK         0.1400 
     71 CB         -1.2339  -23.2092  -42.4873 C.3       12 UNK        -0.1800 
     72 C          -2.2674  -24.1533  -44.5950 C.2       12 UNK         0.5000 
     73 O          -3.4874  -24.0345  -44.4730 O.2       12 UNK        -0.5000 
     74 N          -1.6800  -25.1745  -45.2356 N.am      13 UNK        -0.5000 
     75 CA         -2.3601  -26.2314  -45.9878 C.3       13 UNK         0.1400 
     76 CB         -1.3048  -27.1935  -46.5570 C.3       13 UNK        -0.1800 
     77 C          -3.2503  -25.6460  -47.1033 C.2       13 UNK         0.5000 
     78 O          -2.7379  -25.2111  -48.1373 O.2       13 UNK        -0.5000 
     79 N          -4.5602  -25.5712  -46.8223 N.am      14 UNK        -0.5000 
     80 CA         -5.6065  -24.9131  -47.6163 C.3       14 UNK         0.1400 
     81 CB         -5.8429  -25.6747  -48.9377 C.3       14 UNK        -0.1800 
     82 C          -5.3514  -23.4054  -47.8455 C.2       14 UNK         0.5000 
     83 O          -5.8291  -22.8550  -48.8382 O.2       14 UNK        -0.5000 
     84 N          -4.5728  -22.7744  -46.9499 N.am      15 UNK        -0.5000 
     85 CA         -4.0519  -21.4032  -47.0335 C.3       15 UNK         0.1400 
     86 CB         -5.1761  -20.3860  -46.7527 C.3       15 UNK        -0.1800 
     87 C          -3.3030  -21.1164  -48.3545 C.2       15 UNK         0.5000 
     88 O          -3.4351  -20.0246  -48.9106 O.2       15 UNK        -0.5000 
     89 N          -2.5675  -22.1237  -48.8469 N.am      16 UNK        -0.5000 
     90 CA         -1.8454  -22.1592  -50.1178 C.3       16 UNK         0.1400 
     91 CB         -0.6382  -21.2082  -50.0865 C.3       16 UNK        -0.1800 
     92 C          -2.7896  -21.9218  -51.3107 C.2       16 UNK         0.5000 
     93 O          -2.6339  -20.9528  -52.0541 O.2       16 UNK        -0.5000 
     94 N          -3.7767  -22.8208  -51.4299 N.am      17 UNK        -0.5000 
     95 CA         -4.8360  -22.8407  -52.4404 C.3       17 UNK         0.1400 
     96 CB         -4.2479  -23.0765  -53.8480 C.3       17 UNK        -0.1800 
     97 C          -5.7510  -21.6022  -52.3576 C.2       17 UNK         0.5000 
     98 O          -5.9564  -20.9164  -53.3575 O.2       17 UNK        -0.5000 
     99 N          -6.3006  -21.3676  -51.1582 N.am      18 UNK        -0.5000 
    100 CA        -7.2575  -20.3196  -50.8014 C.3       18 UNK         0.1400 
    101 CB        -8.5749  -20.4707  -51.5920 C.3       18 UNK        -0.1800 
    102 C         -6.6519  -18.9067  -50.8960 C.2       18 UNK         0.5000 
    103 O         -7.0000  -18.1353  -51.7913 O.2       18 UNK        -0.5000 
    104 N         -5.7725  -18.6011  -49.9333 N.am      19 UNK        -0.5000 
    105 CA        -5.1193  -17.3133  -49.6910 C.3       19 UNK         0.1400 
    106 CB        -6.1521  -16.1994  -49.4117 C.3       19 UNK        -0.1800 
    107 C         -4.1108  -16.9603  -50.7969 C.2       19 UNK         0.5000 
    108 O         -4.2693  -15.9531  -51.4886 O.2       19 UNK        -0.5000 
    109 N         -3.0810  -17.8089  -50.9196 N.am      20 UNK        -0.5000 
    110 CA        -1.8764  -17.6304  -51.7419 C.3       20 UNK         0.1400 
    111 CB        -1.1326  -16.3409  -51.3368 C.3       20 UNK        -0.1800 
    112 C         -2.1015  -17.6825  -53.2660 C.2       20 UNK         0.5000 
    113 O         -1.1761  -17.3706  -54.0186 O.2       20 UNK        -0.5000 
    114 N         -3.2918  -18.0930  -53.7209 N.am      21 UNK        -0.5000 
    115 CA        -3.6473  -18.2314  -55.1349 C.3       21 UNK         0.1400 
    116 CB        -5.1637  -18.0267  -55.2954 C.3       21 UNK        -0.1800 
    117 C         -3.1371  -19.5658  -55.7224 C.2       21 UNK         0.5000 
    118 O         -3.9124  -20.3350  -56.2933 O.2       21 UNK        -0.5000 
    119 N         -1.8330  -19.8124  -55.5522 N.am      22 UNK        -0.5000 
    120 CA        -1.0951  -21.0053  -55.9863 C.3       22 UNK         0.1400 
    121 C         -1.1535  -21.2386  -57.5222 C.2       22 UNK         0.5000 
    122 N         -1.2835  -22.4826  -57.9633 N.am      22 UNK        -0.7600 
    123 O         -1.0321  -20.3084  -58.3169 O.2       22 UNK        -0.5000 
    124 C124        0.3812  -20.9555  -55.5141 C.3       23 UNK        -0.0398 
    125 S125        0.5545  -20.7921  -53.7026 S.3       23 UNK        -0.2404 
    126 C126        1.8022  -19.4684  -53.5829 C.3       23 UNK        -0.0205 
    127 H127        0.2888  -10.1748  -52.7784 H         1 UNK         0.0600 
    128 H128        1.3159  -10.1977  -51.3498 H         1 UNK         0.0600 
    129 H129       -0.3983  -10.6367  -51.2267 H         1 UNK         0.0600 
    130 H130        1.3472  -13.9593  -51.3463 H         1 UNK         0.3000 
    131 H131        1.4585  -11.6951  -49.5392 H         1 UNK         0.0600 
    132 H132        1.9966  -13.3744  -47.8274 H         1 UNK         0.0800 
    133 H133        3.0290  -13.4912  -49.2064 H         1 UNK         0.0800 
    134 H134        3.0182  -15.3822  -50.9674 H         1 UNK         0.0800 
    135 H135        3.8884  -15.8888  -49.5411 H         1 UNK         0.0800 
    136 H136        2.0521  -17.0138  -52.4479 H         1 UNK         0.1150 
    137 H137        2.5454  -21.1740  -51.5626 H         1 UNK         0.1150 
    138 H138        3.4920  -18.2080  -48.6059 H         1 UNK         0.1150 
    139 H139        2.8379  -21.8350  -49.1825 H         1 UNK         0.0800 
    140 H140        4.4797  -21.2808  -49.3779 H         1 UNK         0.0800 
    141 H141        1.2022  -20.7148  -47.4994 H         1 UNK         0.0800 
    142 H142        1.6607  -20.2743  -45.8813 H         1 UNK         0.0800 
    143 H143        2.0041  -23.0669  -47.0737 H         1 UNK         0.0600 
    144 H144        2.6202  -22.0408  -44.3434 H         1 UNK         0.3000 
    145 H145        4.4639  -24.9006  -43.4868 H         1 UNK         0.0600 
    146 H146        6.2045  -23.8731  -44.9490 H         1 UNK         0.0600 
    147 H147        5.7461  -22.2671  -44.3970 H         1 UNK         0.0600 
    148 H148        6.4546  -23.4252  -43.2694 H         1 UNK         0.0600 
    149 H149        4.3115  -22.2303  -42.3975 H         1 UNK         0.3000 
    150 H150        1.2784  -22.6519  -40.6411 H         1 UNK         0.0600 
    151 H151        2.8659  -23.9189  -39.1777 H         1 UNK         0.0600 
    152 H152        2.6358  -22.2721  -38.6147 H         1 UNK         0.0600 
    153 H153        4.1108  -22.7119  -39.4770 H         1 UNK         0.0600 
    154 H154        3.0230  -20.5612  -40.3131 H         1 UNK         0.3000 
    155 H155        2.9757  -18.6192  -41.3085 H         1 UNK         0.0600 
    156 H156        3.1682  -17.3691  -43.4184 H         1 UNK         0.0600 
    157 H157        2.2798  -18.6093  -44.2940 H         1 UNK         0.0600 
    158 H158        3.8761  -18.9632  -43.6419 H         1 UNK         0.0600 
    159 H159        0.6742  -17.7055  -42.7477 H         1 UNK         0.3000 
    160 H160       -1.6457  -17.8468  -40.0181 H         1 UNK         0.0600 
    161 H161       -0.2523  -15.5401  -41.4791 H         1 UNK         0.0600 
    162 H162       -0.3625  -15.7452  -39.7368 H         1 UNK         0.0600 
    163 H163       -1.8189  -15.4516  -40.6748 H         1 UNK         0.0600 
    164 H164       -1.7374  -17.0256  -42.8043 H         1 UNK         0.3000 
    165 H165       -3.2560  -19.9830  -44.0130 H         1 UNK         0.0600 
    166 H166       -5.1031  -18.3400  -44.5714 H         1 UNK         0.0600 
    167 H167       -5.2063  -18.9825  -42.9396 H         1 UNK         0.0600 
    168 H168       -4.6024  -17.3546  -43.2016 H         1 UNK         0.0600 
    169 H169       -2.7161  -17.2440  -44.9210 H         1 UNK         0.3000 
    170 H170        0.4905  -18.0124  -46.2010 H         1 UNK         0.0600 
    171 H171       -0.8651  -19.1328  -47.9841 H         1 UNK         0.0600 
    172 H172       -1.9836  -17.7766  -47.9890 H         1 UNK         0.0600 
    173 H173       -0.3002  -17.5498  -48.4713 H         1 UNK         0.0600 
    174 H174       -1.2907  -15.8178  -46.6975 H         1 UNK         0.3000 
    175 H175       -0.9752  -14.2188  -43.5790 H         1 UNK         0.0600 
    176 H176        0.1228  -12.3051  -44.7358 H         1 UNK         0.0600 
    177 H177        1.2841  -13.5717  -44.3626 H         1 UNK         0.0600 
    178 H178        0.6856  -13.3911  -46.0045 H         1 UNK         0.0600 
    179 H179       -1.8230  -13.2192  -46.1160 H         1 UNK         0.3000 
    180 H180       -4.8648  -14.9084  -46.4069 H         1 UNK         0.0600 
    181 H181       -4.7150  -12.0977  -45.1922 H         1 UNK         0.0600 
    182 H182       -5.6059  -13.4534  -44.5106 H         1 UNK         0.0600 
    183 H183       -6.0900  -12.7838  -46.0597 H         1 UNK         0.0600 
    184 H184       -4.1416  -12.4673  -47.5902 H         1 UNK         0.3000 
    185 H185       -3.2264  -13.7861  -50.4491 H         1 UNK         0.0600 
    186 H186       -4.4646  -11.8277  -49.5782 H         1 UNK         0.0600 
    187 H187       -2.9905  -11.1696  -48.8648 H         1 UNK         0.0600 
    188 H188       -3.1489  -11.3085  -50.6101 H         1 UNK         0.0600 
    189 H189       -1.0535  -13.5867  -50.7840 H         1 UNK         0.3000 
    190 H190        0.7361  -22.8471  -43.9219 H         1 UNK         0.3000 
    191 H191       -1.8576  -22.1073  -44.2070 H         1 UNK         0.0600 
    192 H192       -0.6678  -24.1013  -42.2170 H         1 UNK         0.0600 
    193 H193       -0.7360  -22.3444  -42.0484 H         1 UNK         0.0600 
    194 H194       -2.2154  -23.2844  -42.0172 H         1 UNK         0.0600 
    195 H195       -0.6739  -25.1522  -45.3100 H         1 UNK         0.3000 
    196 H196       -2.9878  -26.7910  -45.2916 H         1 UNK         0.0600 
    197 H197       -1.7752  -27.9921  -47.1319 H         1 UNK         0.0600 
    198 H198       -0.7283  -27.6632  -45.7599 H         1 UNK         0.0600 
    199 H199       -0.6054  -26.6804  -47.2186 H         1 UNK         0.0600 
    200 H200       -4.8617  -25.9048  -45.9167 H         1 UNK         0.3000 
    201 H201       -6.5233  -24.9762  -47.0287 H         1 UNK         0.0600 
    202 H202       -6.0291  -26.7328  -48.7544 H         1 UNK         0.0600 
    203 H203       -4.9881  -25.5966  -49.6100 H         1 UNK         0.0600 
    204 H204       -6.7117  -25.2823  -49.4677 H         1 UNK         0.0600 
    205 H205       -4.2435  -23.3156  -46.1559 H         1 UNK         0.3000 
    206 H206       -3.3073  -21.3051  -46.2423 H         1 UNK         0.0600 
    207 H207       -5.6318  -20.5667  -45.7793 H         1 UNK         0.0600 
    208 H208       -4.7898  -19.3661  -46.7452 H         1 UNK         0.0600 
    209 H209       -5.9645  -20.4352  -47.5037 H         1 UNK         0.0600 
    210 H210       -2.5083  -22.9762  -48.3015 H         1 UNK         0.3000 
    211 H211       -1.4564  -23.1733  -50.2210 H         1 UNK         0.0600 
    212 H212       -0.9389  -20.1654  -50.0138 H         1 UNK         0.0600 
    213 H213       -0.0420  -21.3166  -50.9891 H         1 UNK         0.0600 
    214 H214        0.0131  -21.4360  -49.2461 H         1 UNK         0.0600 
    215 H215       -3.8396  -23.5387  -50.7220 H         1 UNK         0.3000 
    216 H216       -5.4660  -23.6997  -52.2044 H         1 UNK         0.0600 
    217 H217       -5.0408  -23.1968  -54.5869 H         1 UNK         0.0600 
    218 H218       -3.6369  -23.9785  -53.8758 H         1 UNK         0.0600 
    219 H219       -3.6279  -22.2411  -54.1727 H         1 UNK         0.0600 
    220 H220       -6.0424  -21.9810  -50.3855 H         1 UNK         0.3000 
    221 H221       -7.5015  -20.4850  -49.7506 H         1 UNK         0.0600 
    222 H222       -8.4363  -20.3066  -52.6608 H         1 UNK         0.0600 
    223 H223       -9.0023  -21.4644  -51.4581 H         1 UNK         0.0600 
    224 H224       -9.3164  -19.7488  -51.2478 H         1 UNK         0.0600 
    225 H225       -5.4482  -19.3482  -49.3322 H         1 UNK         0.3000 
    226 H226       -4.5357  -17.4361  -48.7769 H         1 UNK         0.0600 
    227 H227       -6.8156  -16.4746  -48.5921 H         1 UNK         0.0600 
    228 H228       -5.6562  -15.2716  -49.1283 H         1 UNK         0.0600 
    229 H229       -6.7678  -15.9803  -50.2840 H         1 UNK         0.0600 
    230 H230       -3.0869  -18.6400  -50.3334 H         1 UNK         0.3000 
    231 H231       -1.2245  -18.4720  -51.5096 H         1 UNK         0.0600 
    232 H232       -1.6489  -15.4522  -51.6984 H         1 UNK         0.0600 
    233 H233       -0.1270  -16.3188  -51.7539 H         1 UNK         0.0600 
    234 H234       -1.0398  -16.2562  -50.2555 H         1 UNK         0.0600 
    235 H235       -3.9823  -18.3922  -53.0470 H         1 UNK         0.3000 
    236 H236       -3.1591  -17.4348  -55.7003 H         1 UNK         0.0600 
    237 H237       -5.4686  -17.0472  -54.9263 H         1 UNK         0.0600 
    238 H238       -5.4589  -18.0849  -56.3437 H         1 UNK         0.0600 
    239 H239       -5.7343  -18.7771  -54.7506 H         1 UNK         0.0600 
    240 H240       -1.2901  -19.1125  -55.0597 H         1 UNK         0.3000 
    241 H241       -1.5741  -21.8570  -55.5003 H         1 UNK         0.0600 
    242 H242       -1.3060  -22.6492  -58.9577 H         1 UNK         0.3800 
    243 H243       -1.3756  -23.2628  -57.3311 H         1 UNK         0.3800 
    244 H244        0.9048  -21.8660  -55.8107 H         1 UNK         0.0800 
    245 H245        0.9036  -20.1326  -56.0054 H         1 UNK         0.0800 
    246 H246        1.4085  -18.5802  -54.0799 H         1 UNK         0.0800 
    247 H247        2.6929  -19.7676  -54.1368 H         1 UNK         0.0800 
@<TRIPOS>BOND
     1    1    2 1    
     2    1  127 1    
     3    1  128 1    
     4    1  129 1    
     5    2    3 2    
     6    2    4 am   BACKBONE|DICT|INTERRES
     7    4    5 1    
     8    4  130 1    
     9    5    6 1    
    10    5   65 1    
    11    5  131 1    
    12    6    7 1    
    13    6  132 1    
    14    6  133 1    
    15    7    8 1    
    16    8    9 1    
    17    8  134 1    
    18    8  135 1    
    19    9   10 ar   
    20    9   14 ar   
    21   10   11 ar   
    22   10  136 1    
    23   11   12 ar   
    24   11  126 1    
    25   12   13 ar   
    26   12  137 1    
    27   13   14 ar   
    28   13   15 1    
    29   14  138 1    
    30   15   16 1    
    31   15  139 1    
    32   15  140 1    
    33   16   17 1    
    34   17   18 1    
    35   17  141 1    
    36   17  142 1    
    37   18   19 1    
    38   18   67 1    
    39   18  143 1    
    40   19   20 am   BACKBONE|DICT|INTERRES
    41   19  144 1    
    42   20   21 2    
    43   20   22 1    
    44   22   23 1    
    45   22   24 1    
    46   22  145 1    
    47   23  146 1    
    48   23  147 1    
    49   23  148 1    
    50   24   25 am   BACKBONE|DICT|INTERRES
    51   24  149 1    
    52   25   26 2    
    53   25   27 1    
    54   27   28 1    
    55   27   29 1    
    56   27  150 1    
    57   28  151 1    
    58   28  152 1    
    59   28  153 1    
    60   29   30 am   BACKBONE|DICT|INTERRES
    61   29  154 1    
    62   30   31 2    
    63   30   32 1    
    64   32   33 1    
    65   32   34 1    
    66   32  155 1    
    67   33  156 1    
    68   33  157 1    
    69   33  158 1    
    70   34   35 am   BACKBONE|DICT|INTERRES
    71   34  159 1    
    72   35   36 2    
    73   35   37 1    
    74   37   38 1    
    75   37   39 1    
    76   37  160 1    
    77   38  161 1    
    78   38  162 1    
    79   38  163 1    
    80   39   40 am   BACKBONE|DICT|INTERRES
    81   39  164 1    
    82   40   41 2    
    83   40   42 1    
    84   42   43 1    
    85   42   44 1    
    86   42  165 1    
    87   43  166 1    
    88   43  167 1    
    89   43  168 1    
    90   44   45 am   BACKBONE|DICT|INTERRES
    91   44  169 1    
    92   45   46 2    
    93   45   47 1    
    94   47   48 1    
    95   47   49 1    
    96   47  170 1    
    97   48  171 1    
    98   48  172 1    
    99   48  173 1    
   100   49   50 am   BACKBONE|DICT|INTERRES
   101   49  174 1    
   102   50   51 2    
   103   50   52 1    
   104   52   53 1    
   105   52   54 1    
   106   52  175 1    
   107   53  176 1    
   108   53  177 1    
   109   53  178 1    
   110   54   55 am   BACKBONE|DICT|INTERRES
   111   54  179 1    
   112   55   56 2    
   113   55   57 1    
   114   57   58 1    
   115   57   59 1    
   116   57  180 1    
   117   58  181 1    
   118   58  182 1    
   119   58  183 1    
   120   59   60 am   BACKBONE|DICT|INTERRES
   121   59  184 1    
   122   60   61 2    
   123   60   62 1    
   124   62   63 1    
   125   62   64 1    
   126   62  185 1    
   127   63  186 1    
   128   63  187 1    
   129   63  188 1    
   130   64   65 am   BACKBONE|DICT|INTERRES
   131   64  189 1    
   132   65   66 2    
   133   67   68 2    
   134   67   69 am   BACKBONE|DICT|INTERRES
   135   69   70 1    
   136   69  190 1    
   137   70   71 1    
   138   70   72 1    
   139   70  191 1    
   140   71  192 1    
   141   71  193 1    
   142   71  194 1    
   143   72   73 2    
   144   72   74 am   BACKBONE|DICT|INTERRES
   145   74   75 1    
   146   74  195 1    
   147   75   76 1    
   148   75   77 1    
   149   75  196 1    
   150   76  197 1    
   151   76  198 1    
   152   76  199 1    
   153   77   78 2    
   154   77   79 am   BACKBONE|DICT|INTERRES
   155   79   80 1    
   156   79  200 1    
   157   80   81 1    
   158   80   82 1    
   159   80  201 1    
   160   81  202 1    
   161   81  203 1    
   162   81  204 1    
   163   82   83 2    
   164   82   84 am   BACKBONE|DICT|INTERRES
   165   84   85 1    
   166   84  205 1    
   167   85   86 1    
   168   85   87 1    
   169   85  206 1    
   170   86  207 1    
   171   86  208 1    
   172   86  209 1    
   173   87   88 2    
   174   87   89 am   BACKBONE|DICT|INTERRES
   175   89   90 1    
   176   89  210 1    
   177   90   91 1    
   178   90   92 1    
   179   90  211 1    
   180   91  212 1    
   181   91  213 1    
   182   91  214 1    
   183   92   93 2    
   184   92   94 am   BACKBONE|DICT|INTERRES
   185   94   95 1    
   186   94  215 1    
   187   95   96 1    
   188   95   97 1    
   189   95  216 1    
   190   96  217 1    
   191   96  218 1    
   192   96  219 1    
   193   97   98 2    
   194   97   99 am   BACKBONE|DICT|INTERRES
   195   99  100 1    
   196   99  220 1    
   197  100  101 1    
   198  100  102 1    
   199  100  221 1    
   200  101  222 1    
   201  101  223 1    
   202  101  224 1    
   203  102  103 2    
   204  102  104 am   BACKBONE|DICT|INTERRES
   205  104  105 1    
   206  104  225 1    
   207  105  106 1    
   208  105  107 1    
   209  105  226 1    
   210  106  227 1    
   211  106  228 1    
   212  106  229 1    
   213  107  108 2    
   214  107  109 am   BACKBONE|DICT|INTERRES
   215  109  110 1    
   216  109  230 1    
   217  110  111 1    
   218  110  112 1    
   219  110  231 1    
   220  111  232 1    
   221  111  233 1    
   222  111  234 1    
   223  112  113 2    
   224  112  114 am   BACKBONE|DICT|INTERRES
   225  114  115 1    
   226  114  235 1    
   227  115  116 1    
   228  115  117 1    
   229  115  236 1    
   230  116  237 1    
   231  116  238 1    
   232  116  239 1    
   233  117  118 2    
   234  117  119 am   BACKBONE|DICT|INTERRES
   235  119  120 1    
   236  119  240 1    
   237  120  121 1    
   238  120  124 1    
   239  120  241 1    
   240  121  122 am   BACKBONE|DICT|INTERRES
   241  121  123 2    
   242  122  242 1    
   243  122  243 1    
   244  124  125 1    
   245  124  244 1    
   246  124  245 1    
   247  125  126 1    
   248  126  246 1    
   249  126  247 1    
@<TRIPOS>SUBSTRUCTURE
     1 UNK         1 GROUP             0       ****    0 ROOT    
