@<TRIPOS>MOLECULE
3R540
247   249    1
SMALL
USER_CHARGES


@<TRIPOS>ATOM
      1 CA         -0.2765  -11.8378  -49.0579 C.3       0 UNK        -0.1800 
      2 C          -0.9841  -13.0732  -48.5212 C.2       0 UNK         0.5000 
      3 O          -2.1508  -12.9874  -48.1359 O.2       0 UNK        -0.5000 
      4 N          -0.2826  -14.2161  -48.4856 N.am      1 UNK        -0.5000 
      5 CA         -0.7691  -15.5165  -48.0050 C.3       1 UNK         0.1400 
      6 C6         -1.7898  -16.1677  -48.9831 C.3       23 UNK        -0.0398 
      7 S7         -0.9211  -16.9219  -50.4013 S.3       23 UNK        -0.2404 
      8 C8         -0.9851  -18.6605  -49.8794 C.3       23 UNK        -0.0205 
      9 C9          0.1430  -19.4925  -50.4563 C.ar      23 UNK        -0.0193 
     10 C10         0.0009  -20.1407  -51.6849 C.ar      23 UNK        -0.1150 
     11 C11         1.0312  -20.9465  -52.1813 C.ar      23 UNK        -0.0193 
     12 C12         2.1932  -21.1224  -51.4251 C.ar      23 UNK        -0.1150 
     13 C13         2.3396  -20.4846  -50.1903 C.ar      23 UNK        -0.0193 
     14 C14         1.3192  -19.6548  -49.7219 C.ar      23 UNK        -0.1150 
     15 C15         3.5963  -20.6995  -49.3635 C.3       23 UNK        -0.0205 
     16 S16         3.4274  -22.1285  -48.2469 S.3       23 UNK        -0.2404 
     17 C17         2.5029  -21.4097  -46.8476 C.3       23 UNK        -0.0398 
     18 CA          1.3560  -22.3164  -46.3398 C.3       11 UNK         0.1400 
     19 N           1.0832  -22.0796  -44.9206 N.am      11 UNK        -0.5000 
     20 C           0.3266  -22.8652  -44.1431 C.2       10 UNK         0.5000 
     21 O          -0.1571  -23.9327  -44.5192 O.2       10 UNK        -0.5000 
     22 CA          0.0066  -22.3314  -42.7326 C.3       10 UNK         0.1400 
     23 CB          1.1272  -22.6723  -41.7396 C.3       10 UNK        -0.1800 
     24 N          -0.2338  -20.8853  -42.7365 N.am      10 UNK        -0.5000 
     25 C          -1.2765  -20.3071  -43.3491 C.2       9 UNK         0.5000 
     26 O          -2.1858  -20.9473  -43.8745 O.2       9 UNK        -0.5000 
     27 CA         -1.2852  -18.7701  -43.4402 C.3       9 UNK         0.1400 
     28 CB         -1.8987  -18.1539  -42.1732 C.3       9 UNK        -0.1800 
     29 N           0.0493  -18.2136  -43.6726 N.am      9 UNK        -0.5000 
     30 C           0.7567  -18.3618  -44.8021 C.2       8 UNK         0.5000 
     31 O           0.3140  -18.9071  -45.8100 O.2       8 UNK        -0.5000 
     32 CA          2.2249  -17.8942  -44.7940 C.3       8 UNK         0.1400 
     33 CB          2.3737  -16.4440  -45.2652 C.3       8 UNK        -0.1800 
     34 N           2.8441  -18.0418  -43.4800 N.am      8 UNK        -0.5000 
     35 C           3.1878  -19.2176  -42.9398 C.2       7 UNK         0.5000 
     36 O           3.0575  -20.2959  -43.5187 O.2       7 UNK        -0.5000 
     37 CA          3.7170  -19.1768  -41.4945 C.3       7 UNK         0.1400 
     38 CB          5.2220  -18.8716  -41.4770 C.3       7 UNK        -0.1800 
     39 N           3.0101  -18.1876  -40.6767 N.am      7 UNK        -0.5000 
     40 C           1.7240  -18.2952  -40.3130 C.2       6 UNK         0.5000 
     41 O           1.0240  -19.2713  -40.5808 O.2       6 UNK        -0.5000 
     42 CA          1.1057  -17.0912  -39.5749 C.3       6 UNK         0.1400 
     43 CB          1.3474  -17.2032  -38.0625 C.3       6 UNK        -0.1800 
     44 N           1.6105  -15.8002  -40.0557 N.am      6 UNK        -0.5000 
     45 C           1.4078  -15.3204  -41.2898 C.2       5 UNK         0.5000 
     46 O           0.7544  -15.9108  -42.1511 O.2       5 UNK        -0.5000 
     47 CA          2.1069  -14.0013  -41.6398 C.3       5 UNK         0.1400 
     48 CB          3.6171  -14.2508  -41.8417 C.3       5 UNK        -0.1800 
     49 N           1.5192  -13.4453  -42.8587 N.am      5 UNK        -0.5000 
     50 C           1.7563  -12.2185  -43.3383 C.2       4 UNK         0.5000 
     51 O           2.4417  -11.3773  -42.7548 O.2       4 UNK        -0.5000 
     52 CA          1.1391  -11.8684  -44.7018 C.3       4 UNK         0.1400 
     53 CB          1.9007  -12.5599  -45.8437 C.3       4 UNK        -0.1800 
     54 N          -0.2873  -12.1876  -44.7823 N.am      4 UNK        -0.5000 
     55 C          -1.2513  -11.3898  -44.2961 C.2       3 UNK         0.5000 
     56 O          -1.0171  -10.3584  -43.6644 O.2       3 UNK        -0.5000 
     57 CA         -2.7216  -11.7583  -44.5819 C.3       3 UNK         0.1400 
     58 CB         -3.3152  -10.8058  -45.6323 C.3       3 UNK        -0.1800 
     59 N          -2.8897  -13.1329  -45.0489 N.am      3 UNK        -0.5000 
     60 C          -3.0264  -14.1911  -44.2383 C.2       2 UNK         0.5000 
     61 O          -3.0888  -14.1043  -43.0116 O.2       2 UNK        -0.5000 
     62 CA         -3.0848  -15.5864  -44.8950 C.3       2 UNK         0.1400 
     63 CB         -4.5229  -16.1238  -44.9263 C.3       2 UNK        -0.1800 
     64 N          -2.5188  -15.6551  -46.2449 N.am      2 UNK        -0.5000 
     65 C          -1.2354  -15.4039  -46.5358 C.2       1 UNK         0.5000 
     66 O          -0.4202  -15.0443  -45.6861 O.2       1 UNK        -0.5000 
     67 C           0.0688  -22.2121  -47.1942 C.2       11 UNK         0.5000 
     68 O          -0.1444  -23.0509  -48.0677 O.2       11 UNK        -0.5000 
     69 N          -0.8086  -21.2451  -46.8793 N.am      12 UNK        -0.5000 
     70 CA         -2.1435  -21.0935  -47.4669 C.3       12 UNK         0.1400 
     71 CB         -2.8097  -19.7982  -46.9638 C.3       12 UNK        -0.1800 
     72 C          -3.0500  -22.3049  -47.1881 C.2       12 UNK         0.5000 
     73 O          -3.7188  -22.7834  -48.1016 O.2       12 UNK        -0.5000 
     74 N          -3.0269  -22.8111  -45.9480 N.am      13 UNK        -0.5000 
     75 CA         -3.7523  -24.0154  -45.5384 C.3       13 UNK         0.1400 
     76 CB         -3.6498  -24.1889  -44.0157 C.3       13 UNK        -0.1800 
     77 C          -3.2793  -25.2838  -46.2767 C.2       13 UNK         0.5000 
     78 O          -4.1056  -26.1401  -46.5929 O.2       13 UNK        -0.5000 
     79 N          -1.9731  -25.3656  -46.5679 N.am      14 UNK        -0.5000 
     80 CA         -1.3747  -26.4188  -47.3884 C.3       14 UNK         0.1400 
     81 CB          0.1475  -26.4343  -47.1790 C.3       14 UNK        -0.1800 
     82 C          -1.7300  -26.2777  -48.8824 C.2       14 UNK         0.5000 
     83 O          -2.0014  -27.2872  -49.5338 O.2       14 UNK        -0.5000 
     84 N          -1.7338  -25.0379  -49.3955 N.am      15 UNK        -0.5000 
     85 CA         -2.1087  -24.6958  -50.7712 C.3       15 UNK         0.1400 
     86 CB         -1.7409  -23.2311  -51.0552 C.3       15 UNK        -0.1800 
     87 C          -3.5975  -24.9528  -51.0737 C.2       15 UNK         0.5000 
     88 O          -3.9231  -25.3725  -52.1853 O.2       15 UNK        -0.5000 
     89 N          -4.4620  -24.7172  -50.0756 N.am      16 UNK        -0.5000 
     90 CA         -5.9003  -24.9906  -50.0487 C.3       16 UNK         0.1400 
     91 CB         -6.1511  -26.5126  -49.9782 C.3       16 UNK        -0.1800 
     92 C          -6.6463  -24.2896  -51.2009 C.2       16 UNK         0.5000 
     93 O          -6.8660  -23.0814  -51.1298 O.2       16 UNK        -0.5000 
     94 N          -6.9969  -25.0365  -52.2559 N.am      17 UNK        -0.5000 
     95 CA         -7.6422  -24.5227  -53.4664 C.3       17 UNK         0.1400 
     96 CB         -8.0638  -25.7081  -54.3478 C.3       17 UNK        -0.1800 
     97 C          -6.7637  -23.5396  -54.2683 C.2       17 UNK         0.5000 
     98 O          -7.3040  -22.6864  -54.9729 O.2       17 UNK        -0.5000 
     99 N          -5.4349  -23.6610  -54.1402 N.am      18 UNK        -0.5000 
    100 CA        -4.4549  -22.8007  -54.8040 C.3       18 UNK         0.1400 
    101 CB        -3.1893  -23.6238  -55.0966 C.3       18 UNK        -0.1800 
    102 C         -4.1014  -21.5396  -53.9919 C.2       18 UNK         0.5000 
    103 O         -3.3103  -20.7316  -54.4760 O.2       18 UNK        -0.5000 
    104 N         -4.6614  -21.3781  -52.7831 N.am      19 UNK        -0.5000 
    105 CA        -4.2967  -20.3437  -51.8064 C.3       19 UNK         0.1400 
    106 CB        -4.9807  -20.6548  -50.4703 C.3       19 UNK        -0.1800 
    107 C         -4.5802  -18.8830  -52.2143 C.2       19 UNK         0.5000 
    108 O         -4.1610  -17.9745  -51.4963 O.2       19 UNK        -0.5000 
    109 N         -5.2697  -18.6633  -53.3404 N.am      20 UNK        -0.5000 
    110 CA        -5.5636  -17.3547  -53.9270 C.3       20 UNK         0.1400 
    111 CB        -6.6985  -17.5248  -54.9528 C.3       20 UNK        -0.1800 
    112 C         -4.3034  -16.7014  -54.5384 C.2       20 UNK         0.5000 
    113 O         -4.1872  -16.6039  -55.7609 O.2       20 UNK        -0.5000 
    114 N         -3.3720  -16.2957  -53.6629 N.am      21 UNK        -0.5000 
    115 CA        -2.0641  -15.6919  -53.9517 C.3       21 UNK         0.1400 
    116 CB        -2.2259  -14.3255  -54.6503 C.3       21 UNK        -0.1800 
    117 C         -1.0996  -16.6429  -54.6960 C.2       21 UNK         0.5000 
    118 O         -0.2274  -16.1820  -55.4339 O.2       21 UNK        -0.5000 
    119 N         -1.2698  -17.9512  -54.4680 N.am      22 UNK        -0.5000 
    120 CA        -0.5527  -19.0587  -55.1102 C.3       22 UNK         0.1400 
    121 C         -0.9181  -19.1995  -56.6129 C.2       22 UNK         0.5000 
    122 N         -2.0876  -19.7535  -56.9014 N.am      22 UNK        -0.7600 
    123 O         -0.1682  -18.8167  -57.5075 O.2       22 UNK        -0.5000 
    124 C124        0.9699  -19.0682  -54.8060 C.3       23 UNK        -0.0398 
    125 S125        1.7133  -20.7388  -54.8796 S.3       23 UNK        -0.2404 
    126 C126        0.8853  -21.6439  -53.5248 C.3       23 UNK        -0.0205 
    127 H127       -0.2604  -11.0571  -48.2971 H         1 UNK         0.0600 
    128 H128       -0.8042  -11.4540  -49.9310 H         1 UNK         0.0600 
    129 H129        0.7521  -12.0530  -49.3484 H         1 UNK         0.0600 
    130 H130        0.6768  -14.2104  -48.8007 H         1 UNK         0.3000 
    131 H131        0.1048  -16.1681  -47.9537 H         1 UNK         0.0600 
    132 H132       -2.5065  -15.4355  -49.3575 H         1 UNK         0.0800 
    133 H133       -2.3861  -16.9437  -48.5023 H         1 UNK         0.0800 
    134 H134       -1.9538  -19.0845  -50.1420 H         1 UNK         0.0800 
    135 H135       -0.9091  -18.7062  -48.7944 H         1 UNK         0.0800 
    136 H136       -0.9101  -20.0182  -52.2512 H         1 UNK         0.1150 
    137 H137        2.9833  -21.7593  -51.7976 H         1 UNK         0.1150 
    138 H138        1.4256  -19.1482  -48.7738 H         1 UNK         0.1150 
    139 H139        4.4450  -20.8733  -50.0268 H         1 UNK         0.0800 
    140 H140        3.8399  -19.8029  -48.7914 H         1 UNK         0.0800 
    141 H141        2.1385  -20.4125  -47.0867 H         1 UNK         0.0800 
    142 H142        3.2374  -21.2649  -46.0542 H         1 UNK         0.0800 
    143 H143        1.6969  -23.3518  -46.4097 H         1 UNK         0.0600 
    144 H144        1.4976  -21.2522  -44.5070 H         1 UNK         0.3000 
    145 H145       -0.9065  -22.8234  -42.3910 H         1 UNK         0.0600 
    146 H146        0.8838  -22.3222  -40.7362 H         1 UNK         0.0600 
    147 H147        2.0776  -22.2244  -42.0275 H         1 UNK         0.0600 
    148 H148        1.2787  -23.7508  -41.6810 H         1 UNK         0.0600 
    149 H149        0.4360  -20.3001  -42.2489 H         1 UNK         0.3000 
    150 H150       -1.9108  -18.4956  -44.2911 H         1 UNK         0.0600 
    151 H151       -2.9503  -18.4279  -42.0822 H         1 UNK         0.0600 
    152 H152       -1.8446  -17.0654  -42.1859 H         1 UNK         0.0600 
    153 H153       -1.3956  -18.4979  -41.2705 H         1 UNK         0.0600 
    154 H154        0.4448  -17.6491  -42.9275 H         1 UNK         0.3000 
    155 H155        2.7701  -18.5246  -45.4993 H         1 UNK         0.0600 
    156 H156        1.9450  -16.3105  -46.2585 H         1 UNK         0.0600 
    157 H157        3.4224  -16.1528  -45.3239 H         1 UNK         0.0600 
    158 H158        1.8732  -15.7518  -44.5903 H         1 UNK         0.0600 
    159 H159        2.9410  -17.2054  -42.9258 H         1 UNK         0.3000 
    160 H160        3.5615  -20.1638  -41.0535 H         1 UNK         0.0600 
    161 H161        5.4399  -17.8849  -41.8877 H         1 UNK         0.0600 
    162 H162        5.7747  -19.6030  -42.0682 H         1 UNK         0.0600 
    163 H163        5.6194  -18.9085  -40.4625 H         1 UNK         0.0600 
    164 H164        3.5231  -17.3615  -40.4072 H         1 UNK         0.3000 
    165 H165        0.0281  -17.1155  -39.7493 H         1 UNK         0.0600 
    166 H166        0.8428  -16.4021  -37.5222 H         1 UNK         0.0600 
    167 H167        0.9620  -18.1474  -37.6749 H         1 UNK         0.0600 
    168 H168        2.4094  -17.1570  -37.8183 H         1 UNK         0.0600 
    169 H169        2.1620  -15.2615  -39.4030 H         1 UNK         0.3000 
    170 H170        1.9510  -13.3002  -40.8175 H         1 UNK         0.0600 
    171 H171        3.8042  -14.9102  -42.6902 H         1 UNK         0.0600 
    172 H172        4.1582  -13.3219  -42.0196 H         1 UNK         0.0600 
    173 H173        4.0670  -14.7113  -40.9615 H         1 UNK         0.0600 
    174 H174        0.9092  -14.0805  -43.3607 H         1 UNK         0.3000 
    175 H175        1.2617  -10.7925  -44.8466 H         1 UNK         0.0600 
    176 H176        1.7926  -13.6426  -45.8114 H         1 UNK         0.0600 
    177 H177        1.5482  -12.2170  -46.8150 H         1 UNK         0.0600 
    178 H178        2.9672  -12.3376  -45.7916 H         1 UNK         0.0600 
    179 H179       -0.5361  -13.0644  -45.2271 H         1 UNK         0.3000 
    180 H180       -3.2802  -11.6198  -43.6538 H         1 UNK         0.0600 
    181 H181       -4.3617  -11.0382  -45.8302 H         1 UNK         0.0600 
    182 H182       -2.7745  -10.8595  -46.5776 H         1 UNK         0.0600 
    183 H183       -3.2723   -9.7710  -45.2902 H         1 UNK         0.0600 
    184 H184       -2.8260  -13.2814  -46.0497 H         1 UNK         0.3000 
    185 H185       -2.4897  -16.2446  -44.2643 H         1 UNK         0.0600 
    186 H186       -5.1629  -15.5202  -45.5709 H         1 UNK         0.0600 
    187 H187       -4.5519  -17.1521  -45.2878 H         1 UNK         0.0600 
    188 H188       -4.9637  -16.1200  -43.9285 H         1 UNK         0.0600 
    189 H189       -3.1620  -15.8808  -46.9886 H         1 UNK         0.3000 
    190 H190       -0.5262  -20.5373  -46.2079 H         1 UNK         0.3000 
    191 H191       -2.0108  -21.0163  -48.5468 H         1 UNK         0.0600 
    192 H192       -3.6402  -19.5163  -47.6100 H         1 UNK         0.0600 
    193 H193       -2.1184  -18.9581  -46.9375 H         1 UNK         0.0600 
    194 H194       -3.2184  -19.9091  -45.9606 H         1 UNK         0.0600 
    195 H195       -2.5023  -22.3192  -45.2305 H         1 UNK         0.3000 
    196 H196       -4.8044  -23.8644  -45.7889 H         1 UNK         0.0600 
    197 H197       -4.0222  -23.3081  -43.4922 H         1 UNK         0.0600 
    198 H198       -2.6226  -24.3587  -43.6950 H         1 UNK         0.0600 
    199 H199       -4.2415  -25.0418  -43.6812 H         1 UNK         0.0600 
    200 H200       -1.3546  -24.6389  -46.2280 H         1 UNK         0.3000 
    201 H201       -1.7665  -27.3784  -47.0442 H         1 UNK         0.0600 
    202 H202        0.3992  -26.5712  -46.1271 H         1 UNK         0.0600 
    203 H203        0.6148  -25.5093  -47.5156 H         1 UNK         0.0600 
    204 H204        0.6074  -27.2528  -47.7339 H         1 UNK         0.0600 
    205 H205       -1.4150  -24.2710  -48.8094 H         1 UNK         0.3000 
    206 H206       -1.5225  -25.3272  -51.4417 H         1 UNK         0.0600 
    207 H207       -2.2988  -22.5445  -50.4197 H         1 UNK         0.0600 
    208 H208       -0.6790  -23.0528  -50.8852 H         1 UNK         0.0600 
    209 H209       -1.9537  -22.9642  -52.0903 H         1 UNK         0.0600 
    210 H210       -4.0973  -24.2550  -49.2461 H         1 UNK         0.3000 
    211 H211       -6.2788  -24.5508  -49.1248 H         1 UNK         0.0600 
    212 H212       -5.7261  -27.0448  -50.8298 H         1 UNK         0.0600 
    213 H213       -7.2183  -26.7348  -49.9430 H         1 UNK         0.0600 
    214 H214       -5.7054  -26.9335  -49.0765 H         1 UNK         0.0600 
    215 H215       -6.7455  -26.0144  -52.2553 H         1 UNK         0.3000 
    216 H216       -8.5425  -23.9841  -53.1635 H         1 UNK         0.0600 
    217 H217       -8.5742  -25.3637  -55.2483 H         1 UNK         0.0600 
    218 H218       -8.7511  -26.3688  -53.8191 H         1 UNK         0.0600 
    219 H219       -7.2036  -26.2997  -54.6638 H         1 UNK         0.0600 
    220 H220       -5.0624  -24.3759  -53.5216 H         1 UNK         0.3000 
    221 H221       -4.8580  -22.4621  -55.7606 H         1 UNK         0.0600 
    222 H222       -2.7117  -23.9731  -54.1815 H         1 UNK         0.0600 
    223 H223       -3.4208  -24.4972  -55.7063 H         1 UNK         0.0600 
    224 H224       -2.4532  -23.0340  -55.6448 H         1 UNK         0.0600 
    225 H225       -5.3403  -22.0610  -52.4703 H         1 UNK         0.3000 
    226 H226       -3.2196  -20.4217  -51.6550 H         1 UNK         0.0600 
    227 H227       -4.7622  -21.6705  -50.1468 H         1 UNK         0.0600 
    228 H228       -4.6387  -19.9816  -49.6849 H         1 UNK         0.0600 
    229 H229       -6.0640  -20.5519  -50.5416 H         1 UNK         0.0600 
    230 H230       -5.5457  -19.4686  -53.8823 H         1 UNK         0.3000 
    231 H231       -5.9263  -16.6927  -53.1378 H         1 UNK         0.0600 
    232 H232       -6.9607  -16.5687  -55.4077 H         1 UNK         0.0600 
    233 H233       -7.5999  -17.9168  -54.4815 H         1 UNK         0.0600 
    234 H234       -6.4175  -18.2064  -55.7567 H         1 UNK         0.0600 
    235 H235       -3.5478  -16.5095  -52.6850 H         1 UNK         0.3000 
    236 H236       -1.6025  -15.5028  -52.9822 H         1 UNK         0.0600 
    237 H237       -2.6105  -14.4310  -55.6649 H         1 UNK         0.0600 
    238 H238       -2.9068  -13.6782  -54.0978 H         1 UNK         0.0600 
    239 H239       -1.2697  -13.8053  -54.7173 H         1 UNK         0.0600 
    240 H240       -2.0435  -18.2217  -53.8799 H         1 UNK         0.3000 
    241 H241       -0.9657  -19.9373  -54.6258 H         1 UNK         0.0600 
    242 H242       -2.3724  -19.8594  -57.8618 H         1 UNK         0.3800 
    243 H243       -2.6886  -20.0769  -56.1485 H         1 UNK         0.3800 
    244 H244        1.1596  -18.6636  -53.8114 H         1 UNK         0.0800 
    245 H245        1.5086  -18.4102  -55.4893 H         1 UNK         0.0800 
    246 H246       -0.1662  -21.8077  -53.7623 H         1 UNK         0.0800 
    247 H247        1.3239  -22.6408  -53.4599 H         1 UNK         0.0800 
@<TRIPOS>BOND
     1    1    2 1    
     2    1  127 1    
     3    1  128 1    
     4    1  129 1    
     5    2    3 2    
     6    2    4 am   BACKBONE|DICT|INTERRES
     7    4    5 1    
     8    4  130 1    
     9    5    6 1    
    10    5   65 1    
    11    5  131 1    
    12    6    7 1    
    13    6  132 1    
    14    6  133 1    
    15    7    8 1    
    16    8    9 1    
    17    8  134 1    
    18    8  135 1    
    19    9   10 ar   
    20    9   14 ar   
    21   10   11 ar   
    22   10  136 1    
    23   11   12 ar   
    24   11  126 1    
    25   12   13 ar   
    26   12  137 1    
    27   13   14 ar   
    28   13   15 1    
    29   14  138 1    
    30   15   16 1    
    31   15  139 1    
    32   15  140 1    
    33   16   17 1    
    34   17   18 1    
    35   17  141 1    
    36   17  142 1    
    37   18   19 1    
    38   18   67 1    
    39   18  143 1    
    40   19   20 am   BACKBONE|DICT|INTERRES
    41   19  144 1    
    42   20   21 2    
    43   20   22 1    
    44   22   23 1    
    45   22   24 1    
    46   22  145 1    
    47   23  146 1    
    48   23  147 1    
    49   23  148 1    
    50   24   25 am   BACKBONE|DICT|INTERRES
    51   24  149 1    
    52   25   26 2    
    53   25   27 1    
    54   27   28 1    
    55   27   29 1    
    56   27  150 1    
    57   28  151 1    
    58   28  152 1    
    59   28  153 1    
    60   29   30 am   BACKBONE|DICT|INTERRES
    61   29  154 1    
    62   30   31 2    
    63   30   32 1    
    64   32   33 1    
    65   32   34 1    
    66   32  155 1    
    67   33  156 1    
    68   33  157 1    
    69   33  158 1    
    70   34   35 am   BACKBONE|DICT|INTERRES
    71   34  159 1    
    72   35   36 2    
    73   35   37 1    
    74   37   38 1    
    75   37   39 1    
    76   37  160 1    
    77   38  161 1    
    78   38  162 1    
    79   38  163 1    
    80   39   40 am   BACKBONE|DICT|INTERRES
    81   39  164 1    
    82   40   41 2    
    83   40   42 1    
    84   42   43 1    
    85   42   44 1    
    86   42  165 1    
    87   43  166 1    
    88   43  167 1    
    89   43  168 1    
    90   44   45 am   BACKBONE|DICT|INTERRES
    91   44  169 1    
    92   45   46 2    
    93   45   47 1    
    94   47   48 1    
    95   47   49 1    
    96   47  170 1    
    97   48  171 1    
    98   48  172 1    
    99   48  173 1    
   100   49   50 am   BACKBONE|DICT|INTERRES
   101   49  174 1    
   102   50   51 2    
   103   50   52 1    
   104   52   53 1    
   105   52   54 1    
   106   52  175 1    
   107   53  176 1    
   108   53  177 1    
   109   53  178 1    
   110   54   55 am   BACKBONE|DICT|INTERRES
   111   54  179 1    
   112   55   56 2    
   113   55   57 1    
   114   57   58 1    
   115   57   59 1    
   116   57  180 1    
   117   58  181 1    
   118   58  182 1    
   119   58  183 1    
   120   59   60 am   BACKBONE|DICT|INTERRES
   121   59  184 1    
   122   60   61 2    
   123   60   62 1    
   124   62   63 1    
   125   62   64 1    
   126   62  185 1    
   127   63  186 1    
   128   63  187 1    
   129   63  188 1    
   130   64   65 am   BACKBONE|DICT|INTERRES
   131   64  189 1    
   132   65   66 2    
   133   67   68 2    
   134   67   69 am   BACKBONE|DICT|INTERRES
   135   69   70 1    
   136   69  190 1    
   137   70   71 1    
   138   70   72 1    
   139   70  191 1    
   140   71  192 1    
   141   71  193 1    
   142   71  194 1    
   143   72   73 2    
   144   72   74 am   BACKBONE|DICT|INTERRES
   145   74   75 1    
   146   74  195 1    
   147   75   76 1    
   148   75   77 1    
   149   75  196 1    
   150   76  197 1    
   151   76  198 1    
   152   76  199 1    
   153   77   78 2    
   154   77   79 am   BACKBONE|DICT|INTERRES
   155   79   80 1    
   156   79  200 1    
   157   80   81 1    
   158   80   82 1    
   159   80  201 1    
   160   81  202 1    
   161   81  203 1    
   162   81  204 1    
   163   82   83 2    
   164   82   84 am   BACKBONE|DICT|INTERRES
   165   84   85 1    
   166   84  205 1    
   167   85   86 1    
   168   85   87 1    
   169   85  206 1    
   170   86  207 1    
   171   86  208 1    
   172   86  209 1    
   173   87   88 2    
   174   87   89 am   BACKBONE|DICT|INTERRES
   175   89   90 1    
   176   89  210 1    
   177   90   91 1    
   178   90   92 1    
   179   90  211 1    
   180   91  212 1    
   181   91  213 1    
   182   91  214 1    
   183   92   93 2    
   184   92   94 am   BACKBONE|DICT|INTERRES
   185   94   95 1    
   186   94  215 1    
   187   95   96 1    
   188   95   97 1    
   189   95  216 1    
   190   96  217 1    
   191   96  218 1    
   192   96  219 1    
   193   97   98 2    
   194   97   99 am   BACKBONE|DICT|INTERRES
   195   99  100 1    
   196   99  220 1    
   197  100  101 1    
   198  100  102 1    
   199  100  221 1    
   200  101  222 1    
   201  101  223 1    
   202  101  224 1    
   203  102  103 2    
   204  102  104 am   BACKBONE|DICT|INTERRES
   205  104  105 1    
   206  104  225 1    
   207  105  106 1    
   208  105  107 1    
   209  105  226 1    
   210  106  227 1    
   211  106  228 1    
   212  106  229 1    
   213  107  108 2    
   214  107  109 am   BACKBONE|DICT|INTERRES
   215  109  110 1    
   216  109  230 1    
   217  110  111 1    
   218  110  112 1    
   219  110  231 1    
   220  111  232 1    
   221  111  233 1    
   222  111  234 1    
   223  112  113 2    
   224  112  114 am   BACKBONE|DICT|INTERRES
   225  114  115 1    
   226  114  235 1    
   227  115  116 1    
   228  115  117 1    
   229  115  236 1    
   230  116  237 1    
   231  116  238 1    
   232  116  239 1    
   233  117  118 2    
   234  117  119 am   BACKBONE|DICT|INTERRES
   235  119  120 1    
   236  119  240 1    
   237  120  121 1    
   238  120  124 1    
   239  120  241 1    
   240  121  122 am   BACKBONE|DICT|INTERRES
   241  121  123 2    
   242  122  242 1    
   243  122  243 1    
   244  124  125 1    
   245  124  244 1    
   246  124  245 1    
   247  125  126 1    
   248  126  246 1    
   249  126  247 1    
@<TRIPOS>SUBSTRUCTURE
     1 UNK         1 GROUP             0       ****    0 ROOT    
