@<TRIPOS>MOLECULE
3R540
247   249    1
SMALL
USER_CHARGES


@<TRIPOS>ATOM
      1 CA         -4.8572  -13.6784  -48.4345 C.3       0 UNK        -0.1800 
      2 C          -3.5537  -14.0577  -47.7479 C.2       0 UNK         0.5000 
      3 O          -3.4547  -15.1471  -47.1840 O.2       0 UNK        -0.5000 
      4 N          -2.5596  -13.1592  -47.7838 N.am      1 UNK        -0.5000 
      5 CA         -1.1964  -13.2771  -47.2359 C.3       1 UNK         0.1400 
      6 C6         -0.3759  -14.4619  -47.8106 C.3       23 UNK        -0.0398 
      7 S7         -0.0899  -14.3065  -49.6068 S.3       23 UNK        -0.2404 
      8 C8         -1.2097  -15.5652  -50.2985 C.3       23 UNK        -0.0205 
      9 C9         -0.6880  -16.9794  -50.0957 C.ar      23 UNK        -0.0193 
     10 C10         0.2556  -17.5112  -50.9790 C.ar      23 UNK        -0.1150 
     11 C11         0.7105  -18.8244  -50.8278 C.ar      23 UNK        -0.0193 
     12 C12         0.2207  -19.6044  -49.7761 C.ar      23 UNK        -0.1150 
     13 C13        -0.7300  -19.0861  -48.8929 C.ar      23 UNK        -0.0193 
     14 C14        -1.1777  -17.7721  -49.0541 C.ar      23 UNK        -0.1150 
     15 C15        -1.3032  -19.9574  -47.7900 C.3       23 UNK        -0.0205 
     16 S16        -0.1314  -20.1439  -46.4153 S.3       23 UNK        -0.2404 
     17 C17        -1.2031  -20.9672  -45.1901 C.3       23 UNK        -0.0398 
     18 CA         -1.1759  -22.5080  -45.3201 C.3       11 UNK         0.1400 
     19 N           0.1656  -23.0693  -45.1088 N.am      11 UNK        -0.5000 
     20 C           0.5160  -24.3370  -45.3766 C.2       10 UNK         0.5000 
     21 O          -0.2731  -25.1706  -45.8201 O.2       10 UNK        -0.5000 
     22 CA          1.9596  -24.7752  -45.0622 C.3       10 UNK         0.1400 
     23 CB          2.8019  -24.7804  -46.3463 C.3       10 UNK        -0.1800 
     24 N           2.6286  -23.9465  -44.0599 N.am      10 UNK        -0.5000 
     25 C           2.2509  -23.8001  -42.7811 C.2       9 UNK         0.5000 
     26 O           1.3061  -24.4053  -42.2740 O.2       9 UNK        -0.5000 
     27 CA          3.0279  -22.7537  -41.9530 C.3       9 UNK         0.1400 
     28 CB          4.1537  -23.4268  -41.1541 C.3       9 UNK        -0.1800 
     29 N           3.5947  -21.6734  -42.7724 N.am      9 UNK        -0.5000 
     30 C           2.8647  -20.8241  -43.5082 C.2       8 UNK         0.5000 
     31 O           1.6323  -20.8331  -43.5217 O.2       8 UNK        -0.5000 
     32 CA          3.6421  -19.8814  -44.4429 C.3       8 UNK         0.1400 
     33 CB          4.1944  -20.6662  -45.6450 C.3       8 UNK        -0.1800 
     34 N           2.7769  -18.8214  -44.9533 N.am      8 UNK        -0.5000 
     35 C           2.5153  -17.6757  -44.3187 C.2       7 UNK         0.5000 
     36 O           3.0271  -17.3480  -43.2449 O.2       7 UNK        -0.5000 
     37 CA          1.4893  -16.7487  -44.9975 C.3       7 UNK         0.1400 
     38 CB          0.0946  -16.9456  -44.3843 C.3       7 UNK        -0.1800 
     39 N           1.8666  -15.3398  -44.8864 N.am      7 UNK        -0.5000 
     40 C           2.9423  -14.7830  -45.4616 C.2       6 UNK         0.5000 
     41 O           3.7023  -15.3926  -46.2150 O.2       6 UNK        -0.5000 
     42 CA          3.2108  -13.2943  -45.1691 C.3       6 UNK         0.1400 
     43 CB          2.9798  -12.4429  -46.4289 C.3       6 UNK        -0.1800 
     44 N           2.3621  -12.7711  -44.0987 N.am      6 UNK        -0.5000 
     45 C           2.7010  -12.6937  -42.8050 C.2       5 UNK         0.5000 
     46 O           3.7797  -13.0898  -42.3606 O.2       5 UNK        -0.5000 
     47 CA          1.6512  -12.0721  -41.8547 C.3       5 UNK         0.1400 
     48 CB          2.2734  -11.4663  -40.5795 C.3       5 UNK        -0.1800 
     49 N           0.7708  -11.1059  -42.5231 N.am      5 UNK        -0.5000 
     50 C           1.1197   -9.9534  -43.1196 C.2       4 UNK         0.5000 
     51 O           2.2571   -9.4824  -43.0855 O.2       4 UNK        -0.5000 
     52 CA          0.0302   -9.2172  -43.9266 C.3       4 UNK         0.1400 
     53 CB          0.4459   -9.0952  -45.4030 C.3       4 UNK        -0.1800 
     54 N          -1.2596   -9.9068  -43.8720 N.am      4 UNK        -0.5000 
     55 C          -2.2683   -9.6007  -43.0456 C.2       3 UNK         0.5000 
     56 O          -2.2479   -8.6516  -42.2614 O.2       3 UNK        -0.5000 
     57 CA         -3.5053  -10.5223  -43.0894 C.3       3 UNK         0.1400 
     58 CB         -4.5862   -9.9252  -44.0033 C.3       3 UNK        -0.1800 
     59 N          -3.2046  -11.8845  -43.5396 N.am      3 UNK        -0.5000 
     60 C          -2.4473  -12.7661  -42.8716 C.2       2 UNK         0.5000 
     61 O          -1.9279  -12.5334  -41.7807 O.2       2 UNK        -0.5000 
     62 CA         -2.1626  -14.1055  -43.5741 C.3       2 UNK         0.1400 
     63 CB         -3.2392  -15.1435  -43.2278 C.3       2 UNK        -0.1800 
     64 N          -2.0559  -13.9897  -45.0307 N.am      2 UNK        -0.5000 
     65 C          -1.1449  -13.2670  -45.6929 C.2       1 UNK         0.5000 
     66 O          -0.2925  -12.5835  -45.1247 O.2       1 UNK        -0.5000 
     67 C          -2.2574  -23.1494  -44.4217 C.2       11 UNK         0.5000 
     68 O          -3.4416  -23.0335  -44.7358 O.2       11 UNK        -0.5000 
     69 N          -1.8468  -23.8345  -43.3442 N.am      12 UNK        -0.5000 
     70 CA         -2.7248  -24.6484  -42.5038 C.3       12 UNK         0.1400 
     71 CB         -2.0112  -24.9380  -41.1746 C.3       12 UNK        -0.1800 
     72 C          -3.1548  -25.9670  -43.1817 C.2       12 UNK         0.5000 
     73 O          -4.1940  -26.5158  -42.8129 O.2       12 UNK        -0.5000 
     74 N          -2.3542  -26.4570  -44.1391 N.am      13 UNK        -0.5000 
     75 CA         -2.5856  -27.7042  -44.8677 C.3       13 UNK         0.1400 
     76 CB         -1.2777  -28.5115  -44.8978 C.3       13 UNK        -0.1800 
     77 C          -3.0890  -27.4509  -46.2990 C.2       13 UNK         0.5000 
     78 O          -3.9274  -28.2122  -46.7840 O.2       13 UNK        -0.5000 
     79 N          -2.5625  -26.4084  -46.9569 N.am      14 UNK        -0.5000 
     80 CA         -2.8925  -26.0255  -48.3297 C.3       14 UNK         0.1400 
     81 CB         -1.9334  -24.9144  -48.7869 C.3       14 UNK        -0.1800 
     82 C          -4.3537  -25.5658  -48.4903 C.2       14 UNK         0.5000 
     83 O          -4.8963  -24.8991  -47.6058 O.2       14 UNK        -0.5000 
     84 N          -4.9467  -25.9076  -49.6393 N.am      15 UNK        -0.5000 
     85 CA         -6.2659  -25.4444  -50.0659 C.3       15 UNK         0.1400 
     86 CB         -6.7664  -26.3719  -51.1855 C.3       15 UNK        -0.1800 
     87 C          -6.2141  -23.9899  -50.5677 C.2       15 UNK         0.5000 
     88 O          -5.1425  -23.4997  -50.9323 O.2       15 UNK        -0.5000 
     89 N          -7.3847  -23.3442  -50.6493 N.am      16 UNK        -0.5000 
     90 CA         -7.5457  -21.9866  -51.1820 C.3       16 UNK         0.1400 
     91 CB         -9.0030  -21.5369  -51.0019 C.3       16 UNK        -0.1800 
     92 C          -7.1168  -21.8578  -52.6572 C.2       16 UNK         0.5000 
     93 O          -6.5388  -20.8401  -53.0361 O.2       16 UNK        -0.5000 
     94 N          -7.3631  -22.9111  -53.4494 N.am      17 UNK        -0.5000 
     95 CA         -6.9269  -23.0184  -54.8422 C.3       17 UNK         0.1400 
     96 CB         -7.6129  -24.2257  -55.4985 C.3       17 UNK        -0.1800 
     97 C          -5.3966  -23.1258  -54.9748 C.2       17 UNK         0.5000 
     98 O          -4.8224  -22.5237  -55.8815 O.2       17 UNK        -0.5000 
     99 N          -4.7601  -23.8589  -54.0500 N.am      18 UNK        -0.5000 
    100 CA        -3.3059  -23.9958  -53.9692 C.3       18 UNK         0.1400 
    101 CB        -2.9378  -25.1552  -53.0301 C.3       18 UNK        -0.1800 
    102 C         -2.6390  -22.6827  -53.5279 C.2       18 UNK         0.5000 
    103 O         -1.6543  -22.2741  -54.1411 O.2       18 UNK        -0.5000 
    104 N         -3.2272  -22.0235  -52.5181 N.am      19 UNK        -0.5000 
    105 CA        -2.8248  -20.7050  -52.0226 C.3       19 UNK         0.1400 
    106 CB        -3.6579  -20.3528  -50.7813 C.3       19 UNK        -0.1800 
    107 C         -2.9361  -19.5979  -53.0898 C.2       19 UNK         0.5000 
    108 O         -2.0921  -18.7046  -53.1335 O.2       19 UNK        -0.5000 
    109 N         -3.9592  -19.6854  -53.9514 N.am      20 UNK        -0.5000 
    110 CA        -4.1205  -18.8187  -55.1166 C.3       20 UNK         0.1400 
    111 CB        -5.5397  -18.9695  -55.6851 C.3       20 UNK        -0.1800 
    112 C         -3.0588  -19.0950  -56.1977 C.2       20 UNK         0.5000 
    113 O         -2.4831  -18.1467  -56.7326 O.2       20 UNK        -0.5000 
    114 N         -2.8031  -20.3800  -56.4870 N.am      21 UNK        -0.5000 
    115 CA        -1.8611  -20.8390  -57.5120 C.3       21 UNK         0.1400 
    116 CB        -1.9591  -22.3645  -57.6657 C.3       21 UNK        -0.1800 
    117 C         -0.4024  -20.4058  -57.2697 C.2       21 UNK         0.5000 
    118 O          0.2802  -20.0469  -58.2305 O.2       21 UNK        -0.5000 
    119 N          0.0429  -20.4163  -56.0061 N.am      22 UNK        -0.5000 
    120 CA         1.3533  -19.8834  -55.5881 C.3       22 UNK         0.1400 
    121 C          1.4058  -18.3336  -55.4199 C.2       22 UNK         0.5000 
    122 N          0.3287  -17.5899  -55.6438 N.am      22 UNK        -0.7600 
    123 O          2.4593  -17.7868  -55.1042 O.2       22 UNK        -0.5000 
    124 C124        1.9458  -20.6432  -54.3702 C.3       23 UNK        -0.0398 
    125 S125        0.8815  -20.6291  -52.8915 S.3       23 UNK        -0.2404 
    126 C126        1.7017  -19.4100  -51.8209 C.3       23 UNK        -0.0205 
    127 H127       -5.0883  -14.3976  -49.2202 H         1 UNK         0.0600 
    128 H128       -4.8056  -12.6870  -48.8851 H         1 UNK         0.0600 
    129 H129       -5.6754  -13.6834  -47.7144 H         1 UNK         0.0600 
    130 H130       -2.7363  -12.2830  -48.2552 H         1 UNK         0.3000 
    131 H131       -0.6907  -12.3602  -47.5440 H         1 UNK         0.0600 
    132 H132        0.6093  -14.5027  -47.3460 H         1 UNK         0.0800 
    133 H133       -0.8479  -15.4156  -47.5784 H         1 UNK         0.0800 
    134 H134       -2.2046  -15.4587  -49.8669 H         1 UNK         0.0800 
    135 H135       -1.3269  -15.3775  -51.3668 H         1 UNK         0.0800 
    136 H136        0.6190  -16.9072  -51.7985 H         1 UNK         0.1150 
    137 H137        0.5604  -20.6242  -49.6612 H         1 UNK         0.1150 
    138 H138       -1.9226  -17.3722  -48.3800 H         1 UNK         0.1150 
    139 H139       -2.2368  -19.5286  -47.4224 H         1 UNK         0.0800 
    140 H140       -1.5511  -20.9409  -48.1921 H         1 UNK         0.0800 
    141 H141       -2.2188  -20.5839  -45.3035 H         1 UNK         0.0800 
    142 H142       -0.8843  -20.6632  -44.1923 H         1 UNK         0.0800 
    143 H143       -1.4605  -22.7508  -46.3447 H         1 UNK         0.0600 
    144 H144        0.8488  -22.4342  -44.7130 H         1 UNK         0.3000 
    145 H145        1.9129  -25.7953  -44.6755 H         1 UNK         0.0600 
    146 H146        3.8038  -25.1677  -46.1604 H         1 UNK         0.0600 
    147 H147        2.3470  -25.4136  -47.1095 H         1 UNK         0.0600 
    148 H148        2.9001  -23.7788  -46.7670 H         1 UNK         0.0600 
    149 H149        3.4188  -23.4079  -44.3806 H         1 UNK         0.3000 
    150 H150        2.3245  -22.3070  -41.2471 H         1 UNK         0.0600 
    151 H151        4.9017  -23.8740  -41.8100 H         1 UNK         0.0600 
    152 H152        3.7596  -24.2198  -40.5169 H         1 UNK         0.0600 
    153 H153        4.6592  -22.7117  -40.5049 H         1 UNK         0.0600 
    154 H154        4.6026  -21.6167  -42.8082 H         1 UNK         0.3000 
    155 H155        4.4754  -19.4435  -43.8894 H         1 UNK         0.0600 
    156 H156        3.3967  -21.1481  -46.2125 H         1 UNK         0.0600 
    157 H157        4.8891  -21.4443  -45.3270 H         1 UNK         0.0600 
    158 H158        4.7379  -20.0105  -46.3256 H         1 UNK         0.0600 
    159 H159        2.2474  -19.0477  -45.7835 H         1 UNK         0.3000 
    160 H160        1.4365  -17.0022  -46.0589 H         1 UNK         0.0600 
    161 H161        0.0525  -16.5878  -43.3553 H         1 UNK         0.0600 
    162 H162       -0.1846  -17.9992  -44.3692 H         1 UNK         0.0600 
    163 H163       -0.6658  -16.4223  -44.9624 H         1 UNK         0.0600 
    164 H164        1.3249  -14.7712  -44.2544 H         1 UNK         0.3000 
    165 H165        4.2615  -13.2015  -44.8867 H         1 UNK         0.0600 
    166 H166        3.6119  -12.7789  -47.2519 H         1 UNK         0.0600 
    167 H167        1.9454  -12.4919  -46.7685 H         1 UNK         0.0600 
    168 H168        3.2190  -11.3956  -46.2431 H         1 UNK         0.0600 
    169 H169        1.4357  -12.4596  -44.3795 H         1 UNK         0.3000 
    170 H170        1.0076  -12.8959  -41.5432 H         1 UNK         0.0600 
    171 H171        2.7952  -12.2281  -39.9994 H         1 UNK         0.0600 
    172 H172        2.9952  -10.6829  -40.8115 H         1 UNK         0.0600 
    173 H173        1.5075  -11.0372  -39.9335 H         1 UNK         0.0600 
    174 H174       -0.1987  -11.3881  -42.5869 H         1 UNK         0.3000 
    175 H175       -0.0612   -8.2110  -43.5129 H         1 UNK         0.0600 
    176 H176       -0.3103   -8.5659  -45.9828 H         1 UNK         0.0600 
    177 H177        1.3783   -8.5385  -45.5043 H         1 UNK         0.0600 
    178 H178        0.5974  -10.0729  -45.8621 H         1 UNK         0.0600 
    179 H179       -1.3444  -10.7255  -44.4599 H         1 UNK         0.3000 
    180 H180       -3.9067  -10.5822  -42.0756 H         1 UNK         0.0600 
    181 H181       -4.2476   -9.8602  -45.0382 H         1 UNK         0.0600 
    182 H182       -4.8568   -8.9183  -43.6826 H         1 UNK         0.0600 
    183 H183       -5.4958  -10.5259  -43.9838 H         1 UNK         0.0600 
    184 H184       -3.5813  -12.1611  -44.4343 H         1 UNK         0.3000 
    185 H185       -1.2040  -14.4679  -43.1988 H         1 UNK         0.0600 
    186 H186       -3.3300  -15.2685  -42.1479 H         1 UNK         0.0600 
    187 H187       -4.2178  -14.8505  -43.6098 H         1 UNK         0.0600 
    188 H188       -2.9945  -16.1195  -43.6477 H         1 UNK         0.0600 
    189 H189       -2.7126  -14.5298  -45.5896 H         1 UNK         0.3000 
    190 H190       -0.8566  -23.8770  -43.1389 H         1 UNK         0.3000 
    191 H191       -3.6290  -24.0756  -42.2870 H         1 UNK         0.0600 
    192 H192       -1.7387  -24.0149  -40.6628 H         1 UNK         0.0600 
    193 H193       -2.6547  -25.5055  -40.5011 H         1 UNK         0.0600 
    194 H194       -1.1005  -25.5191  -41.3256 H         1 UNK         0.0600 
    195 H195       -1.5430  -25.9202  -44.4216 H         1 UNK         0.3000 
    196 H196       -3.3372  -28.3090  -44.3561 H         1 UNK         0.0600 
    197 H197       -1.4135  -29.4558  -45.4267 H         1 UNK         0.0600 
    198 H198       -0.9400  -28.7498  -43.8891 H         1 UNK         0.0600 
    199 H199       -0.4765  -27.9664  -45.3986 H         1 UNK         0.0600 
    200 H200       -1.8389  -25.8598  -46.5012 H         1 UNK         0.3000 
    201 H201       -2.7288  -26.9011  -48.9615 H         1 UNK         0.0600 
    202 H202       -2.1074  -24.6504  -49.8306 H         1 UNK         0.0600 
    203 H203       -2.0642  -24.0070  -48.1980 H         1 UNK         0.0600 
    204 H204       -0.8923  -25.2259  -48.6985 H         1 UNK         0.0600 
    205 H205       -4.4198  -26.4321  -50.3212 H         1 UNK         0.3000 
    206 H206       -6.9552  -25.5008  -49.2208 H         1 UNK         0.0600 
    207 H207       -6.8188  -27.4062  -50.8447 H         1 UNK         0.0600 
    208 H208       -7.7680  -26.0918  -51.5139 H         1 UNK         0.0600 
    209 H209       -6.1135  -26.3409  -52.0590 H         1 UNK         0.0600 
    210 H210       -8.2262  -23.8095  -50.3406 H         1 UNK         0.3000 
    211 H211       -6.9095  -21.3218  -50.5946 H         1 UNK         0.0600 
    212 H212       -9.6952  -22.1840  -51.5421 H         1 UNK         0.0600 
    213 H213       -9.1462  -20.5209  -51.3726 H         1 UNK         0.0600 
    214 H214       -9.2900  -21.5406  -49.9502 H         1 UNK         0.0600 
    215 H215       -7.8517  -23.7033  -53.0597 H         1 UNK         0.3000 
    216 H216       -7.2443  -22.1162  -55.3695 H         1 UNK         0.0600 
    217 H217       -7.3173  -24.3209  -56.5442 H         1 UNK         0.0600 
    218 H218       -8.6979  -24.1221  -55.4770 H         1 UNK         0.0600 
    219 H219       -7.3542  -25.1596  -54.9977 H         1 UNK         0.0600 
    220 H220       -5.2973  -24.2697  -53.3020 H         1 UNK         0.3000 
    221 H221       -2.9329  -24.2418  -54.9658 H         1 UNK         0.0600 
    222 H222       -3.2753  -24.9769  -52.0102 H         1 UNK         0.0600 
    223 H223       -3.3771  -26.0930  -53.3703 H         1 UNK         0.0600 
    224 H224       -1.8568  -25.2960  -52.9949 H         1 UNK         0.0600 
    225 H225       -4.0108  -22.4660  -52.0447 H         1 UNK         0.3000 
    226 H226       -1.7801  -20.7711  -51.7174 H         1 UNK         0.0600 
    227 H227       -3.3533  -19.3903  -50.3693 H         1 UNK         0.0600 
    228 H228       -4.7198  -20.2864  -51.0162 H         1 UNK         0.0600 
    229 H229       -3.5331  -21.0994  -49.9968 H         1 UNK         0.0600 
    230 H230       -4.6671  -20.3954  -53.8026 H         1 UNK         0.3000 
    231 H231       -4.0006  -17.7839  -54.7887 H         1 UNK         0.0600 
    232 H232       -5.7397  -19.9893  -56.0132 H         1 UNK         0.0600 
    233 H233       -5.6873  -18.3135  -56.5438 H         1 UNK         0.0600 
    234 H234       -6.2914  -18.7054  -54.9409 H         1 UNK         0.0600 
    235 H235       -3.3404  -21.1008  -56.0173 H         1 UNK         0.3000 
    236 H236       -2.1763  -20.3910  -58.4565 H         1 UNK         0.0600 
    237 H237       -1.2912  -22.7212  -58.4507 H         1 UNK         0.0600 
    238 H238       -1.6873  -22.8815  -56.7458 H         1 UNK         0.0600 
    239 H239       -2.9695  -22.6702  -57.9370 H         1 UNK         0.0600 
    240 H240       -0.5654  -20.7517  -55.2663 H         1 UNK         0.3000 
    241 H241        2.0492  -20.0780  -56.4062 H         1 UNK         0.0600 
    242 H242       -0.5501  -18.0057  -55.9256 H         1 UNK         0.3800 
    243 H243        0.3910  -16.5907  -55.5351 H         1 UNK         0.3800 
    244 H244        2.9376  -20.2652  -54.1168 H         1 UNK         0.0800 
    245 H245        2.0983  -21.6874  -54.6457 H         1 UNK         0.0800 
    246 H246        2.5257  -19.8868  -51.2886 H         1 UNK         0.0800 
    247 H247        2.1387  -18.6168  -52.4289 H         1 UNK         0.0800 
@<TRIPOS>BOND
     1    1    2 1    
     2    1  127 1    
     3    1  128 1    
     4    1  129 1    
     5    2    3 2    
     6    2    4 am   BACKBONE|DICT|INTERRES
     7    4    5 1    
     8    4  130 1    
     9    5    6 1    
    10    5   65 1    
    11    5  131 1    
    12    6    7 1    
    13    6  132 1    
    14    6  133 1    
    15    7    8 1    
    16    8    9 1    
    17    8  134 1    
    18    8  135 1    
    19    9   10 ar   
    20    9   14 ar   
    21   10   11 ar   
    22   10  136 1    
    23   11   12 ar   
    24   11  126 1    
    25   12   13 ar   
    26   12  137 1    
    27   13   14 ar   
    28   13   15 1    
    29   14  138 1    
    30   15   16 1    
    31   15  139 1    
    32   15  140 1    
    33   16   17 1    
    34   17   18 1    
    35   17  141 1    
    36   17  142 1    
    37   18   19 1    
    38   18   67 1    
    39   18  143 1    
    40   19   20 am   BACKBONE|DICT|INTERRES
    41   19  144 1    
    42   20   21 2    
    43   20   22 1    
    44   22   23 1    
    45   22   24 1    
    46   22  145 1    
    47   23  146 1    
    48   23  147 1    
    49   23  148 1    
    50   24   25 am   BACKBONE|DICT|INTERRES
    51   24  149 1    
    52   25   26 2    
    53   25   27 1    
    54   27   28 1    
    55   27   29 1    
    56   27  150 1    
    57   28  151 1    
    58   28  152 1    
    59   28  153 1    
    60   29   30 am   BACKBONE|DICT|INTERRES
    61   29  154 1    
    62   30   31 2    
    63   30   32 1    
    64   32   33 1    
    65   32   34 1    
    66   32  155 1    
    67   33  156 1    
    68   33  157 1    
    69   33  158 1    
    70   34   35 am   BACKBONE|DICT|INTERRES
    71   34  159 1    
    72   35   36 2    
    73   35   37 1    
    74   37   38 1    
    75   37   39 1    
    76   37  160 1    
    77   38  161 1    
    78   38  162 1    
    79   38  163 1    
    80   39   40 am   BACKBONE|DICT|INTERRES
    81   39  164 1    
    82   40   41 2    
    83   40   42 1    
    84   42   43 1    
    85   42   44 1    
    86   42  165 1    
    87   43  166 1    
    88   43  167 1    
    89   43  168 1    
    90   44   45 am   BACKBONE|DICT|INTERRES
    91   44  169 1    
    92   45   46 2    
    93   45   47 1    
    94   47   48 1    
    95   47   49 1    
    96   47  170 1    
    97   48  171 1    
    98   48  172 1    
    99   48  173 1    
   100   49   50 am   BACKBONE|DICT|INTERRES
   101   49  174 1    
   102   50   51 2    
   103   50   52 1    
   104   52   53 1    
   105   52   54 1    
   106   52  175 1    
   107   53  176 1    
   108   53  177 1    
   109   53  178 1    
   110   54   55 am   BACKBONE|DICT|INTERRES
   111   54  179 1    
   112   55   56 2    
   113   55   57 1    
   114   57   58 1    
   115   57   59 1    
   116   57  180 1    
   117   58  181 1    
   118   58  182 1    
   119   58  183 1    
   120   59   60 am   BACKBONE|DICT|INTERRES
   121   59  184 1    
   122   60   61 2    
   123   60   62 1    
   124   62   63 1    
   125   62   64 1    
   126   62  185 1    
   127   63  186 1    
   128   63  187 1    
   129   63  188 1    
   130   64   65 am   BACKBONE|DICT|INTERRES
   131   64  189 1    
   132   65   66 2    
   133   67   68 2    
   134   67   69 am   BACKBONE|DICT|INTERRES
   135   69   70 1    
   136   69  190 1    
   137   70   71 1    
   138   70   72 1    
   139   70  191 1    
   140   71  192 1    
   141   71  193 1    
   142   71  194 1    
   143   72   73 2    
   144   72   74 am   BACKBONE|DICT|INTERRES
   145   74   75 1    
   146   74  195 1    
   147   75   76 1    
   148   75   77 1    
   149   75  196 1    
   150   76  197 1    
   151   76  198 1    
   152   76  199 1    
   153   77   78 2    
   154   77   79 am   BACKBONE|DICT|INTERRES
   155   79   80 1    
   156   79  200 1    
   157   80   81 1    
   158   80   82 1    
   159   80  201 1    
   160   81  202 1    
   161   81  203 1    
   162   81  204 1    
   163   82   83 2    
   164   82   84 am   BACKBONE|DICT|INTERRES
   165   84   85 1    
   166   84  205 1    
   167   85   86 1    
   168   85   87 1    
   169   85  206 1    
   170   86  207 1    
   171   86  208 1    
   172   86  209 1    
   173   87   88 2    
   174   87   89 am   BACKBONE|DICT|INTERRES
   175   89   90 1    
   176   89  210 1    
   177   90   91 1    
   178   90   92 1    
   179   90  211 1    
   180   91  212 1    
   181   91  213 1    
   182   91  214 1    
   183   92   93 2    
   184   92   94 am   BACKBONE|DICT|INTERRES
   185   94   95 1    
   186   94  215 1    
   187   95   96 1    
   188   95   97 1    
   189   95  216 1    
   190   96  217 1    
   191   96  218 1    
   192   96  219 1    
   193   97   98 2    
   194   97   99 am   BACKBONE|DICT|INTERRES
   195   99  100 1    
   196   99  220 1    
   197  100  101 1    
   198  100  102 1    
   199  100  221 1    
   200  101  222 1    
   201  101  223 1    
   202  101  224 1    
   203  102  103 2    
   204  102  104 am   BACKBONE|DICT|INTERRES
   205  104  105 1    
   206  104  225 1    
   207  105  106 1    
   208  105  107 1    
   209  105  226 1    
   210  106  227 1    
   211  106  228 1    
   212  106  229 1    
   213  107  108 2    
   214  107  109 am   BACKBONE|DICT|INTERRES
   215  109  110 1    
   216  109  230 1    
   217  110  111 1    
   218  110  112 1    
   219  110  231 1    
   220  111  232 1    
   221  111  233 1    
   222  111  234 1    
   223  112  113 2    
   224  112  114 am   BACKBONE|DICT|INTERRES
   225  114  115 1    
   226  114  235 1    
   227  115  116 1    
   228  115  117 1    
   229  115  236 1    
   230  116  237 1    
   231  116  238 1    
   232  116  239 1    
   233  117  118 2    
   234  117  119 am   BACKBONE|DICT|INTERRES
   235  119  120 1    
   236  119  240 1    
   237  120  121 1    
   238  120  124 1    
   239  120  241 1    
   240  121  122 am   BACKBONE|DICT|INTERRES
   241  121  123 2    
   242  122  242 1    
   243  122  243 1    
   244  124  125 1    
   245  124  244 1    
   246  124  245 1    
   247  125  126 1    
   248  126  246 1    
   249  126  247 1    
@<TRIPOS>SUBSTRUCTURE
     1 UNK         1 GROUP             0       ****    0 ROOT    
