@<TRIPOS>MOLECULE
3R540
247   249    1
SMALL
USER_CHARGES


@<TRIPOS>ATOM
      1 CA          4.6343  -12.1205  -47.0273 C.3       0 UNK        -0.1800 
      2 C           3.1187  -12.1807  -47.1443 C.2       0 UNK         0.5000 
      3 O           2.4381  -11.1968  -46.8564 O.2       0 UNK        -0.5000 
      4 N           2.5773  -13.3378  -47.5376 N.am      1 UNK        -0.5000 
      5 CA          1.1488  -13.5526  -47.7840 C.3       1 UNK         0.1400 
      6 C6          0.8090  -15.0601  -47.8770 C.3       23 UNK        -0.0398 
      7 S7          1.8615  -16.0306  -49.0082 S.3       23 UNK        -0.2404 
      8 C8          0.5952  -17.0435  -49.8276 C.3       23 UNK        -0.0205 
      9 C9          1.2119  -18.1910  -50.6049 C.ar      23 UNK        -0.0193 
     10 C10         1.1897  -18.1974  -52.0000 C.ar      23 UNK        -0.1150 
     11 C11         1.7179  -19.2780  -52.7110 C.ar      23 UNK        -0.0193 
     12 C12         2.2961  -20.3421  -52.0108 C.ar      23 UNK        -0.1150 
     13 C13         2.3561  -20.3377  -50.6131 C.ar      23 UNK        -0.0193 
     14 C14         1.7965  -19.2570  -49.9188 C.ar      23 UNK        -0.1150 
     15 C15         3.0692  -21.4972  -49.9117 C.3       23 UNK        -0.0205 
     16 S16         2.8851  -21.5655  -48.0947 S.3       23 UNK        -0.2404 
     17 C17         1.1379  -22.0589  -47.9428 C.3       23 UNK        -0.0398 
     18 CA          0.9500  -23.0970  -46.8159 C.3       11 UNK         0.1400 
     19 N           1.0276  -22.4938  -45.4847 N.am      11 UNK        -0.5000 
     20 C           1.2068  -23.1904  -44.3548 C.2       10 UNK         0.5000 
     21 O           1.4001  -24.4057  -44.3233 O.2       10 UNK        -0.5000 
     22 CA          1.1188  -22.4050  -43.0346 C.3       10 UNK         0.1400 
     23 CB          2.4550  -21.7133  -42.7253 C.3       10 UNK        -0.1800 
     24 N           0.0377  -21.4178  -43.0331 N.am      10 UNK        -0.5000 
     25 C          -1.2657  -21.7159  -43.1408 C.2       9 UNK         0.5000 
     26 O          -1.7021  -22.8655  -43.2104 O.2       9 UNK        -0.5000 
     27 CA         -2.2459  -20.5304  -43.2175 C.3       9 UNK         0.1400 
     28 CB         -2.5645  -19.9987  -41.8124 C.3       9 UNK        -0.1800 
     29 N          -1.7662  -19.4323  -44.0586 N.am      9 UNK        -0.5000 
     30 C          -1.4996  -19.5255  -45.3695 C.2       8 UNK         0.5000 
     31 O          -1.6222  -20.5573  -46.0261 O.2       8 UNK        -0.5000 
     32 CA         -0.9437  -18.2661  -46.0533 C.3       8 UNK         0.1400 
     33 CB         -2.0562  -17.2353  -46.3023 C.3       8 UNK        -0.1800 
     34 N           0.1421  -17.6679  -45.2778 N.am      8 UNK        -0.5000 
     35 C           1.3204  -18.2707  -45.0560 C.2       7 UNK         0.5000 
     36 O           1.6364  -19.3572  -45.5413 O.2       7 UNK        -0.5000 
     37 CA          2.2777  -17.5705  -44.0769 C.3       7 UNK         0.1400 
     38 CB          3.1346  -16.5150  -44.7938 C.3       7 UNK        -0.1800 
     39 N           1.5591  -16.9566  -42.9582 N.am      7 UNK        -0.5000 
     40 C           0.9696  -17.6561  -41.9762 C.2       6 UNK         0.5000 
     41 O           0.9985  -18.8837  -41.9039 O.2       6 UNK        -0.5000 
     42 CA          0.1815  -16.8605  -40.9185 C.3       6 UNK         0.1400 
     43 CB          1.1148  -16.3888  -39.7938 C.3       6 UNK        -0.1800 
     44 N          -0.5230  -15.7068  -41.4766 N.am      6 UNK        -0.5000 
     45 C          -1.5065  -15.7748  -42.3852 C.2       5 UNK         0.5000 
     46 O          -1.9659  -16.8329  -42.8129 O.2       5 UNK        -0.5000 
     47 CA         -2.0243  -14.4374  -42.9502 C.3       5 UNK         0.1400 
     48 CB         -3.2578  -13.9623  -42.1695 C.3       5 UNK        -0.1800 
     49 N          -1.0140  -13.3745  -42.9519 N.am      5 UNK        -0.5000 
     50 C           0.1355  -13.4200  -43.6361 C.2       4 UNK         0.5000 
     51 O           0.4583  -14.3656  -44.3589 O.2       4 UNK        -0.5000 
     52 CA          1.0585  -12.1974  -43.5019 C.3       4 UNK         0.1400 
     53 CB          2.5439  -12.5841  -43.6064 C.3       4 UNK        -0.1800 
     54 N           0.7168  -11.2375  -44.5471 N.am      4 UNK        -0.5000 
     55 C          -0.2906  -10.3590  -44.4624 C.2       3 UNK         0.5000 
     56 O          -0.9184  -10.1358  -43.4260 O.2       3 UNK        -0.5000 
     57 CA         -0.7137   -9.6689  -45.7732 C.3       3 UNK         0.1400 
     58 CB          0.2492   -8.5315  -46.1468 C.3       3 UNK        -0.1800 
     59 N          -0.8371  -10.6130  -46.8904 N.am      3 UNK        -0.5000 
     60 C          -1.7217  -11.6222  -46.9304 C.2       2 UNK         0.5000 
     61 O          -2.5355  -11.8465  -46.0347 O.2       2 UNK        -0.5000 
     62 CA         -1.7143  -12.5494  -48.1621 C.3       2 UNK         0.1400 
     63 CB         -3.0309  -12.4060  -48.9422 C.3       2 UNK        -0.1800 
     64 N          -0.6060  -12.3207  -49.0961 N.am      2 UNK        -0.5000 
     65 C           0.6633  -12.7499  -49.0204 C.2       1 UNK         0.5000 
     66 O           1.4570  -12.5118  -49.9319 O.2       1 UNK        -0.5000 
     67 C          -0.3606  -23.8819  -47.0006 C.2       11 UNK         0.5000 
     68 O          -0.3153  -25.0110  -47.4878 O.2       11 UNK        -0.5000 
     69 N          -1.4987  -23.3003  -46.5928 N.am      12 UNK        -0.5000 
     70 CA         -2.8457  -23.8667  -46.7362 C.3       12 UNK         0.1400 
     71 CB         -3.8887  -22.8536  -46.2455 C.3       12 UNK        -0.1800 
     72 C          -3.0484  -25.2266  -46.0425 C.2       12 UNK         0.5000 
     73 O          -3.9218  -25.9859  -46.4575 O.2       12 UNK        -0.5000 
     74 N          -2.2083  -25.5443  -45.0491 N.am      13 UNK        -0.5000 
     75 CA         -2.1261  -26.8586  -44.4102 C.3       13 UNK         0.1400 
     76 CB         -1.1307  -26.7807  -43.2431 C.3       13 UNK        -0.1800 
     77 C          -1.7401  -28.0028  -45.3759 C.2       13 UNK         0.5000 
     78 O          -2.0843  -29.1532  -45.1011 O.2       13 UNK        -0.5000 
     79 N          -1.0518  -27.6756  -46.4797 N.am      14 UNK        -0.5000 
     80 CA         -0.6605  -28.6106  -47.5355 C.3       14 UNK         0.1400 
     81 CB          0.8732  -28.6451  -47.6289 C.3       14 UNK        -0.1800 
     82 C          -1.2711  -28.2246  -48.8947 C.2       14 UNK         0.5000 
     83 O          -1.7161  -29.1059  -49.6304 O.2       14 UNK        -0.5000 
     84 N          -1.2789  -26.9230  -49.2128 N.am      15 UNK        -0.5000 
     85 CA         -1.7068  -26.3717  -50.5010 C.3       15 UNK         0.1400 
     86 CB         -1.0003  -25.0220  -50.7149 C.3       15 UNK        -0.1800 
     87 C          -3.2309  -26.1943  -50.6328 C.2       15 UNK         0.5000 
     88 O          -3.6979  -25.8897  -51.7316 O.2       15 UNK        -0.5000 
     89 N          -3.9716  -26.3457  -49.5247 N.am      16 UNK        -0.5000 
     90 CA         -5.4200  -26.1710  -49.3558 C.3       16 UNK         0.1400 
     91 CB         -6.2218  -27.1412  -50.2465 C.3       16 UNK        -0.1800 
     92 C          -5.8874  -24.7133  -49.5298 C.2       16 UNK         0.5000 
     93 O          -6.4280  -24.1306  -48.5899 O.2       16 UNK        -0.5000 
     94 N          -5.6771  -24.1572  -50.7265 N.am      17 UNK        -0.5000 
     95 CA         -6.0696  -22.8033  -51.1053 C.3       17 UNK         0.1400 
     96 CB         -6.3818  -22.7856  -52.6085 C.3       17 UNK        -0.1800 
     97 C          -4.9851  -21.7693  -50.7637 C.2       17 UNK         0.5000 
     98 O          -5.3154  -20.6994  -50.2500 O.2       17 UNK        -0.5000 
     99 N          -3.7190  -22.0989  -51.0717 N.am      18 UNK        -0.5000 
    100 CA        -2.5284  -21.2490  -50.9323 C.3       18 UNK         0.1400 
    101 CB        -2.1088  -21.1519  -49.4500 C.3       18 UNK        -0.1800 
    102 C         -2.7251  -19.8772  -51.6121 C.2       18 UNK         0.5000 
    103 O         -2.8373  -19.8243  -52.8378 O.2       18 UNK        -0.5000 
    104 N         -2.8368  -18.8088  -50.8095 N.am      19 UNK        -0.5000 
    105 CA        -3.1055  -17.4339  -51.2358 C.3       19 UNK         0.1400 
    106 CB        -3.1824  -16.5291  -49.9955 C.3       19 UNK        -0.1800 
    107 C         -4.3827  -17.2716  -52.0836 C.2       19 UNK         0.5000 
    108 O         -4.4089  -16.4143  -52.9660 O.2       19 UNK        -0.5000 
    109 N         -5.4019  -18.1080  -51.8362 N.am      20 UNK        -0.5000 
    110 CA        -6.6573  -18.1074  -52.5911 C.3       20 UNK         0.1400 
    111 CB        -7.7228  -18.8995  -51.8182 C.3       20 UNK        -0.1800 
    112 C         -6.5087  -18.6403  -54.0311 C.2       20 UNK         0.5000 
    113 O         -7.3294  -18.2929  -54.8812 O.2       20 UNK        -0.5000 
    114 N         -5.4738  -19.4535  -54.2862 N.am      21 UNK        -0.5000 
    115 CA        -5.1116  -19.9279  -55.6215 C.3       21 UNK         0.1400 
    116 CB        -4.6162  -21.3804  -55.5418 C.3       21 UNK        -0.1800 
    117 C         -4.0426  -19.0234  -56.2535 C.2       21 UNK         0.5000 
    118 O         -4.1598  -18.6771  -57.4298 O.2       21 UNK        -0.5000 
    119 N         -3.0214  -18.6643  -55.4660 N.am      22 UNK        -0.5000 
    120 CA        -1.8892  -17.8299  -55.8944 C.3       22 UNK         0.1400 
    121 C         -2.2417  -16.3369  -56.1535 C.2       22 UNK         0.5000 
    122 N         -3.2490  -15.7630  -55.5082 N.am      22 UNK        -0.7600 
    123 O         -1.5883  -15.6867  -56.9647 O.2       22 UNK        -0.5000 
    124 C124       -0.7022  -17.9463  -54.9092 C.3       23 UNK        -0.0398 
    125 S125        0.0242  -19.6221  -54.8884 S.3       23 UNK        -0.2404 
    126 C126        1.6911  -19.2871  -54.2333 C.3       23 UNK        -0.0205 
    127 H127        5.0308  -11.3530  -47.6917 H         1 UNK         0.0600 
    128 H128        4.9206  -11.8710  -46.0056 H         1 UNK         0.0600 
    129 H129        5.0985  -13.0717  -47.2885 H         1 UNK         0.0600 
    130 H130        3.1759  -14.1091  -47.7969 H         1 UNK         0.3000 
    131 H131        0.6324  -13.1659  -46.9058 H         1 UNK         0.0600 
    132 H132        0.9014  -15.5052  -46.8874 H         1 UNK         0.0800 
    133 H133       -0.2327  -15.1992  -48.1593 H         1 UNK         0.0800 
    134 H134       -0.0809  -17.4583  -49.0802 H         1 UNK         0.0800 
    135 H135       -0.0052  -16.4084  -50.4806 H         1 UNK         0.0800 
    136 H136        0.7593  -17.3616  -52.5307 H         1 UNK         0.1150 
    137 H137        2.7220  -21.1716  -52.5581 H         1 UNK         0.1150 
    138 H138        1.8255  -19.2156  -48.8398 H         1 UNK         0.1150 
    139 H139        2.7357  -22.4448  -50.3378 H         1 UNK         0.0800 
    140 H140        4.1339  -21.4208  -50.1358 H         1 UNK         0.0800 
    141 H141        0.8078  -22.4616  -48.9025 H         1 UNK         0.0800 
    142 H142        0.5333  -21.1697  -47.7579 H         1 UNK         0.0800 
    143 H143        1.7560  -23.8302  -46.8979 H         1 UNK         0.0600 
    144 H144        0.9141  -21.4883  -45.4317 H         1 UNK         0.3000 
    145 H145        0.9147  -23.1219  -42.2365 H         1 UNK         0.0600 
    146 H146        2.4361  -21.2418  -41.7428 H         1 UNK         0.0600 
    147 H147        3.2764  -22.4309  -42.7248 H         1 UNK         0.0600 
    148 H148        2.6901  -20.9444  -43.4618 H         1 UNK         0.0600 
    149 H149        0.3109  -20.4472  -42.9135 H         1 UNK         0.3000 
    150 H150       -3.1755  -20.8959  -43.6568 H         1 UNK         0.0600 
    151 H151       -2.9597  -20.7908  -41.1751 H         1 UNK         0.0600 
    152 H152       -3.3132  -19.2072  -41.8504 H         1 UNK         0.0600 
    153 H153       -1.6769  -19.5961  -41.3243 H         1 UNK         0.0600 
    154 H154       -1.6711  -18.5266  -43.6063 H         1 UNK         0.3000 
    155 H155       -0.5363  -18.5676  -47.0202 H         1 UNK         0.0600 
    156 H156       -2.5394  -16.9236  -45.3769 H         1 UNK         0.0600 
    157 H157       -2.8308  -17.6522  -46.9470 H         1 UNK         0.0600 
    158 H158       -1.6741  -16.3415  -46.7906 H         1 UNK         0.0600 
    159 H159       -0.0439  -16.7870  -44.8184 H         1 UNK         0.3000 
    160 H160        2.9515  -18.3302  -43.6746 H         1 UNK         0.0600 
    161 H161        3.8664  -16.0761  -44.1157 H         1 UNK         0.0600 
    162 H162        2.5322  -15.7047  -45.2011 H         1 UNK         0.0600 
    163 H163        3.6853  -16.9597  -45.6237 H         1 UNK         0.0600 
    164 H164        1.4367  -15.9539  -42.9929 H         1 UNK         0.3000 
    165 H165       -0.5637  -17.5307  -40.4855 H         1 UNK         0.0600 
    166 H166        1.6403  -17.2323  -39.3439 H         1 UNK         0.0600 
    167 H167        1.8681  -15.6903  -40.1604 H         1 UNK         0.0600 
    168 H168        0.5562  -15.8945  -38.9988 H         1 UNK         0.0600 
    169 H169       -0.2124  -14.7946  -41.1773 H         1 UNK         0.3000 
    170 H170       -2.3218  -14.6135  -43.9862 H         1 UNK         0.0600 
    171 H171       -4.0383  -14.7245  -42.1709 H         1 UNK         0.0600 
    172 H172       -3.0159  -13.7407  -41.1294 H         1 UNK         0.0600 
    173 H173       -3.6830  -13.0629  -42.6156 H         1 UNK         0.0600 
    174 H174       -1.2342  -12.5381  -42.4286 H         1 UNK         0.3000 
    175 H175        0.9057  -11.7428  -42.5208 H         1 UNK         0.0600 
    176 H176        2.7627  -13.1406  -44.5165 H         1 UNK         0.0600 
    177 H177        3.1847  -11.7023  -43.5899 H         1 UNK         0.0600 
    178 H178        2.8367  -13.2159  -42.7672 H         1 UNK         0.0600 
    179 H179        1.2135  -11.3246  -45.4301 H         1 UNK         0.3000 
    180 H180       -1.6987   -9.2276  -45.6063 H         1 UNK         0.0600 
    181 H181        1.2545   -8.8981  -46.3531 H         1 UNK         0.0600 
    182 H182        0.3265   -7.8063  -45.3358 H         1 UNK         0.0600 
    183 H183       -0.0991   -7.9947  -47.0293 H         1 UNK         0.0600 
    184 H184       -0.1928  -10.4946  -47.6592 H         1 UNK         0.3000 
    185 H185       -1.6730  -13.5709  -47.7864 H         1 UNK         0.0600 
    186 H186       -3.8905  -12.6346  -48.3105 H         1 UNK         0.0600 
    187 H187       -3.1644  -11.3927  -49.3232 H         1 UNK         0.0600 
    188 H188       -3.0651  -13.0893  -49.7906 H         1 UNK         0.0600 
    189 H189       -0.8574  -11.7861  -49.9147 H         1 UNK         0.3000 
    190 H190       -1.4582  -22.3498  -46.2283 H         1 UNK         0.3000 
    191 H191       -3.0143  -24.0279  -47.8027 H         1 UNK         0.0600 
    192 H192       -3.7486  -22.6167  -45.1915 H         1 UNK         0.0600 
    193 H193       -4.9002  -23.2446  -46.3625 H         1 UNK         0.0600 
    194 H194       -3.8369  -21.9245  -46.8125 H         1 UNK         0.0600 
    195 H195       -1.5443  -24.8449  -44.7439 H         1 UNK         0.3000 
    196 H196       -3.1128  -27.0906  -44.0046 H         1 UNK         0.0600 
    197 H197       -0.1208  -26.5634  -43.5924 H         1 UNK         0.0600 
    198 H198       -1.0932  -27.7245  -42.6977 H         1 UNK         0.0600 
    199 H199       -1.4141  -26.0042  -42.5321 H         1 UNK         0.0600 
    200 H200       -0.8106  -26.7013  -46.6293 H         1 UNK         0.3000 
    201 H201       -1.0062  -29.6200  -47.3035 H         1 UNK         0.0600 
    202 H202        1.2863  -27.6597  -47.8493 H         1 UNK         0.0600 
    203 H203        1.2030  -29.3251  -48.4153 H         1 UNK         0.0600 
    204 H204        1.3149  -28.9904  -46.6940 H         1 UNK         0.0600 
    205 H205       -0.8779  -26.2522  -48.5591 H         1 UNK         0.3000 
    206 H206       -1.3884  -27.0499  -51.2954 H         1 UNK         0.0600 
    207 H207       -1.2176  -24.6163  -51.7038 H         1 UNK         0.0600 
    208 H208       -1.3191  -24.2825  -49.9808 H         1 UNK         0.0600 
    209 H209        0.0823  -25.1248  -50.6384 H         1 UNK         0.0600 
    210 H210       -3.4804  -26.5693  -48.6693 H         1 UNK         0.3000 
    211 H211       -5.6383  -26.4467  -48.3238 H         1 UNK         0.0600 
    212 H212       -6.0826  -26.9435  -51.3094 H         1 UNK         0.0600 
    213 H213       -7.2897  -27.0615  -50.0404 H         1 UNK         0.0600 
    214 H214       -5.9316  -28.1750  -50.0590 H         1 UNK         0.0600 
    215 H215       -5.1691  -24.7103  -51.4110 H         1 UNK         0.3000 
    216 H216       -6.9791  -22.5231  -50.5693 H         1 UNK         0.0600 
    217 H217       -6.6304  -21.7823  -52.9537 H         1 UNK         0.0600 
    218 H218       -7.2324  -23.4271  -52.8391 H         1 UNK         0.0600 
    219 H219       -5.5328  -23.1369  -53.1952 H         1 UNK         0.0600 
    220 H220       -3.5654  -22.9901  -51.5202 H         1 UNK         0.3000 
    221 H221       -1.7204  -21.7426  -51.4745 H         1 UNK         0.0600 
    222 H222       -2.8953  -20.7366  -48.8191 H         1 UNK         0.0600 
    223 H223       -1.8654  -22.1368  -49.0593 H         1 UNK         0.0600 
    224 H224       -1.2197  -20.5315  -49.3306 H         1 UNK         0.0600 
    225 H225       -2.7951  -18.9675  -49.8141 H         1 UNK         0.3000 
    226 H226       -2.2613  -17.1101  -51.8471 H         1 UNK         0.0600 
    227 H227       -3.3429  -15.4894  -50.2825 H         1 UNK         0.0600 
    228 H228       -4.0045  -16.8175  -49.3391 H         1 UNK         0.0600 
    229 H229       -2.2642  -16.5638  -49.4125 H         1 UNK         0.0600 
    230 H230       -5.2984  -18.8204  -51.1203 H         1 UNK         0.3000 
    231 H231       -7.0029  -17.0740  -52.6652 H         1 UNK         0.0600 
    232 H232       -7.8712  -18.4894  -50.8191 H         1 UNK         0.0600 
    233 H233       -7.4519  -19.9486  -51.7113 H         1 UNK         0.0600 
    234 H234       -8.6847  -18.8616  -52.3309 H         1 UNK         0.0600 
    235 H235       -4.8097  -19.6449  -53.5459 H         1 UNK         0.3000 
    236 H236       -5.9849  -19.9150  -56.2773 H         1 UNK         0.0600 
    237 H237       -4.2277  -21.7154  -56.5045 H         1 UNK         0.0600 
    238 H238       -3.8203  -21.5020  -54.8061 H         1 UNK         0.0600 
    239 H239       -5.4306  -22.0528  -55.2769 H         1 UNK         0.0600 
    240 H240       -2.9689  -19.0371  -54.5217 H         1 UNK         0.3000 
    241 H241       -1.5509  -18.2223  -56.8558 H         1 UNK         0.0600 
    242 H242       -3.4637  -14.7977  -55.6993 H         1 UNK         0.3800 
    243 H243       -3.7486  -16.2399  -54.7640 H         1 UNK         0.3800 
    244 H244        0.0833  -17.2363  -55.1741 H         1 UNK         0.0800 
    245 H245       -1.0297  -17.6895  -53.9017 H         1 UNK         0.0800 
    246 H246        2.3665  -20.0545  -54.6143 H         1 UNK         0.0800 
    247 H247        2.0710  -18.3399  -54.6182 H         1 UNK         0.0800 
@<TRIPOS>BOND
     1    1    2 1    
     2    1  127 1    
     3    1  128 1    
     4    1  129 1    
     5    2    3 2    
     6    2    4 am   BACKBONE|DICT|INTERRES
     7    4    5 1    
     8    4  130 1    
     9    5    6 1    
    10    5   65 1    
    11    5  131 1    
    12    6    7 1    
    13    6  132 1    
    14    6  133 1    
    15    7    8 1    
    16    8    9 1    
    17    8  134 1    
    18    8  135 1    
    19    9   10 ar   
    20    9   14 ar   
    21   10   11 ar   
    22   10  136 1    
    23   11   12 ar   
    24   11  126 1    
    25   12   13 ar   
    26   12  137 1    
    27   13   14 ar   
    28   13   15 1    
    29   14  138 1    
    30   15   16 1    
    31   15  139 1    
    32   15  140 1    
    33   16   17 1    
    34   17   18 1    
    35   17  141 1    
    36   17  142 1    
    37   18   19 1    
    38   18   67 1    
    39   18  143 1    
    40   19   20 am   BACKBONE|DICT|INTERRES
    41   19  144 1    
    42   20   21 2    
    43   20   22 1    
    44   22   23 1    
    45   22   24 1    
    46   22  145 1    
    47   23  146 1    
    48   23  147 1    
    49   23  148 1    
    50   24   25 am   BACKBONE|DICT|INTERRES
    51   24  149 1    
    52   25   26 2    
    53   25   27 1    
    54   27   28 1    
    55   27   29 1    
    56   27  150 1    
    57   28  151 1    
    58   28  152 1    
    59   28  153 1    
    60   29   30 am   BACKBONE|DICT|INTERRES
    61   29  154 1    
    62   30   31 2    
    63   30   32 1    
    64   32   33 1    
    65   32   34 1    
    66   32  155 1    
    67   33  156 1    
    68   33  157 1    
    69   33  158 1    
    70   34   35 am   BACKBONE|DICT|INTERRES
    71   34  159 1    
    72   35   36 2    
    73   35   37 1    
    74   37   38 1    
    75   37   39 1    
    76   37  160 1    
    77   38  161 1    
    78   38  162 1    
    79   38  163 1    
    80   39   40 am   BACKBONE|DICT|INTERRES
    81   39  164 1    
    82   40   41 2    
    83   40   42 1    
    84   42   43 1    
    85   42   44 1    
    86   42  165 1    
    87   43  166 1    
    88   43  167 1    
    89   43  168 1    
    90   44   45 am   BACKBONE|DICT|INTERRES
    91   44  169 1    
    92   45   46 2    
    93   45   47 1    
    94   47   48 1    
    95   47   49 1    
    96   47  170 1    
    97   48  171 1    
    98   48  172 1    
    99   48  173 1    
   100   49   50 am   BACKBONE|DICT|INTERRES
   101   49  174 1    
   102   50   51 2    
   103   50   52 1    
   104   52   53 1    
   105   52   54 1    
   106   52  175 1    
   107   53  176 1    
   108   53  177 1    
   109   53  178 1    
   110   54   55 am   BACKBONE|DICT|INTERRES
   111   54  179 1    
   112   55   56 2    
   113   55   57 1    
   114   57   58 1    
   115   57   59 1    
   116   57  180 1    
   117   58  181 1    
   118   58  182 1    
   119   58  183 1    
   120   59   60 am   BACKBONE|DICT|INTERRES
   121   59  184 1    
   122   60   61 2    
   123   60   62 1    
   124   62   63 1    
   125   62   64 1    
   126   62  185 1    
   127   63  186 1    
   128   63  187 1    
   129   63  188 1    
   130   64   65 am   BACKBONE|DICT|INTERRES
   131   64  189 1    
   132   65   66 2    
   133   67   68 2    
   134   67   69 am   BACKBONE|DICT|INTERRES
   135   69   70 1    
   136   69  190 1    
   137   70   71 1    
   138   70   72 1    
   139   70  191 1    
   140   71  192 1    
   141   71  193 1    
   142   71  194 1    
   143   72   73 2    
   144   72   74 am   BACKBONE|DICT|INTERRES
   145   74   75 1    
   146   74  195 1    
   147   75   76 1    
   148   75   77 1    
   149   75  196 1    
   150   76  197 1    
   151   76  198 1    
   152   76  199 1    
   153   77   78 2    
   154   77   79 am   BACKBONE|DICT|INTERRES
   155   79   80 1    
   156   79  200 1    
   157   80   81 1    
   158   80   82 1    
   159   80  201 1    
   160   81  202 1    
   161   81  203 1    
   162   81  204 1    
   163   82   83 2    
   164   82   84 am   BACKBONE|DICT|INTERRES
   165   84   85 1    
   166   84  205 1    
   167   85   86 1    
   168   85   87 1    
   169   85  206 1    
   170   86  207 1    
   171   86  208 1    
   172   86  209 1    
   173   87   88 2    
   174   87   89 am   BACKBONE|DICT|INTERRES
   175   89   90 1    
   176   89  210 1    
   177   90   91 1    
   178   90   92 1    
   179   90  211 1    
   180   91  212 1    
   181   91  213 1    
   182   91  214 1    
   183   92   93 2    
   184   92   94 am   BACKBONE|DICT|INTERRES
   185   94   95 1    
   186   94  215 1    
   187   95   96 1    
   188   95   97 1    
   189   95  216 1    
   190   96  217 1    
   191   96  218 1    
   192   96  219 1    
   193   97   98 2    
   194   97   99 am   BACKBONE|DICT|INTERRES
   195   99  100 1    
   196   99  220 1    
   197  100  101 1    
   198  100  102 1    
   199  100  221 1    
   200  101  222 1    
   201  101  223 1    
   202  101  224 1    
   203  102  103 2    
   204  102  104 am   BACKBONE|DICT|INTERRES
   205  104  105 1    
   206  104  225 1    
   207  105  106 1    
   208  105  107 1    
   209  105  226 1    
   210  106  227 1    
   211  106  228 1    
   212  106  229 1    
   213  107  108 2    
   214  107  109 am   BACKBONE|DICT|INTERRES
   215  109  110 1    
   216  109  230 1    
   217  110  111 1    
   218  110  112 1    
   219  110  231 1    
   220  111  232 1    
   221  111  233 1    
   222  111  234 1    
   223  112  113 2    
   224  112  114 am   BACKBONE|DICT|INTERRES
   225  114  115 1    
   226  114  235 1    
   227  115  116 1    
   228  115  117 1    
   229  115  236 1    
   230  116  237 1    
   231  116  238 1    
   232  116  239 1    
   233  117  118 2    
   234  117  119 am   BACKBONE|DICT|INTERRES
   235  119  120 1    
   236  119  240 1    
   237  120  121 1    
   238  120  124 1    
   239  120  241 1    
   240  121  122 am   BACKBONE|DICT|INTERRES
   241  121  123 2    
   242  122  242 1    
   243  122  243 1    
   244  124  125 1    
   245  124  244 1    
   246  124  245 1    
   247  125  126 1    
   248  126  246 1    
   249  126  247 1    
@<TRIPOS>SUBSTRUCTURE
     1 UNK         1 GROUP             0       ****    0 ROOT    
