@<TRIPOS>MOLECULE
3R540
247   249    1
SMALL
USER_CHARGES


@<TRIPOS>ATOM
      1 CA          9.3186  -14.8500  -46.3859 C.3       0 UNK        -0.1800 
      2 C           7.9914  -14.1051  -46.3575 C.2       0 UNK         0.5000 
      3 O           7.9635  -12.9011  -46.6122 O.2       0 UNK        -0.5000 
      4 N           6.9005  -14.8196  -46.0455 N.am      1 UNK        -0.5000 
      5 CA          5.5191  -14.3209  -45.9647 C.3       1 UNK         0.1400 
      6 C6          4.9330  -13.8574  -47.3265 C.3       23 UNK        -0.0398 
      7 S7          4.9392  -15.1667  -48.5967 S.3       23 UNK        -0.2404 
      8 C8          3.3146  -15.9316  -48.3107 C.3       23 UNK        -0.0205 
      9 C9          2.8415  -16.6947  -49.5358 C.ar      23 UNK        -0.0193 
     10 C10         2.1036  -16.0335  -50.5204 C.ar      23 UNK        -0.1150 
     11 C11         1.6227  -16.7160  -51.6398 C.ar      23 UNK        -0.0193 
     12 C12         1.9005  -18.0847  -51.7604 C.ar      23 UNK        -0.1150 
     13 C13         2.6189  -18.7718  -50.7763 C.ar      23 UNK        -0.0193 
     14 C14         3.1074  -18.0596  -49.6736 C.ar      23 UNK        -0.1150 
     15 C15         2.8460  -20.2771  -50.9523 C.3       23 UNK        -0.0205 
     16 S16         2.9838  -21.2561  -49.4114 S.3       23 UNK        -0.2404 
     17 C17         1.5402  -20.6887  -48.4562 C.3       23 UNK        -0.0398 
     18 CA          0.7905  -21.8104  -47.6951 C.3       11 UNK         0.1400 
     19 N           0.1651  -21.2798  -46.4820 N.am      11 UNK        -0.5000 
     20 C          -0.4650  -21.9972  -45.5434 C.2       10 UNK         0.5000 
     21 O          -0.5271  -23.2268  -45.5458 O.2       10 UNK        -0.5000 
     22 CA         -1.2065  -21.1915  -44.4597 C.3       10 UNK         0.1400 
     23 CB         -0.2423  -20.7418  -43.3524 C.3       10 UNK        -0.1800 
     24 N          -1.9057  -20.0274  -45.0156 N.am      10 UNK        -0.5000 
     25 C          -2.9360  -20.1126  -45.8699 C.2       9 UNK         0.5000 
     26 O          -3.4339  -21.1810  -46.2192 O.2       9 UNK        -0.5000 
     27 CA         -3.4798  -18.8038  -46.4698 C.3       9 UNK         0.1400 
     28 CB         -4.4574  -18.1267  -45.4991 C.3       9 UNK        -0.1800 
     29 N          -2.4206  -17.8659  -46.8376 N.am      9 UNK        -0.5000 
     30 C          -1.5434  -18.0462  -47.8352 C.2       8 UNK         0.5000 
     31 O          -1.5667  -19.0015  -48.6146 O.2       8 UNK        -0.5000 
     32 CA         -0.4226  -16.9990  -47.9608 C.3       8 UNK         0.1400 
     33 CB         -0.9068  -15.7723  -48.7476 C.3       8 UNK        -0.1800 
     34 N           0.1096  -16.5700  -46.6650 N.am      8 UNK        -0.5000 
     35 C           0.6997  -17.3824  -45.7762 C.2       7 UNK         0.5000 
     36 O           0.8938  -18.5800  -45.9680 O.2       7 UNK        -0.5000 
     37 CA          1.0814  -16.7705  -44.4200 C.3       7 UNK         0.1400 
     38 CB          2.4135  -16.0107  -44.5124 C.3       7 UNK        -0.1800 
     39 N           0.0187  -15.9025  -43.9124 N.am      7 UNK        -0.5000 
     40 C          -1.1637  -16.3600  -43.4716 C.2       6 UNK         0.5000 
     41 O          -1.4371  -17.5563  -43.3754 O.2       6 UNK        -0.5000 
     42 CA         -2.2421  -15.3135  -43.1402 C.3       6 UNK         0.1400 
     43 CB         -2.1684  -14.8848  -41.6690 C.3       6 UNK        -0.1800 
     44 N          -2.1542  -14.1386  -44.0082 N.am      6 UNK        -0.5000 
     45 C          -2.5114  -14.1509  -45.3007 C.2       5 UNK         0.5000 
     46 O          -2.9776  -15.1402  -45.8648 O.2       5 UNK        -0.5000 
     47 CA         -2.2698  -12.8663  -46.1146 C.3       5 UNK         0.1400 
     48 CB         -3.4961  -11.9450  -46.0418 C.3       5 UNK        -0.1800 
     49 N          -1.0816  -12.1215  -45.6965 N.am      5 UNK        -0.5000 
     50 C           0.1742  -12.5866  -45.7346 C.2       4 UNK         0.5000 
     51 O           0.4674  -13.7157  -46.1309 O.2       4 UNK        -0.5000 
     52 CA          1.2914  -11.6539  -45.2241 C.3       4 UNK         0.1400 
     53 CB          0.8438  -10.1903  -45.0126 C.3       4 UNK        -0.1800 
     54 N           1.9327  -12.1615  -44.0073 N.am      4 UNK        -0.5000 
     55 C           1.3441  -12.4817  -42.8431 C.2       3 UNK         0.5000 
     56 O           0.1241  -12.4578  -42.6735 O.2       3 UNK        -0.5000 
     57 CA          2.2574  -12.9018  -41.6693 C.3       3 UNK         0.1400 
     58 CB          1.7469  -14.1732  -40.9697 C.3       3 UNK        -0.1800 
     59 N           3.6492  -13.1097  -42.0801 N.am      3 UNK        -0.5000 
     60 C           4.6236  -12.1958  -41.9752 C.2       2 UNK         0.5000 
     61 O           4.4669  -11.0796  -41.4795 O.2       2 UNK        -0.5000 
     62 CA          6.0039  -12.5827  -42.5454 C.3       2 UNK         0.1400 
     63 CB          6.8856  -13.1952  -41.4465 C.3       2 UNK        -0.1800 
     64 N           5.9588  -13.5020  -43.6891 N.am      2 UNK        -0.5000 
     65 C           5.3503  -13.2537  -44.8587 C.2       1 UNK         0.5000 
     66 O           4.6804  -12.2413  -45.0684 O.2       1 UNK        -0.5000 
     67 C          -0.2413  -22.5265  -48.5931 C.2       11 UNK         0.5000 
     68 O           0.0369  -23.6096  -49.1066 O.2       11 UNK        -0.5000 
     69 N          -1.4360  -21.9308  -48.7252 N.am      12 UNK        -0.5000 
     70 CA         -2.5625  -22.4864  -49.4724 C.3       12 UNK         0.1400 
     71 CB         -3.6447  -21.4176  -49.6561 C.3       12 UNK        -0.1800 
     72 C          -3.1469  -23.7389  -48.8061 C.2       12 UNK         0.5000 
     73 O          -3.4609  -24.6966  -49.5076 O.2       12 UNK        -0.5000 
     74 N          -3.2549  -23.7335  -47.4717 N.am      13 UNK        -0.5000 
     75 CA         -3.6813  -24.8823  -46.6724 C.3       13 UNK         0.1400 
     76 CB         -3.8746  -24.4573  -45.2098 C.3       13 UNK        -0.1800 
     77 C          -2.7120  -26.0719  -46.7879 C.2       13 UNK         0.5000 
     78 O          -3.1664  -27.2064  -46.9356 O.2       13 UNK        -0.5000 
     79 N          -1.4015  -25.7883  -46.7842 N.am      14 UNK        -0.5000 
     80 CA         -0.3397  -26.7689  -47.0230 C.3       14 UNK         0.1400 
     81 CB          1.0234  -26.1323  -46.7122 C.3       14 UNK        -0.1800 
     82 C          -0.3656  -27.3454  -48.4536 C.2       14 UNK         0.5000 
     83 O          -0.1223  -28.5391  -48.6323 O.2       14 UNK        -0.5000 
     84 N          -0.6901  -26.4977  -49.4393 N.am      15 UNK        -0.5000 
     85 CA         -0.8533  -26.8647  -50.8487 C.3       15 UNK         0.1400 
     86 CB         -0.7099  -25.5961  -51.7054 C.3       15 UNK        -0.1800 
     87 C          -2.1906  -27.5712  -51.1616 C.2       15 UNK         0.5000 
     88 O          -2.3429  -28.0901  -52.2682 O.2       15 UNK        -0.5000 
     89 N          -3.1319  -27.5611  -50.2053 N.am      16 UNK        -0.5000 
     90 CA         -4.5188  -28.0310  -50.3037 C.3       16 UNK         0.1400 
     91 CB         -4.5779  -29.5562  -50.5292 C.3       16 UNK        -0.1800 
     92 C          -5.3445  -27.2238  -51.3312 C.2       16 UNK         0.5000 
     93 O          -6.1384  -27.7926  -52.0828 O.2       16 UNK        -0.5000 
     94 N          -5.1343  -25.9026  -51.3354 N.am      17 UNK        -0.5000 
     95 CA         -5.7460  -24.9230  -52.2322 C.3       17 UNK         0.1400 
     96 CB         -4.6989  -24.4863  -53.2727 C.3       17 UNK        -0.1800 
     97 C          -6.3045  -23.7262  -51.4370 C.2       17 UNK         0.5000 
     98 O          -6.3554  -22.6104  -51.9579 O.2       17 UNK        -0.5000 
     99 N          -6.7113  -23.9660  -50.1808 N.am      18 UNK        -0.5000 
    100 CA        -7.1639  -22.9603  -49.2101 C.3       18 UNK         0.1400 
    101 CB        -7.5258  -23.6614  -47.8928 C.3       18 UNK        -0.1800 
    102 C         -8.3338  -22.0742  -49.6821 C.2       18 UNK         0.5000 
    103 O         -8.4103  -20.9123  -49.2831 O.2       18 UNK        -0.5000 
    104 N         -9.2057  -22.6275  -50.5356 N.am      19 UNK        -0.5000 
    105 CA       -10.3281  -21.9181  -51.1513 C.3       19 UNK         0.1400 
    106 CB       -11.3019  -22.9479  -51.7446 C.3       19 UNK        -0.1800 
    107 C         -9.8944  -20.9047  -52.2301 C.2       19 UNK         0.5000 
    108 O        -10.6063  -19.9243  -52.4521 O.2       19 UNK        -0.5000 
    109 N         -8.7523  -21.1563  -52.8847 N.am      20 UNK        -0.5000 
    110 CA        -8.1831  -20.2905  -53.9182 C.3       20 UNK         0.1400 
    111 CB        -7.4395  -21.1567  -54.9475 C.3       20 UNK        -0.1800 
    112 C         -7.2390  -19.2296  -53.3257 C.2       20 UNK         0.5000 
    113 O         -7.1727  -18.1231  -53.8631 O.2       20 UNK        -0.5000 
    114 N         -6.5417  -19.5915  -52.2368 N.am      21 UNK        -0.5000 
    115 CA        -5.4882  -18.8386  -51.5433 C.3       21 UNK         0.1400 
    116 CB        -5.9856  -17.4535  -51.0782 C.3       21 UNK        -0.1800 
    117 C         -4.1784  -18.7493  -52.3599 C.2       21 UNK         0.5000 
    118 O         -4.1338  -19.1752  -53.5161 O.2       21 UNK        -0.5000 
    119 N         -3.1224  -18.2182  -51.7246 N.am      22 UNK        -0.5000 
    120 CA        -1.7446  -18.1532  -52.2445 C.3       22 UNK         0.1400 
    121 C         -1.1447  -19.5737  -52.4477 C.2       22 UNK         0.5000 
    122 N         -0.8512  -20.2659  -51.3571 N.am      22 UNK        -0.7600 
    123 O         -0.9468  -20.0523  -53.5612 O.2       22 UNK        -0.5000 
    124 C124       -1.6104  -17.1994  -53.4661 C.3       23 UNK        -0.0398 
    125 S125        0.0948  -16.8823  -54.0499 S.3       23 UNK        -0.2404 
    126 C126        0.8346  -15.9180  -52.6845 C.3       23 UNK        -0.0205 
    127 H127       10.0097  -14.4127  -45.6653 H         1 UNK         0.0600 
    128 H128        9.7671  -14.7787  -47.3768 H         1 UNK         0.0600 
    129 H129        9.1973  -15.9060  -46.1433 H         1 UNK         0.0600 
    130 H130        7.0095  -15.8068  -45.8596 H         1 UNK         0.3000 
    131 H131        4.9236  -15.1711  -45.6343 H         1 UNK         0.0600 
    132 H132        5.4979  -13.0087  -47.7146 H         1 UNK         0.0800 
    133 H133        3.9097  -13.4977  -47.2064 H         1 UNK         0.0800 
    134 H134        3.3768  -16.5996  -47.4507 H         1 UNK         0.0800 
    135 H135        2.5749  -15.1710  -48.0546 H         1 UNK         0.0800 
    136 H136        1.9020  -14.9768  -50.4122 H         1 UNK         0.1150 
    137 H137        1.5572  -18.6363  -52.6223 H         1 UNK         0.1150 
    138 H138        3.6815  -18.5658  -48.9111 H         1 UNK         0.1150 
    139 H139        2.0342  -20.7043  -51.5428 H         1 UNK         0.0800 
    140 H140        3.7559  -20.4217  -51.5357 H         1 UNK         0.0800 
    141 H141        0.8628  -20.1125  -49.0865 H         1 UNK         0.0800 
    142 H142        1.9514  -19.9740  -47.7454 H         1 UNK         0.0800 
    143 H143        1.5168  -22.5570  -47.3671 H         1 UNK         0.0600 
    144 H144        0.2209  -20.2719  -46.3542 H         1 UNK         0.3000 
    145 H145       -1.9536  -21.8488  -44.0103 H         1 UNK         0.0600 
    146 H146       -0.7745  -20.2257  -42.5532 H         1 UNK         0.0600 
    147 H147        0.2649  -21.5979  -42.9061 H         1 UNK         0.0600 
    148 H148        0.5248  -20.0672  -43.7322 H         1 UNK         0.0600 
    149 H149       -1.5777  -19.1134  -44.7229 H         1 UNK         0.3000 
    150 H150       -4.0299  -19.0586  -47.3780 H         1 UNK         0.0600 
    151 H151       -5.2731  -18.8002  -45.2332 H         1 UNK         0.0600 
    152 H152       -4.9025  -17.2371  -45.9453 H         1 UNK         0.0600 
    153 H153       -3.9641  -17.8262  -44.5746 H         1 UNK         0.0600 
    154 H154       -2.3724  -17.0060  -46.3009 H         1 UNK         0.3000 
    155 H155        0.3919  -17.4661  -48.5149 H         1 UNK         0.0600 
    156 H156       -1.7727  -15.3073  -48.2779 H         1 UNK         0.0600 
    157 H157       -1.1947  -16.0455  -49.7623 H         1 UNK         0.0600 
    158 H158       -0.1249  -15.0167  -48.8237 H         1 UNK         0.0600 
    159 H159        0.0329  -15.5820  -46.4409 H         1 UNK         0.3000 
    160 H160        1.2176  -17.5912  -43.7124 H         1 UNK         0.0600 
    161 H161        2.3590  -15.1589  -45.1889 H         1 UNK         0.0600 
    162 H162        3.2003  -16.6706  -44.8793 H         1 UNK         0.0600 
    163 H163        2.7338  -15.6480  -43.5381 H         1 UNK         0.0600 
    164 H164        0.1383  -14.9069  -44.0324 H         1 UNK         0.3000 
    165 H165       -3.2150  -15.7840  -43.2975 H         1 UNK         0.0600 
    166 H166       -2.9822  -14.2051  -41.4161 H         1 UNK         0.0600 
    167 H167       -2.2464  -15.7476  -41.0062 H         1 UNK         0.0600 
    168 H168       -1.2310  -14.3811  -41.4428 H         1 UNK         0.0600 
    169 H169       -1.7216  -13.3092  -43.6186 H         1 UNK         0.3000 
    170 H170       -2.1255  -13.1592  -47.1562 H         1 UNK         0.0600 
    171 H171       -4.3961  -12.4666  -46.3704 H         1 UNK         0.0600 
    172 H172       -3.6741  -11.5910  -45.0256 H         1 UNK         0.0600 
    173 H173       -3.3742  -11.0736  -46.6854 H         1 UNK         0.0600 
    174 H174       -1.2360  -11.1932  -45.3310 H         1 UNK         0.3000 
    175 H175        2.0583  -11.6538  -45.9999 H         1 UNK         0.0600 
    176 H176        0.1055  -10.0938  -44.2158 H         1 UNK         0.0600 
    177 H177        1.6944   -9.5625  -44.7465 H         1 UNK         0.0600 
    178 H178        0.4134   -9.7721  -45.9235 H         1 UNK         0.0600 
    179 H179        2.9431  -12.2274  -44.0673 H         1 UNK         0.3000 
    180 H180        2.2118  -12.0929  -40.9375 H         1 UNK         0.0600 
    181 H181        1.5812  -14.9927  -41.6673 H         1 UNK         0.0600 
    182 H182        0.8033  -13.9791  -40.4603 H         1 UNK         0.0600 
    183 H183        2.4497  -14.5159  -40.2101 H         1 UNK         0.0600 
    184 H184        3.8737  -14.0007  -42.4969 H         1 UNK         0.3000 
    185 H185        6.4800  -11.6617  -42.8882 H         1 UNK         0.0600 
    186 H186        6.9641  -12.5254  -40.5890 H         1 UNK         0.0600 
    187 H187        6.4810  -14.1422  -41.0873 H         1 UNK         0.0600 
    188 H188        7.8981  -13.3768  -41.8077 H         1 UNK         0.0600 
    189 H189        6.4977  -14.3515  -43.6020 H         1 UNK         0.3000 
    190 H190       -1.5854  -21.0313  -48.2834 H         1 UNK         0.3000 
    191 H191       -2.1996  -22.7697  -50.4621 H         1 UNK         0.0600 
    192 H192       -3.2245  -20.4925  -50.0408 H         1 UNK         0.0600 
    193 H193       -4.3916  -21.7505  -50.3740 H         1 UNK         0.0600 
    194 H194       -4.1589  -21.1852  -48.7248 H         1 UNK         0.0600 
    195 H195       -3.0524  -22.8733  -46.9692 H         1 UNK         0.3000 
    196 H196       -4.6460  -25.2151  -47.0578 H         1 UNK         0.0600 
    197 H197       -4.2366  -25.2906  -44.6064 H         1 UNK         0.0600 
    198 H198       -4.6061  -23.6531  -45.1277 H         1 UNK         0.0600 
    199 H199       -2.9438  -24.1089  -44.7631 H         1 UNK         0.0600 
    200 H200       -1.1109  -24.8315  -46.6063 H         1 UNK         0.3000 
    201 H201       -0.4908  -27.5989  -46.3297 H         1 UNK         0.0600 
    202 H202        1.0679  -25.7806  -45.6813 H         1 UNK         0.0600 
    203 H203        1.2308  -25.2827  -47.3630 H         1 UNK         0.0600 
    204 H204        1.8307  -26.8533  -46.8461 H         1 UNK         0.0600 
    205 H205       -0.8045  -25.5153  -49.2144 H         1 UNK         0.3000 
    206 H206       -0.0500  -27.5515  -51.1228 H         1 UNK         0.0600 
    207 H207        0.2474  -25.1054  -51.5291 H         1 UNK         0.0600 
    208 H208       -0.7625  -25.8321  -52.7689 H         1 UNK         0.0600 
    209 H209       -1.5003  -24.8768  -51.4913 H         1 UNK         0.0600 
    210 H210       -2.9036  -27.0762  -49.3475 H         1 UNK         0.3000 
    211 H211       -4.9705  -27.8291  -49.3314 H         1 UNK         0.0600 
    212 H212       -4.2046  -29.8383  -51.5139 H         1 UNK         0.0600 
    213 H213       -5.6027  -29.9214  -50.4532 H         1 UNK         0.0600 
    214 H214       -3.9887  -30.0873  -49.7816 H         1 UNK         0.0600 
    215 H215       -4.4663  -25.5185  -50.6650 H         1 UNK         0.3000 
    216 H216       -6.5927  -25.3682  -52.7577 H         1 UNK         0.0600 
    217 H217       -5.1288  -23.8007  -54.0038 H         1 UNK         0.0600 
    218 H218       -4.3096  -25.3434  -53.8224 H         1 UNK         0.0600 
    219 H219       -3.8550  -23.9808  -52.8010 H         1 UNK         0.0600 
    220 H220       -6.6401  -24.9140  -49.8419 H         1 UNK         0.3000 
    221 H221       -6.3224  -22.2956  -49.0136 H         1 UNK         0.0600 
    222 H222       -8.3343  -24.3807  -48.0289 H         1 UNK         0.0600 
    223 H223       -6.6699  -24.1915  -47.4789 H         1 UNK         0.0600 
    224 H224       -7.8500  -22.9402  -47.1412 H         1 UNK         0.0600 
    225 H225       -9.0693  -23.5905  -50.8051 H         1 UNK         0.3000 
    226 H226      -10.8536  -21.3638  -50.3707 H         1 UNK         0.0600 
    227 H227      -11.6746  -23.6265  -50.9772 H         1 UNK         0.0600 
    228 H228      -12.1677  -22.4556  -52.1894 H         1 UNK         0.0600 
    229 H229      -10.8290  -23.5472  -52.5237 H         1 UNK         0.0600 
    230 H230       -8.1860  -21.9469  -52.6011 H         1 UNK         0.3000 
    231 H231       -8.9874  -19.7690  -54.4416 H         1 UNK         0.0600 
    232 H232       -8.1043  -21.8941  -55.3974 H         1 UNK         0.0600 
    233 H233       -6.6008  -21.6894  -54.4982 H         1 UNK         0.0600 
    234 H234       -7.0396  -20.5424  -55.7551 H         1 UNK         0.0600 
    235 H235       -6.6307  -20.5595  -51.9488 H         1 UNK         0.3000 
    236 H236       -5.2695  -19.4170  -50.6470 H         1 UNK         0.0600 
    237 H237       -5.2880  -17.0017  -50.3725 H         1 UNK         0.0600 
    238 H238       -6.0973  -16.7580  -51.9102 H         1 UNK         0.0600 
    239 H239       -6.9481  -17.5303  -50.5722 H         1 UNK         0.0600 
    240 H240       -3.2363  -17.9191  -50.7674 H         1 UNK         0.3000 
    241 H241       -1.1592  -17.7043  -51.4424 H         1 UNK         0.0600 
    242 H242       -0.4717  -21.1919  -51.4594 H         1 UNK         0.3800 
    243 H243       -1.0483  -19.8901  -50.4381 H         1 UNK         0.3800 
    244 H244       -2.0693  -16.2381  -53.2322 H         1 UNK         0.0800 
    245 H245       -2.1718  -17.5957  -54.3129 H         1 UNK         0.0800 
    246 H246        0.0530  -15.3408  -52.1883 H         1 UNK         0.0800 
    247 H247        1.5146  -15.1893  -53.1278 H         1 UNK         0.0800 
@<TRIPOS>BOND
     1    1    2 1    
     2    1  127 1    
     3    1  128 1    
     4    1  129 1    
     5    2    3 2    
     6    2    4 am   BACKBONE|DICT|INTERRES
     7    4    5 1    
     8    4  130 1    
     9    5    6 1    
    10    5   65 1    
    11    5  131 1    
    12    6    7 1    
    13    6  132 1    
    14    6  133 1    
    15    7    8 1    
    16    8    9 1    
    17    8  134 1    
    18    8  135 1    
    19    9   10 ar   
    20    9   14 ar   
    21   10   11 ar   
    22   10  136 1    
    23   11   12 ar   
    24   11  126 1    
    25   12   13 ar   
    26   12  137 1    
    27   13   14 ar   
    28   13   15 1    
    29   14  138 1    
    30   15   16 1    
    31   15  139 1    
    32   15  140 1    
    33   16   17 1    
    34   17   18 1    
    35   17  141 1    
    36   17  142 1    
    37   18   19 1    
    38   18   67 1    
    39   18  143 1    
    40   19   20 am   BACKBONE|DICT|INTERRES
    41   19  144 1    
    42   20   21 2    
    43   20   22 1    
    44   22   23 1    
    45   22   24 1    
    46   22  145 1    
    47   23  146 1    
    48   23  147 1    
    49   23  148 1    
    50   24   25 am   BACKBONE|DICT|INTERRES
    51   24  149 1    
    52   25   26 2    
    53   25   27 1    
    54   27   28 1    
    55   27   29 1    
    56   27  150 1    
    57   28  151 1    
    58   28  152 1    
    59   28  153 1    
    60   29   30 am   BACKBONE|DICT|INTERRES
    61   29  154 1    
    62   30   31 2    
    63   30   32 1    
    64   32   33 1    
    65   32   34 1    
    66   32  155 1    
    67   33  156 1    
    68   33  157 1    
    69   33  158 1    
    70   34   35 am   BACKBONE|DICT|INTERRES
    71   34  159 1    
    72   35   36 2    
    73   35   37 1    
    74   37   38 1    
    75   37   39 1    
    76   37  160 1    
    77   38  161 1    
    78   38  162 1    
    79   38  163 1    
    80   39   40 am   BACKBONE|DICT|INTERRES
    81   39  164 1    
    82   40   41 2    
    83   40   42 1    
    84   42   43 1    
    85   42   44 1    
    86   42  165 1    
    87   43  166 1    
    88   43  167 1    
    89   43  168 1    
    90   44   45 am   BACKBONE|DICT|INTERRES
    91   44  169 1    
    92   45   46 2    
    93   45   47 1    
    94   47   48 1    
    95   47   49 1    
    96   47  170 1    
    97   48  171 1    
    98   48  172 1    
    99   48  173 1    
   100   49   50 am   BACKBONE|DICT|INTERRES
   101   49  174 1    
   102   50   51 2    
   103   50   52 1    
   104   52   53 1    
   105   52   54 1    
   106   52  175 1    
   107   53  176 1    
   108   53  177 1    
   109   53  178 1    
   110   54   55 am   BACKBONE|DICT|INTERRES
   111   54  179 1    
   112   55   56 2    
   113   55   57 1    
   114   57   58 1    
   115   57   59 1    
   116   57  180 1    
   117   58  181 1    
   118   58  182 1    
   119   58  183 1    
   120   59   60 am   BACKBONE|DICT|INTERRES
   121   59  184 1    
   122   60   61 2    
   123   60   62 1    
   124   62   63 1    
   125   62   64 1    
   126   62  185 1    
   127   63  186 1    
   128   63  187 1    
   129   63  188 1    
   130   64   65 am   BACKBONE|DICT|INTERRES
   131   64  189 1    
   132   65   66 2    
   133   67   68 2    
   134   67   69 am   BACKBONE|DICT|INTERRES
   135   69   70 1    
   136   69  190 1    
   137   70   71 1    
   138   70   72 1    
   139   70  191 1    
   140   71  192 1    
   141   71  193 1    
   142   71  194 1    
   143   72   73 2    
   144   72   74 am   BACKBONE|DICT|INTERRES
   145   74   75 1    
   146   74  195 1    
   147   75   76 1    
   148   75   77 1    
   149   75  196 1    
   150   76  197 1    
   151   76  198 1    
   152   76  199 1    
   153   77   78 2    
   154   77   79 am   BACKBONE|DICT|INTERRES
   155   79   80 1    
   156   79  200 1    
   157   80   81 1    
   158   80   82 1    
   159   80  201 1    
   160   81  202 1    
   161   81  203 1    
   162   81  204 1    
   163   82   83 2    
   164   82   84 am   BACKBONE|DICT|INTERRES
   165   84   85 1    
   166   84  205 1    
   167   85   86 1    
   168   85   87 1    
   169   85  206 1    
   170   86  207 1    
   171   86  208 1    
   172   86  209 1    
   173   87   88 2    
   174   87   89 am   BACKBONE|DICT|INTERRES
   175   89   90 1    
   176   89  210 1    
   177   90   91 1    
   178   90   92 1    
   179   90  211 1    
   180   91  212 1    
   181   91  213 1    
   182   91  214 1    
   183   92   93 2    
   184   92   94 am   BACKBONE|DICT|INTERRES
   185   94   95 1    
   186   94  215 1    
   187   95   96 1    
   188   95   97 1    
   189   95  216 1    
   190   96  217 1    
   191   96  218 1    
   192   96  219 1    
   193   97   98 2    
   194   97   99 am   BACKBONE|DICT|INTERRES
   195   99  100 1    
   196   99  220 1    
   197  100  101 1    
   198  100  102 1    
   199  100  221 1    
   200  101  222 1    
   201  101  223 1    
   202  101  224 1    
   203  102  103 2    
   204  102  104 am   BACKBONE|DICT|INTERRES
   205  104  105 1    
   206  104  225 1    
   207  105  106 1    
   208  105  107 1    
   209  105  226 1    
   210  106  227 1    
   211  106  228 1    
   212  106  229 1    
   213  107  108 2    
   214  107  109 am   BACKBONE|DICT|INTERRES
   215  109  110 1    
   216  109  230 1    
   217  110  111 1    
   218  110  112 1    
   219  110  231 1    
   220  111  232 1    
   221  111  233 1    
   222  111  234 1    
   223  112  113 2    
   224  112  114 am   BACKBONE|DICT|INTERRES
   225  114  115 1    
   226  114  235 1    
   227  115  116 1    
   228  115  117 1    
   229  115  236 1    
   230  116  237 1    
   231  116  238 1    
   232  116  239 1    
   233  117  118 2    
   234  117  119 am   BACKBONE|DICT|INTERRES
   235  119  120 1    
   236  119  240 1    
   237  120  121 1    
   238  120  124 1    
   239  120  241 1    
   240  121  122 am   BACKBONE|DICT|INTERRES
   241  121  123 2    
   242  122  242 1    
   243  122  243 1    
   244  124  125 1    
   245  124  244 1    
   246  124  245 1    
   247  125  126 1    
   248  126  246 1    
   249  126  247 1    
@<TRIPOS>SUBSTRUCTURE
     1 UNK         1 GROUP             0       ****    0 ROOT    
