@<TRIPOS>MOLECULE
3R540
247   249    1
SMALL
USER_CHARGES


@<TRIPOS>ATOM
      1 CA          5.3647   -9.5446  -49.2925 C.3       0 UNK        -0.1800 
      2 C           4.9658  -10.3245  -48.0483 C.2       0 UNK         0.5000 
      3 O           4.3948   -9.7503  -47.1206 O.2       0 UNK        -0.5000 
      4 N           5.2500  -11.6342  -48.0283 N.am      1 UNK        -0.5000 
      5 CA          4.9483  -12.5493  -46.9181 C.3       1 UNK         0.1400 
      6 C6          5.6491  -13.9223  -47.0820 C.3       23 UNK        -0.0398 
      7 S7          5.1815  -14.8194  -48.6050 S.3       23 UNK        -0.2404 
      8 C8          4.0255  -16.0555  -47.9371 C.3       23 UNK        -0.0205 
      9 C9          3.1982  -16.6791  -49.0465 C.ar      23 UNK        -0.0193 
     10 C10         1.9772  -16.1070  -49.4130 C.ar      23 UNK        -0.1150 
     11 C11         1.2050  -16.6737  -50.4297 C.ar      23 UNK        -0.0193 
     12 C12         1.6725  -17.8119  -51.0911 C.ar      23 UNK        -0.1150 
     13 C13         2.8734  -18.4149  -50.7100 C.ar      23 UNK        -0.0193 
     14 C14         3.6397  -17.8362  -49.6937 C.ar      23 UNK        -0.1150 
     15 C15         3.3104  -19.7252  -51.3535 C.3       23 UNK        -0.0205 
     16 S16         2.1065  -21.0736  -51.0796 S.3       23 UNK        -0.2404 
     17 C17         1.7052  -20.8506  -49.3126 C.3       23 UNK        -0.0398 
     18 CA          1.2256  -22.1341  -48.5982 C.3       11 UNK         0.1400 
     19 N           1.1671  -21.9110  -47.1605 N.am      11 UNK        -0.5000 
     20 C           1.7583  -22.6607  -46.2245 C.2       10 UNK         0.5000 
     21 O           2.5200  -23.5938  -46.4799 O.2       10 UNK        -0.5000 
     22 CA          1.4479  -22.3296  -44.7469 C.3       10 UNK         0.1400 
     23 CB          2.7055  -21.8087  -44.0335 C.3       10 UNK        -0.1800 
     24 N           0.3542  -21.3717  -44.5478 N.am      10 UNK        -0.5000 
     25 C          -0.9204  -21.5678  -44.9112 C.2       9 UNK         0.5000 
     26 O          -1.3211  -22.5984  -45.4505 O.2       9 UNK        -0.5000 
     27 CA         -1.8900  -20.3865  -44.7324 C.3       9 UNK         0.1400 
     28 CB         -2.4220  -20.3349  -43.2936 C.3       9 UNK        -0.1800 
     29 N          -1.2987  -19.0955  -45.0963 N.am      9 UNK        -0.5000 
     30 C          -0.8345  -18.7791  -46.3154 C.2       8 UNK         0.5000 
     31 O          -0.8609  -19.5527  -47.2724 O.2       8 UNK        -0.5000 
     32 CA         -0.1790  -17.3952  -46.4784 C.3       8 UNK         0.1400 
     33 CB         -1.2313  -16.2777  -46.5303 C.3       8 UNK        -0.1800 
     34 N           0.7797  -17.1186  -45.4102 N.am      8 UNK        -0.5000 
     35 C           1.9188  -17.8013  -45.2247 C.2       7 UNK         0.5000 
     36 O           2.3374  -18.6651  -45.9948 O.2       7 UNK        -0.5000 
     37 CA          2.6998  -17.4970  -43.9352 C.3       7 UNK         0.1400 
     38 CB          3.6399  -16.3002  -44.1327 C.3       7 UNK        -0.1800 
     39 N           1.8093  -17.2438  -42.8011 N.am      7 UNK        -0.5000 
     40 C           1.0790  -18.1912  -42.1951 C.2       6 UNK         0.5000 
     41 O           1.0901  -19.3760  -42.5254 O.2       6 UNK        -0.5000 
     42 CA          0.1549  -17.7352  -41.0513 C.3       6 UNK         0.1400 
     43 CB          0.9356  -17.6344  -39.7325 C.3       6 UNK        -0.1800 
     44 N          -0.4998  -16.4564  -41.3262 N.am      6 UNK        -0.5000 
     45 C          -1.3963  -16.2561  -42.3024 C.2       5 UNK         0.5000 
     46 O          -1.7906  -17.1409  -43.0599 O.2       5 UNK        -0.5000 
     47 CA         -1.8998  -14.8142  -42.4963 C.3       5 UNK         0.1400 
     48 CB         -3.1364  -14.5521  -41.6243 C.3       5 UNK        -0.1800 
     49 N          -0.8803  -13.8001  -42.2129 N.am      5 UNK        -0.5000 
     50 C           0.2735  -13.6798  -42.8815 C.2       4 UNK         0.5000 
     51 O           0.6140  -14.4328  -43.7975 O.2       4 UNK        -0.5000 
     52 CA          1.2037  -12.5408  -42.4415 C.3       4 UNK         0.1400 
     53 CB          2.5864  -13.0765  -42.0367 C.3       4 UNK        -0.1800 
     54 N           1.3482  -11.6116  -43.5542 N.am      4 UNK        -0.5000 
     55 C           0.6045  -10.5093  -43.7265 C.2       3 UNK         0.5000 
     56 O          -0.1913  -10.0866  -42.8866 O.2       3 UNK        -0.5000 
     57 CA          0.7509   -9.7569  -45.0666 C.3       3 UNK         0.1400 
     58 CB          1.7587   -8.6058  -44.9310 C.3       3 UNK        -0.1800 
     59 N           1.1666  -10.6234  -46.1691 N.am      3 UNK        -0.5000 
     60 C           0.4436  -11.6400  -46.6615 C.2       2 UNK         0.5000 
     61 O          -0.7254  -11.8590  -46.3428 O.2       2 UNK        -0.5000 
     62 CA          1.1421  -12.5888  -47.6575 C.3       2 UNK         0.1400 
     63 CB          0.6107  -12.3597  -49.0810 C.3       2 UNK        -0.1800 
     64 N           2.6049  -12.4889  -47.6829 N.am      2 UNK        -0.5000 
     65 C           3.4359  -12.7157  -46.6536 C.2       1 UNK         0.5000 
     66 O           3.0540  -13.0147  -45.5244 O.2       1 UNK        -0.5000 
     67 C          -0.1573  -22.6159  -49.0843 C.2       11 UNK         0.5000 
     68 O          -0.2684  -23.7338  -49.5878 O.2       11 UNK        -0.5000 
     69 N          -1.1886  -21.7749  -48.9222 N.am      12 UNK        -0.5000 
     70 CA         -2.5106  -21.9663  -49.5159 C.3       12 UNK         0.1400 
     71 CB         -3.2564  -20.6236  -49.5292 C.3       12 UNK        -0.1800 
     72 C          -3.3563  -23.0409  -48.8169 C.2       12 UNK         0.5000 
     73 O          -3.9342  -23.8932  -49.4926 O.2       12 UNK        -0.5000 
     74 N          -3.4379  -22.9779  -47.4818 N.am      13 UNK        -0.5000 
     75 CA         -4.2215  -23.9179  -46.6752 C.3       13 UNK         0.1400 
     76 CB         -4.5705  -23.2934  -45.3156 C.3       13 UNK        -0.1800 
     77 C          -3.4938  -25.2619  -46.5082 C.2       13 UNK         0.5000 
     78 O          -4.1495  -26.2996  -46.4314 O.2       13 UNK        -0.5000 
     79 N          -2.1538  -25.2325  -46.5294 N.am      14 UNK        -0.5000 
     80 CA         -1.2858  -26.4116  -46.5846 C.3       14 UNK         0.1400 
     81 CB          0.1738  -25.9669  -46.4337 C.3       14 UNK        -0.1800 
     82 C          -1.4679  -27.2386  -47.8748 C.2       14 UNK         0.5000 
     83 O          -1.2907  -28.4564  -47.8444 O.2       14 UNK        -0.5000 
     84 N          -1.8639  -26.5723  -48.9688 N.am      15 UNK        -0.5000 
     85 CA         -2.2516  -27.1854  -50.2409 C.3       15 UNK         0.1400 
     86 CB         -2.0039  -26.1757  -51.3742 C.3       15 UNK        -0.1800 
     87 C          -3.7136  -27.6864  -50.2522 C.2       15 UNK         0.5000 
     88 O          -4.1758  -28.1567  -51.2920 O.2       15 UNK        -0.5000 
     89 N          -4.4262  -27.5609  -49.1214 N.am      16 UNK        -0.5000 
     90 CA         -5.8012  -27.9852  -48.8223 C.3       16 UNK         0.1400 
     91 CB         -5.9803  -29.5006  -49.0349 C.3       16 UNK        -0.1800 
     92 C          -6.9075  -27.1889  -49.5403 C.2       16 UNK         0.5000 
     93 O          -7.9853  -27.0181  -48.9693 O.2       16 UNK        -0.5000 
     94 N          -6.6400  -26.7215  -50.7645 N.am      17 UNK        -0.5000 
     95 CA         -7.5795  -25.9852  -51.6084 C.3       17 UNK         0.1400 
     96 CB         -7.0126  -25.9030  -53.0336 C.3       17 UNK        -0.1800 
     97 C          -7.9366  -24.5860  -51.0712 C.2       17 UNK         0.5000 
     98 O          -9.0892  -24.1736  -51.2131 O.2       17 UNK        -0.5000 
     99 N          -6.9562  -23.8991  -50.4601 N.am      18 UNK        -0.5000 
    100 CA        -7.0357  -22.5325  -49.9251 C.3       18 UNK         0.1400 
    101 CB        -8.0157  -22.4751  -48.7336 C.3       18 UNK        -0.1800 
    102 C         -7.3366  -21.4632  -51.0022 C.2       18 UNK         0.5000 
    103 O         -7.3321  -21.7672  -52.1979 O.2       18 UNK        -0.5000 
    104 N         -7.5531  -20.2154  -50.5568 N.am      19 UNK        -0.5000 
    105 CA        -7.9231  -19.0354  -51.3498 C.3       19 UNK         0.1400 
    106 CB        -9.4081  -19.1296  -51.7653 C.3       19 UNK        -0.1800 
    107 C         -6.9654  -18.7869  -52.5351 C.2       19 UNK         0.5000 
    108 O         -5.8503  -18.3082  -52.3231 O.2       19 UNK        -0.5000 
    109 N         -7.3959  -19.1605  -53.7488 N.am      20 UNK        -0.5000 
    110 CA        -6.6368  -19.0923  -55.0002 C.3       20 UNK         0.1400 
    111 CB        -7.5428  -19.5471  -56.1542 C.3       20 UNK        -0.1800 
    112 C         -5.3226  -19.9004  -54.9975 C.2       20 UNK         0.5000 
    113 O         -4.4304  -19.5928  -55.7893 O.2       20 UNK        -0.5000 
    114 N         -5.1930  -20.8770  -54.0857 N.am      21 UNK        -0.5000 
    115 CA        -3.9730  -21.6530  -53.8409 C.3       21 UNK         0.1400 
    116 CB        -4.2740  -22.7548  -52.8163 C.3       21 UNK        -0.1800 
    117 C         -2.7589  -20.8100  -53.3923 C.2       21 UNK         0.5000 
    118 O         -1.6304  -21.2880  -53.5074 O.2       21 UNK        -0.5000 
    119 N         -2.9950  -19.5736  -52.9262 N.am      22 UNK        -0.5000 
    120 CA        -1.9507  -18.5562  -52.7165 C.3       22 UNK         0.1400 
    121 C         -1.3139  -18.0195  -54.0385 C.2       22 UNK         0.5000 
    122 N         -1.8996  -18.2387  -55.2109 N.am      22 UNK        -0.7600 
    123 O         -0.2600  -17.3934  -54.0054 O.2       22 UNK        -0.5000 
    124 C124       -2.4528  -17.3873  -51.8138 C.3       23 UNK        -0.0398 
    125 S125       -1.4927  -17.1948  -50.2742 S.3       23 UNK        -0.2404 
    126 C126       -0.1473  -16.0835  -50.7946 C.3       23 UNK        -0.0205 
    127 H127        6.0535   -8.7426  -49.0271 H         1 UNK         0.0600 
    128 H128        5.8521  -10.1813  -50.0313 H         1 UNK         0.0600 
    129 H129        4.4834   -9.0998  -49.7546 H         1 UNK         0.0600 
    130 H130        5.7072  -12.0564  -48.8247 H         1 UNK         0.3000 
    131 H131        5.3598  -12.0891  -46.0170 H         1 UNK         0.0600 
    132 H132        5.4682  -14.5523  -46.2092 H         1 UNK         0.0800 
    133 H133        6.7291  -13.7723  -47.1072 H         1 UNK         0.0800 
    134 H134        3.3609  -15.5946  -47.2052 H         1 UNK         0.0800 
    135 H135        4.5839  -16.8264  -47.4038 H         1 UNK         0.0800 
    136 H136        1.6249  -15.2277  -48.8962 H         1 UNK         0.1150 
    137 H137        1.0755  -18.2628  -51.8699 H         1 UNK         0.1150 
    138 H138        4.5714  -18.2937  -49.3923 H         1 UNK         0.1150 
    139 H139        3.4403  -19.5743  -52.4259 H         1 UNK         0.0800 
    140 H140        4.2806  -20.0393  -50.9658 H         1 UNK         0.0800 
    141 H141        0.9748  -20.0452  -49.2166 H         1 UNK         0.0800 
    142 H142        2.6055  -20.4919  -48.8110 H         1 UNK         0.0800 
    143 H143        1.9428  -22.9265  -48.8227 H         1 UNK         0.0600 
    144 H144        0.5576  -21.1625  -46.8564 H         1 UNK         0.3000 
    145 H145        1.1523  -23.2660  -44.2701 H         1 UNK         0.0600 
    146 H146        2.5273  -21.6757  -42.9665 H         1 UNK         0.0600 
    147 H147        3.5360  -22.5082  -44.1362 H         1 UNK         0.0600 
    148 H148        3.0296  -20.8516  -44.4425 H         1 UNK         0.0600 
    149 H149        0.5965  -20.5086  -44.0701 H         1 UNK         0.3000 
    150 H150       -2.7386  -20.5545  -45.3983 H         1 UNK         0.0600 
    151 H151       -2.8784  -21.2841  -43.0101 H         1 UNK         0.0600 
    152 H152       -3.1840  -19.5633  -43.1832 H         1 UNK         0.0600 
    153 H153       -1.6270  -20.1254  -42.5779 H         1 UNK         0.0600 
    154 H154       -1.2814  -18.3883  -44.3653 H         1 UNK         0.3000 
    155 H155        0.3611  -17.3970  -47.4270 H         1 UNK         0.0600 
    156 H156       -1.7923  -16.2041  -45.5991 H         1 UNK         0.0600 
    157 H157       -1.9495  -16.4558  -47.3311 H         1 UNK         0.0600 
    158 H158       -0.7685  -15.3091  -46.7178 H         1 UNK         0.0600 
    159 H159        0.5374  -16.3908  -44.7477 H         1 UNK         0.3000 
    160 H160        3.3113  -18.3705  -43.6989 H         1 UNK         0.0600 
    161 H161        4.1820  -16.0640  -43.2171 H         1 UNK         0.0600 
    162 H162        3.0925  -15.4099  -44.4400 H         1 UNK         0.0600 
    163 H163        4.3811  -16.5125  -44.9032 H         1 UNK         0.0600 
    164 H164        1.6975  -16.2817  -42.5167 H         1 UNK         0.3000 
    165 H165       -0.6223  -18.4925  -40.9297 H         1 UNK         0.0600 
    166 H166        0.2745  -17.3911  -38.9006 H         1 UNK         0.0600 
    167 H167        1.4213  -18.5816  -39.4938 H         1 UNK         0.0600 
    168 H168        1.7122  -16.8699  -39.7797 H         1 UNK         0.0600 
    169 H169       -0.2331  -15.6718  -40.7504 H         1 UNK         0.3000 
    170 H170       -2.1914  -14.7069  -43.5432 H         1 UNK         0.0600 
    171 H171       -3.9206  -15.2821  -41.8302 H         1 UNK         0.0600 
    172 H172       -2.9010  -14.6142  -40.5611 H         1 UNK         0.0600 
    173 H173       -3.5548  -13.5646  -41.8194 H         1 UNK         0.0600 
    174 H174       -1.0956  -13.1370  -41.4821 H         1 UNK         0.3000 
    175 H175        0.7753  -12.0348  -41.5737 H         1 UNK         0.0600 
    176 H176        3.0904  -13.5716  -42.8664 H         1 UNK         0.0600 
    177 H177        3.2326  -12.2692  -41.6920 H         1 UNK         0.0600 
    178 H178        2.5040  -13.7983  -41.2234 H         1 UNK         0.0600 
    179 H179        1.9280  -11.9440  -44.3200 H         1 UNK         0.3000 
    180 H180       -0.2240   -9.3340  -45.3177 H         1 UNK         0.0600 
    181 H181        2.7593   -8.9739  -44.6999 H         1 UNK         0.0600 
    182 H182        1.4667   -7.9216  -44.1333 H         1 UNK         0.0600 
    183 H183        1.8207   -8.0248  -45.8514 H         1 UNK         0.0600 
    184 H184        2.1171  -10.5103  -46.4961 H         1 UNK         0.3000 
    185 H185        0.8918  -13.6057  -47.3508 H         1 UNK         0.0600 
    186 H186       -0.4685  -12.5126  -49.1248 H         1 UNK         0.0600 
    187 H187        0.8129  -11.3443  -49.4241 H         1 UNK         0.0600 
    188 H188        1.0646  -13.0482  -49.7935 H         1 UNK         0.0600 
    189 H189        3.0201  -12.2342  -48.5671 H         1 UNK         0.3000 
    190 H190       -1.0402  -20.8930  -48.4334 H         1 UNK         0.3000 
    191 H191       -2.3671  -22.2805  -50.5516 H         1 UNK         0.0600 
    192 H192       -3.4244  -20.2410  -48.5217 H         1 UNK         0.0600 
    193 H193       -4.2267  -20.7095  -50.0182 H         1 UNK         0.0600 
    194 H194       -2.6880  -19.8734  -50.0752 H         1 UNK         0.0600 
    195 H195       -2.8624  -22.3150  -46.9804 H         1 UNK         0.3000 
    196 H196       -5.1620  -24.1156  -47.1950 H         1 UNK         0.0600 
    197 H197       -5.2691  -23.9293  -44.7705 H         1 UNK         0.0600 
    198 H198       -5.0452  -22.3197  -45.4366 H         1 UNK         0.0600 
    199 H199       -3.6939  -23.1659  -44.6823 H         1 UNK         0.0600 
    200 H200       -1.7008  -24.3254  -46.5079 H         1 UNK         0.3000 
    201 H201       -1.5396  -27.0542  -45.7392 H         1 UNK         0.0600 
    202 H202        0.3263  -25.4233  -45.5014 H         1 UNK         0.0600 
    203 H203        0.4796  -25.3199  -47.2567 H         1 UNK         0.0600 
    204 H204        0.8465  -26.8252  -46.4239 H         1 UNK         0.0600 
    205 H205       -1.9607  -25.5672  -48.9137 H         1 UNK         0.3000 
    206 H206       -1.6153  -28.0537  -50.4223 H         1 UNK         0.0600 
    207 H207       -0.9657  -25.8432  -51.3857 H         1 UNK         0.0600 
    208 H208       -2.2116  -26.6177  -52.3493 H         1 UNK         0.0600 
    209 H209       -2.6349  -25.2936  -51.2741 H         1 UNK         0.0600 
    210 H210       -3.9656  -27.1168  -48.3359 H         1 UNK         0.3000 
    211 H211       -5.9369  -27.7945  -47.7570 H         1 UNK         0.0600 
    212 H212       -5.8994  -29.7791  -50.0859 H         1 UNK         0.0600 
    213 H213       -6.9618  -29.8271  -48.6890 H         1 UNK         0.0600 
    214 H214       -5.2347  -30.0677  -48.4777 H         1 UNK         0.0600 
    215 H215       -5.7441  -26.9696  -51.1706 H         1 UNK         0.3000 
    216 H216       -8.5078  -26.5588  -51.6519 H         1 UNK         0.0600 
    217 H217       -7.6447  -25.2887  -53.6764 H         1 UNK         0.0600 
    218 H218       -6.9512  -26.8924  -53.4873 H         1 UNK         0.0600 
    219 H219       -6.0118  -25.4730  -53.0431 H         1 UNK         0.0600 
    220 H220       -6.0409  -24.3273  -50.4019 H         1 UNK         0.3000 
    221 H221       -6.0451  -22.2992  -49.5410 H         1 UNK         0.0600 
    222 H222       -9.0534  -22.5644  -49.0564 H         1 UNK         0.0600 
    223 H223       -7.8171  -23.2791  -48.0245 H         1 UNK         0.0600 
    224 H224       -7.9233  -21.5384  -48.1837 H         1 UNK         0.0600 
    225 H225       -7.4866  -20.0516  -49.5625 H         1 UNK         0.3000 
    226 H226       -7.8206  -18.1710  -50.6921 H         1 UNK         0.0600 
    227 H227      -10.0536  -19.1575  -50.8873 H         1 UNK         0.0600 
    228 H228       -9.7091  -18.2630  -52.3556 H         1 UNK         0.0600 
    229 H229       -9.6185  -20.0246  -52.3521 H         1 UNK         0.0600 
    230 H230       -8.3067  -19.5921  -53.8071 H         1 UNK         0.3000 
    231 H231       -6.3701  -18.0465  -55.1644 H         1 UNK         0.0600 
    232 H232       -8.4333  -18.9226  -56.2277 H         1 UNK         0.0600 
    233 H233       -7.8657  -20.5812  -56.0266 H         1 UNK         0.0600 
    234 H234       -7.0221  -19.4812  -57.1106 H         1 UNK         0.0600 
    235 H235       -5.9847  -21.0805  -53.4817 H         1 UNK         0.3000 
    236 H236       -3.6994  -22.1326  -54.7828 H         1 UNK         0.0600 
    237 H237       -3.4107  -23.4049  -52.6714 H         1 UNK         0.0600 
    238 H238       -4.5399  -22.3382  -51.8461 H         1 UNK         0.0600 
    239 H239       -5.1018  -23.3789  -53.1483 H         1 UNK         0.0600 
    240 H240       -3.9537  -19.2550  -52.8495 H         1 UNK         0.3000 
    241 H241       -1.1384  -19.0671  -52.1961 H         1 UNK         0.0600 
    242 H242       -1.4630  -17.8843  -56.0468 H         1 UNK         0.3800 
    243 H243       -2.7718  -18.7532  -55.2878 H         1 UNK         0.3800 
    244 H244       -2.4828  -16.4312  -52.3400 H         1 UNK         0.0800 
    245 H245       -3.4830  -17.5589  -51.5026 H         1 UNK         0.0800 
    246 H246       -0.1803  -15.9000  -51.8680 H         1 UNK         0.0800 
    247 H247       -0.2913  -15.1145  -50.3155 H         1 UNK         0.0800 
@<TRIPOS>BOND
     1    1    2 1    
     2    1  127 1    
     3    1  128 1    
     4    1  129 1    
     5    2    3 2    
     6    2    4 am   BACKBONE|DICT|INTERRES
     7    4    5 1    
     8    4  130 1    
     9    5    6 1    
    10    5   65 1    
    11    5  131 1    
    12    6    7 1    
    13    6  132 1    
    14    6  133 1    
    15    7    8 1    
    16    8    9 1    
    17    8  134 1    
    18    8  135 1    
    19    9   10 ar   
    20    9   14 ar   
    21   10   11 ar   
    22   10  136 1    
    23   11   12 ar   
    24   11  126 1    
    25   12   13 ar   
    26   12  137 1    
    27   13   14 ar   
    28   13   15 1    
    29   14  138 1    
    30   15   16 1    
    31   15  139 1    
    32   15  140 1    
    33   16   17 1    
    34   17   18 1    
    35   17  141 1    
    36   17  142 1    
    37   18   19 1    
    38   18   67 1    
    39   18  143 1    
    40   19   20 am   BACKBONE|DICT|INTERRES
    41   19  144 1    
    42   20   21 2    
    43   20   22 1    
    44   22   23 1    
    45   22   24 1    
    46   22  145 1    
    47   23  146 1    
    48   23  147 1    
    49   23  148 1    
    50   24   25 am   BACKBONE|DICT|INTERRES
    51   24  149 1    
    52   25   26 2    
    53   25   27 1    
    54   27   28 1    
    55   27   29 1    
    56   27  150 1    
    57   28  151 1    
    58   28  152 1    
    59   28  153 1    
    60   29   30 am   BACKBONE|DICT|INTERRES
    61   29  154 1    
    62   30   31 2    
    63   30   32 1    
    64   32   33 1    
    65   32   34 1    
    66   32  155 1    
    67   33  156 1    
    68   33  157 1    
    69   33  158 1    
    70   34   35 am   BACKBONE|DICT|INTERRES
    71   34  159 1    
    72   35   36 2    
    73   35   37 1    
    74   37   38 1    
    75   37   39 1    
    76   37  160 1    
    77   38  161 1    
    78   38  162 1    
    79   38  163 1    
    80   39   40 am   BACKBONE|DICT|INTERRES
    81   39  164 1    
    82   40   41 2    
    83   40   42 1    
    84   42   43 1    
    85   42   44 1    
    86   42  165 1    
    87   43  166 1    
    88   43  167 1    
    89   43  168 1    
    90   44   45 am   BACKBONE|DICT|INTERRES
    91   44  169 1    
    92   45   46 2    
    93   45   47 1    
    94   47   48 1    
    95   47   49 1    
    96   47  170 1    
    97   48  171 1    
    98   48  172 1    
    99   48  173 1    
   100   49   50 am   BACKBONE|DICT|INTERRES
   101   49  174 1    
   102   50   51 2    
   103   50   52 1    
   104   52   53 1    
   105   52   54 1    
   106   52  175 1    
   107   53  176 1    
   108   53  177 1    
   109   53  178 1    
   110   54   55 am   BACKBONE|DICT|INTERRES
   111   54  179 1    
   112   55   56 2    
   113   55   57 1    
   114   57   58 1    
   115   57   59 1    
   116   57  180 1    
   117   58  181 1    
   118   58  182 1    
   119   58  183 1    
   120   59   60 am   BACKBONE|DICT|INTERRES
   121   59  184 1    
   122   60   61 2    
   123   60   62 1    
   124   62   63 1    
   125   62   64 1    
   126   62  185 1    
   127   63  186 1    
   128   63  187 1    
   129   63  188 1    
   130   64   65 am   BACKBONE|DICT|INTERRES
   131   64  189 1    
   132   65   66 2    
   133   67   68 2    
   134   67   69 am   BACKBONE|DICT|INTERRES
   135   69   70 1    
   136   69  190 1    
   137   70   71 1    
   138   70   72 1    
   139   70  191 1    
   140   71  192 1    
   141   71  193 1    
   142   71  194 1    
   143   72   73 2    
   144   72   74 am   BACKBONE|DICT|INTERRES
   145   74   75 1    
   146   74  195 1    
   147   75   76 1    
   148   75   77 1    
   149   75  196 1    
   150   76  197 1    
   151   76  198 1    
   152   76  199 1    
   153   77   78 2    
   154   77   79 am   BACKBONE|DICT|INTERRES
   155   79   80 1    
   156   79  200 1    
   157   80   81 1    
   158   80   82 1    
   159   80  201 1    
   160   81  202 1    
   161   81  203 1    
   162   81  204 1    
   163   82   83 2    
   164   82   84 am   BACKBONE|DICT|INTERRES
   165   84   85 1    
   166   84  205 1    
   167   85   86 1    
   168   85   87 1    
   169   85  206 1    
   170   86  207 1    
   171   86  208 1    
   172   86  209 1    
   173   87   88 2    
   174   87   89 am   BACKBONE|DICT|INTERRES
   175   89   90 1    
   176   89  210 1    
   177   90   91 1    
   178   90   92 1    
   179   90  211 1    
   180   91  212 1    
   181   91  213 1    
   182   91  214 1    
   183   92   93 2    
   184   92   94 am   BACKBONE|DICT|INTERRES
   185   94   95 1    
   186   94  215 1    
   187   95   96 1    
   188   95   97 1    
   189   95  216 1    
   190   96  217 1    
   191   96  218 1    
   192   96  219 1    
   193   97   98 2    
   194   97   99 am   BACKBONE|DICT|INTERRES
   195   99  100 1    
   196   99  220 1    
   197  100  101 1    
   198  100  102 1    
   199  100  221 1    
   200  101  222 1    
   201  101  223 1    
   202  101  224 1    
   203  102  103 2    
   204  102  104 am   BACKBONE|DICT|INTERRES
   205  104  105 1    
   206  104  225 1    
   207  105  106 1    
   208  105  107 1    
   209  105  226 1    
   210  106  227 1    
   211  106  228 1    
   212  106  229 1    
   213  107  108 2    
   214  107  109 am   BACKBONE|DICT|INTERRES
   215  109  110 1    
   216  109  230 1    
   217  110  111 1    
   218  110  112 1    
   219  110  231 1    
   220  111  232 1    
   221  111  233 1    
   222  111  234 1    
   223  112  113 2    
   224  112  114 am   BACKBONE|DICT|INTERRES
   225  114  115 1    
   226  114  235 1    
   227  115  116 1    
   228  115  117 1    
   229  115  236 1    
   230  116  237 1    
   231  116  238 1    
   232  116  239 1    
   233  117  118 2    
   234  117  119 am   BACKBONE|DICT|INTERRES
   235  119  120 1    
   236  119  240 1    
   237  120  121 1    
   238  120  124 1    
   239  120  241 1    
   240  121  122 am   BACKBONE|DICT|INTERRES
   241  121  123 2    
   242  122  242 1    
   243  122  243 1    
   244  124  125 1    
   245  124  244 1    
   246  124  245 1    
   247  125  126 1    
   248  126  246 1    
   249  126  247 1    
@<TRIPOS>SUBSTRUCTURE
     1 UNK         1 GROUP             0       ****    0 ROOT    
