@<TRIPOS>MOLECULE
3R540
247   249    1
SMALL
USER_CHARGES


@<TRIPOS>ATOM
      1 CA         -2.6414  -12.8122  -46.7320 C.3       0 UNK        -0.1800 
      2 C          -1.5428  -12.3960  -47.6967 C.2       0 UNK         0.5000 
      3 O          -1.6225  -11.3154  -48.2807 O.2       0 UNK        -0.5000 
      4 N          -0.5226  -13.2477  -47.8591 N.am      1 UNK        -0.5000 
      5 CA          0.6389  -13.0685  -48.7391 C.3       1 UNK         0.1400 
      6 C6          1.5160  -14.3431  -48.7648 C.3       23 UNK        -0.0398 
      7 S7          0.6380  -15.7888  -49.4457 S.3       23 UNK        -0.2404 
      8 C8          1.7422  -16.2330  -50.8221 C.3       23 UNK        -0.0205 
      9 C9          1.4460  -17.6258  -51.3512 C.ar      23 UNK        -0.0193 
     10 C10         0.9559  -17.8114  -52.6472 C.ar      23 UNK        -0.1150 
     11 C11         0.7153  -19.1002  -53.1355 C.ar      23 UNK        -0.0193 
     12 C12         0.9565  -20.2056  -52.3136 C.ar      23 UNK        -0.1150 
     13 C13         1.4429  -20.0288  -51.0148 C.ar      23 UNK        -0.0193 
     14 C14         1.6946  -18.7387  -50.5445 C.ar      23 UNK        -0.1150 
     15 C15         1.7449  -21.2252  -50.1300 C.3       23 UNK        -0.0205 
     16 S16         0.6204  -21.3400  -48.7014 S.3       23 UNK        -0.2404 
     17 C17         1.4335  -22.7371  -47.8589 C.3       23 UNK        -0.0398 
     18 CA          0.5978  -23.5029  -46.8099 C.3       11 UNK         0.1400 
     19 N           0.4146  -22.7767  -45.5489 N.am      11 UNK        -0.5000 
     20 C           0.1365  -23.4089  -44.3984 C.2       10 UNK         0.5000 
     21 O          -0.0199  -24.6282  -44.3195 O.2       10 UNK        -0.5000 
     22 CA         -0.0369  -22.5512  -43.1363 C.3       10 UNK         0.1400 
     23 CB          1.3188  -22.0301  -42.6365 C.3       10 UNK        -0.1800 
     24 N          -0.9674  -21.4424  -43.3351 N.am      10 UNK        -0.5000 
     25 C          -2.2706  -21.5893  -43.6151 C.2       9 UNK         0.5000 
     26 O          -2.8314  -22.6803  -43.7084 O.2       9 UNK        -0.5000 
     27 CA         -3.0865  -20.3071  -43.8522 C.3       9 UNK         0.1400 
     28 CB         -3.5752  -19.7263  -42.5172 C.3       9 UNK        -0.1800 
     29 N          -2.3515  -19.2836  -44.5952 N.am      9 UNK        -0.5000 
     30 C          -1.9072  -19.4271  -45.8520 C.2       8 UNK         0.5000 
     31 O          -2.0769  -20.4428  -46.5258 O.2       8 UNK        -0.5000 
     32 CA         -1.1013  -18.2518  -46.4358 C.3       8 UNK         0.1400 
     33 CB         -2.0197  -17.0694  -46.7864 C.3       8 UNK        -0.1800 
     34 N          -0.0524  -17.7968  -45.5253 N.am      8 UNK        -0.5000 
     35 C           0.9707  -18.5529  -45.1010 C.2       7 UNK         0.5000 
     36 O           1.1811  -19.7099  -45.4693 O.2       7 UNK        -0.5000 
     37 CA          1.8796  -17.9163  -44.0370 C.3       7 UNK         0.1400 
     38 CB          2.8762  -16.9401  -44.6810 C.3       7 UNK        -0.1800 
     39 N           1.1064  -17.2250  -43.0026 N.am      7 UNK        -0.5000 
     40 C           0.3245  -17.8452  -42.1061 C.2       6 UNK         0.5000 
     41 O           0.1860  -19.0654  -42.0492 O.2       6 UNK        -0.5000 
     42 CA         -0.4647  -16.9539  -41.1306 C.3       6 UNK         0.1400 
     43 CB          0.4124  -16.5481  -39.9369 C.3       6 UNK        -0.1800 
     44 N          -1.0035  -15.7529  -41.7673 N.am      6 UNK        -0.5000 
     45 C          -1.9271  -15.7557  -42.7386 C.2       5 UNK         0.5000 
     46 O          -2.4449  -16.7758  -43.1895 O.2       5 UNK        -0.5000 
     47 CA         -2.2952  -14.3910  -43.3447 C.3       5 UNK         0.1400 
     48 CB         -3.4382  -13.7336  -42.5588 C.3       5 UNK        -0.1800 
     49 N          -1.1592  -13.4694  -43.4121 N.am      5 UNK        -0.5000 
     50 C          -0.0408  -13.6767  -44.1178 C.2       4 UNK         0.5000 
     51 O           0.1315  -14.6574  -44.8469 O.2       4 UNK        -0.5000 
     52 CA          1.0411  -12.5877  -43.9882 C.3       4 UNK         0.1400 
     53 CB          2.4348  -13.0962  -44.3946 C.3       4 UNK        -0.1800 
     54 N           0.6767  -11.4084  -44.7787 N.am      4 UNK        -0.5000 
     55 C          -0.2063  -10.4785  -44.3782 C.2       3 UNK         0.5000 
     56 O          -0.7347  -10.5047  -43.2649 O.2       3 UNK        -0.5000 
     57 CA         -0.6330   -9.3731  -45.3688 C.3       3 UNK         0.1400 
     58 CB         -0.5807   -7.9657  -44.7387 C.3       3 UNK        -0.1800 
     59 N           0.0370   -9.4224  -46.6722 N.am      3 UNK        -0.5000 
     60 C           1.2857   -9.0513  -46.9938 C.2       2 UNK         0.5000 
     61 O           2.0825   -8.5384  -46.2071 O.2       2 UNK        -0.5000 
     62 CA          1.7087   -9.3641  -48.4493 C.3       2 UNK         0.1400 
     63 CB          3.2283   -9.2334  -48.6844 C.3       2 UNK        -0.1800 
     64 N           1.2184  -10.6789  -48.8905 N.am      2 UNK        -0.5000 
     65 C           1.4693  -11.8506  -48.2881 C.2       1 UNK         0.5000 
     66 O           2.2575  -11.9740  -47.3523 O.2       1 UNK        -0.5000 
     67 C          -0.7187  -24.0954  -47.3564 C.2       11 UNK         0.5000 
     68 O          -0.6845  -25.1723  -47.9489 O.2       11 UNK        -0.5000 
     69 N          -1.8537  -23.4368  -47.0806 N.am      12 UNK        -0.5000 
     70 CA         -3.1983  -23.9363  -47.3805 C.3       12 UNK         0.1400 
     71 CB         -4.1929  -22.7734  -47.2743 C.3       12 UNK        -0.1800 
     72 C          -3.6437  -25.1134  -46.4875 C.2       12 UNK         0.5000 
     73 O          -4.6070  -25.7980  -46.8348 O.2       12 UNK        -0.5000 
     74 N          -2.9612  -25.3282  -45.3550 N.am      13 UNK        -0.5000 
     75 CA         -3.1402  -26.4961  -44.4960 C.3       13 UNK         0.1400 
     76 CB         -2.9327  -26.0945  -43.0271 C.3       13 UNK        -0.1800 
     77 C          -2.1753  -27.6233  -44.9006 C.2       13 UNK         0.5000 
     78 O          -2.5818  -28.7855  -44.9326 O.2       13 UNK        -0.5000 
     79 N          -0.9168  -27.2655  -45.1957 N.am      14 UNK        -0.5000 
     80 CA          0.1510  -28.1968  -45.5640 C.3       14 UNK         0.1400 
     81 CB          1.5013  -27.4675  -45.4983 C.3       14 UNK        -0.1800 
     82 C          -0.0383  -28.8480  -46.9474 C.2       14 UNK         0.5000 
     83 O           0.3180  -30.0155  -47.1150 O.2       14 UNK        -0.5000 
     84 N          -0.5826  -28.0921  -47.9064 N.am      15 UNK        -0.5000 
     85 CA         -0.8591  -28.5220  -49.2741 C.3       15 UNK         0.1400 
     86 CB          0.1471  -27.8407  -50.2173 C.3       15 UNK        -0.1800 
     87 C          -2.2996  -28.1492  -49.6545 C.2       15 UNK         0.5000 
     88 O          -2.9161  -27.3073  -48.9999 O.2       15 UNK        -0.5000 
     89 N          -2.8133  -28.7801  -50.7173 N.am      16 UNK        -0.5000 
     90 CA         -4.1236  -28.4810  -51.2962 C.3       16 UNK         0.1400 
     91 CB         -4.4960  -29.5932  -52.2891 C.3       16 UNK        -0.1800 
     92 C          -4.1353  -27.1072  -51.9942 C.2       16 UNK         0.5000 
     93 O          -3.1210  -26.7112  -52.5745 O.2       16 UNK        -0.5000 
     94 N          -5.2938  -26.4335  -51.9499 N.am      17 UNK        -0.5000 
     95 CA         -5.5517  -25.0890  -52.4767 C.3       17 UNK         0.1400 
     96 CB         -5.5023  -25.0831  -54.0224 C.3       17 UNK        -0.1800 
     97 C          -4.6437  -24.0397  -51.7997 C.2       17 UNK         0.5000 
     98 O          -4.7818  -23.8326  -50.5936 O.2       17 UNK        -0.5000 
     99 N          -3.7433  -23.4161  -52.5727 N.am      18 UNK        -0.5000 
    100 CA        -2.7684  -22.4058  -52.1545 C.3       18 UNK         0.1400 
    101 CB        -1.6970  -23.0375  -51.2367 C.3       18 UNK        -0.1800 
    102 C         -3.4475  -21.1413  -51.5807 C.2       18 UNK         0.5000 
    103 O         -4.3884  -20.6379  -52.2000 O.2       18 UNK        -0.5000 
    104 N         -2.9549  -20.6505  -50.4342 N.am      19 UNK        -0.5000 
    105 CA        -3.3269  -19.3991  -49.7677 C.3       19 UNK         0.1400 
    106 CB        -4.8230  -19.3861  -49.3759 C.3       19 UNK        -0.1800 
    107 C         -2.9122  -18.1538  -50.5794 C.2       19 UNK         0.5000 
    108 O         -2.1220  -18.2542  -51.5151 O.2       19 UNK        -0.5000 
    109 N         -3.4379  -16.9831  -50.1990 N.am      20 UNK        -0.5000 
    110 CA        -3.1143  -15.6988  -50.8252 C.3       20 UNK         0.1400 
    111 CB        -3.5632  -14.5728  -49.8841 C.3       20 UNK        -0.1800 
    112 C         -3.7321  -15.5151  -52.2264 C.2       20 UNK         0.5000 
    113 O         -3.2839  -14.6421  -52.9703 O.2       20 UNK        -0.5000 
    114 N         -4.7441  -16.3288  -52.5638 N.am      21 UNK        -0.5000 
    115 CA        -5.5198  -16.2728  -53.8068 C.3       21 UNK         0.1400 
    116 CB        -6.6248  -17.3387  -53.7491 C.3       21 UNK        -0.1800 
    117 C         -4.6846  -16.4327  -55.0926 C.2       21 UNK         0.5000 
    118 O         -5.0179  -15.8221  -56.1091 O.2       21 UNK        -0.5000 
    119 N         -3.6129  -17.2291  -55.0189 N.am      22 UNK        -0.5000 
    120 CA        -2.6135  -17.4094  -56.0840 C.3       22 UNK         0.1400 
    121 C         -1.4577  -16.3636  -56.0606 C.2       22 UNK         0.5000 
    122 N         -1.4377  -15.3928  -55.1544 N.am      22 UNK        -0.7600 
    123 O         -0.5644  -16.4185  -56.9014 O.2       22 UNK        -0.5000 
    124 C124       -2.0995  -18.8748  -56.1560 C.3       23 UNK        -0.0398 
    125 S125       -1.5978  -19.5716  -54.5461 S.3       23 UNK        -0.2404 
    126 C126        0.1976  -19.2960  -54.5512 C.3       23 UNK        -0.0205 
    127 H127       -3.6199  -12.5814  -47.1530 H         1 UNK         0.0600 
    128 H128       -2.5395  -12.2779  -45.7879 H         1 UNK         0.0600 
    129 H129       -2.6065  -13.8829  -46.5345 H         1 UNK         0.0600 
    130 H130       -0.5026  -14.0950  -47.3085 H         1 UNK         0.3000 
    131 H131        0.2743  -12.8816  -49.7514 H         1 UNK         0.0600 
    132 H132        2.4223  -14.1632  -49.3456 H         1 UNK         0.0800 
    133 H133        1.8509  -14.6018  -47.7581 H         1 UNK         0.0800 
    134 H134        1.6497  -15.4860  -51.6119 H         1 UNK         0.0800 
    135 H135        2.7796  -16.2073  -50.4853 H         1 UNK         0.0800 
    136 H136        0.7598  -16.9550  -53.2769 H         1 UNK         0.1150 
    137 H137        0.7675  -21.2009  -52.6900 H         1 UNK         0.1150 
    138 H138        2.0787  -18.5998  -49.5434 H         1 UNK         0.1150 
    139 H139        1.6887  -22.1498  -50.7066 H         1 UNK         0.0800 
    140 H140        2.7731  -21.1462  -49.7735 H         1 UNK         0.0800 
    141 H141        1.7642  -23.4460  -48.6201 H         1 UNK         0.0800 
    142 H142        2.3465  -22.3631  -47.3933 H         1 UNK         0.0800 
    143 H143        1.2130  -24.3699  -46.5608 H         1 UNK         0.0600 
    144 H144        0.5167  -21.7668  -45.5689 H         1 UNK         0.3000 
    145 H145       -0.4528  -23.1952  -42.3586 H         1 UNK         0.0600 
    146 H146        1.2186  -21.5426  -41.6669 H         1 UNK         0.0600 
    147 H147        2.0314  -22.8468  -42.5144 H         1 UNK         0.0600 
    148 H148        1.7576  -21.3116  -43.3289 H         1 UNK         0.0600 
    149 H149       -0.5907  -20.5077  -43.2151 H         1 UNK         0.3000 
    150 H150       -3.9626  -20.5788  -44.4444 H         1 UNK         0.0600 
    151 H151       -4.1356  -20.4693  -41.9483 H         1 UNK         0.0600 
    152 H152       -4.2355  -18.8736  -42.6766 H         1 UNK         0.0600 
    153 H153       -2.7430  -19.3941  -41.8956 H         1 UNK         0.0600 
    154 H154       -2.2018  -18.3996  -44.1150 H         1 UNK         0.3000 
    155 H155       -0.6225  -18.5988  -47.3542 H         1 UNK         0.0600 
    156 H156       -2.4498  -16.6125  -45.8957 H         1 UNK         0.0600 
    157 H157       -2.8485  -17.3879  -47.4170 H         1 UNK         0.0600 
    158 H158       -1.4763  -16.2957  -47.3276 H         1 UNK         0.0600 
    159 H159       -0.1303  -16.8507  -45.1723 H         1 UNK         0.3000 
    160 H160        2.4484  -18.7165  -43.5586 H         1 UNK         0.0600 
    161 H161        2.3701  -16.1223  -45.1943 H         1 UNK         0.0600 
    162 H162        3.4975  -17.4509  -45.4177 H         1 UNK         0.0600 
    163 H163        3.5443  -16.5077  -43.9362 H         1 UNK         0.0600 
    164 H164        1.1248  -16.2165  -43.0181 H         1 UNK         0.3000 
    165 H165       -1.3054  -17.5395  -40.7527 H         1 UNK         0.0600 
    166 H166       -0.1609  -15.9858  -39.1996 H         1 UNK         0.0600 
    167 H167        0.8143  -17.4276  -39.4320 H         1 UNK         0.0600 
    168 H168        1.2577  -15.9324  -40.2467 H         1 UNK         0.0600 
    169 H169       -0.6340  -14.8661  -41.4583 H         1 UNK         0.3000 
    170 H170       -2.6446  -14.5757  -44.3603 H         1 UNK         0.0600 
    171 H171       -4.3062  -14.3923  -42.5075 H         1 UNK         0.0600 
    172 H172       -3.1417  -13.4993  -41.5357 H         1 UNK         0.0600 
    173 H173       -3.7614  -12.8079  -43.0354 H         1 UNK         0.0600 
    174 H174       -1.2414  -12.6004  -42.8974 H         1 UNK         0.3000 
    175 H175        1.1049  -12.3011  -42.9363 H         1 UNK         0.0600 
    176 H176        2.4388  -13.5430  -45.3881 H         1 UNK         0.0600 
    177 H177        3.1698  -12.2914  -44.3853 H         1 UNK         0.0600 
    178 H178        2.7813  -13.8619  -43.6999 H         1 UNK         0.0600 
    179 H179        1.0875  -11.3475  -45.7030 H         1 UNK         0.3000 
    180 H180       -1.6813   -9.5795  -45.5888 H         1 UNK         0.0600 
    181 H181        0.4176   -7.7148  -44.3803 H         1 UNK         0.0600 
    182 H182       -1.2544   -7.8976  -43.8837 H         1 UNK         0.0600 
    183 H183       -0.8867   -7.2004  -45.4519 H         1 UNK         0.0600 
    184 H184       -0.5079   -9.8759  -47.4003 H         1 UNK         0.3000 
    185 H185        1.2133   -8.6218  -49.0767 H         1 UNK         0.0600 
    186 H186        3.5683   -8.2182  -48.4773 H         1 UNK         0.0600 
    187 H187        3.7999   -9.9051  -48.0433 H         1 UNK         0.0600 
    188 H188        3.4873   -9.4567  -49.7193 H         1 UNK         0.0600 
    189 H189        0.5099  -10.6587  -49.6119 H         1 UNK         0.3000 
    190 H190       -1.7988  -22.5294  -46.6295 H         1 UNK         0.3000 
    191 H191       -3.2043  -24.2992  -48.4098 H         1 UNK         0.0600 
    192 H192       -4.2458  -22.3798  -46.2589 H         1 UNK         0.0600 
    193 H193       -5.1963  -23.0869  -47.5646 H         1 UNK         0.0600 
    194 H194       -3.9016  -21.9604  -47.9366 H         1 UNK         0.0600 
    195 H195       -2.2207  -24.6868  -45.1037 H         1 UNK         0.3000 
    196 H196       -4.1596  -26.8758  -44.5919 H         1 UNK         0.0600 
    197 H197       -3.0874  -26.9473  -42.3652 H         1 UNK         0.0600 
    198 H198       -3.6385  -25.3187  -42.7297 H         1 UNK         0.0600 
    199 H199       -1.9273  -25.7159  -42.8438 H         1 UNK         0.0600 
    200 H200       -0.6474  -26.2935  -45.0790 H         1 UNK         0.3000 
    201 H201        0.1646  -28.9974  -44.8214 H         1 UNK         0.0600 
    202 H202        1.6691  -27.0307  -44.5135 H         1 UNK         0.0600 
    203 H203        1.5598  -26.6675  -46.2360 H         1 UNK         0.0600 
    204 H204        2.3253  -28.1545  -45.6949 H         1 UNK         0.0600 
    205 H205       -0.8653  -27.1380  -47.6978 H         1 UNK         0.3000 
    206 H206       -0.7588  -29.6056  -49.3642 H         1 UNK         0.0600 
    207 H207        1.1724  -28.1023  -49.9548 H         1 UNK         0.0600 
    208 H208       -0.0121  -28.1463  -51.2520 H         1 UNK         0.0600 
    209 H209        0.0586  -26.7539  -50.1791 H         1 UNK         0.0600 
    210 H210       -2.2361  -29.4312  -51.2290 H         1 UNK         0.3000 
    211 H211       -4.8607  -28.4739  -50.4900 H         1 UNK         0.0600 
    212 H212       -3.7829  -29.6528  -53.1125 H         1 UNK         0.0600 
    213 H213       -5.4817  -29.4171  -52.7216 H         1 UNK         0.0600 
    214 H214       -4.5266  -30.5667  -51.7991 H         1 UNK         0.0600 
    215 H215       -6.0593  -26.8407  -51.4312 H         1 UNK         0.3000 
    216 H216       -6.5720  -24.8352  -52.1852 H         1 UNK         0.0600 
    217 H217       -5.7621  -24.1008  -54.4192 H         1 UNK         0.0600 
    218 H218       -6.2198  -25.7925  -54.4346 H         1 UNK         0.0600 
    219 H219       -4.5191  -25.3502  -54.4108 H         1 UNK         0.0600 
    220 H220       -3.7289  -23.6512  -53.5543 H         1 UNK         0.3000 
    221 H221       -2.2620  -22.0862  -53.0654 H         1 UNK         0.0600 
    222 H222       -2.0994  -23.3161  -50.2631 H         1 UNK         0.0600 
    223 H223       -1.2762  -23.9369  -51.6866 H         1 UNK         0.0600 
    224 H224       -0.8700  -22.3486  -51.0727 H         1 UNK         0.0600 
    225 H225       -2.1611  -21.1250  -50.0283 H         1 UNK         0.3000 
    226 H226       -2.7382  -19.3769  -48.8523 H         1 UNK         0.0600 
    227 H227       -5.1333  -20.3349  -48.9412 H         1 UNK         0.0600 
    228 H228       -5.0308  -18.6157  -48.6331 H         1 UNK         0.0600 
    229 H229       -5.4664  -19.1960  -50.2356 H         1 UNK         0.0600 
    230 H230       -4.0944  -16.9598  -49.4331 H         1 UNK         0.3000 
    231 H231       -2.0299  -15.6351  -50.9379 H         1 UNK         0.0600 
    232 H232       -3.2599  -13.5974  -50.2671 H         1 UNK         0.0600 
    233 H233       -3.1133  -14.6904  -48.8994 H         1 UNK         0.0600 
    234 H234       -4.6466  -14.5571  -49.7594 H         1 UNK         0.0600 
    235 H235       -5.0224  -17.0306  -51.8946 H         1 UNK         0.3000 
    236 H236       -5.9946  -15.2905  -53.8492 H         1 UNK         0.0600 
    237 H237       -7.2916  -17.1720  -52.9029 H         1 UNK         0.0600 
    238 H238       -7.2366  -17.3182  -54.6521 H         1 UNK         0.0600 
    239 H239       -6.2085  -18.3431  -53.6565 H         1 UNK         0.0600 
    240 H240       -3.3986  -17.6837  -54.1410 H         1 UNK         0.3000 
    241 H241       -3.1112  -17.2262  -57.0379 H         1 UNK         0.0600 
    242 H242       -0.6861  -14.7228  -55.1739 H         1 UNK         0.3800 
    243 H243       -2.1758  -15.2899  -54.4662 H         1 UNK         0.3800 
    244 H244       -2.9047  -19.5067  -56.5326 H         1 UNK         0.0800 
    245 H245       -1.2901  -18.9841  -56.8798 H         1 UNK         0.0800 
    246 H246        0.6928  -20.1478  -55.0191 H         1 UNK         0.0800 
    247 H247        0.4457  -18.4252  -55.1586 H         1 UNK         0.0800 
@<TRIPOS>BOND
     1    1    2 1    
     2    1  127 1    
     3    1  128 1    
     4    1  129 1    
     5    2    3 2    
     6    2    4 am   BACKBONE|DICT|INTERRES
     7    4    5 1    
     8    4  130 1    
     9    5    6 1    
    10    5   65 1    
    11    5  131 1    
    12    6    7 1    
    13    6  132 1    
    14    6  133 1    
    15    7    8 1    
    16    8    9 1    
    17    8  134 1    
    18    8  135 1    
    19    9   10 ar   
    20    9   14 ar   
    21   10   11 ar   
    22   10  136 1    
    23   11   12 ar   
    24   11  126 1    
    25   12   13 ar   
    26   12  137 1    
    27   13   14 ar   
    28   13   15 1    
    29   14  138 1    
    30   15   16 1    
    31   15  139 1    
    32   15  140 1    
    33   16   17 1    
    34   17   18 1    
    35   17  141 1    
    36   17  142 1    
    37   18   19 1    
    38   18   67 1    
    39   18  143 1    
    40   19   20 am   BACKBONE|DICT|INTERRES
    41   19  144 1    
    42   20   21 2    
    43   20   22 1    
    44   22   23 1    
    45   22   24 1    
    46   22  145 1    
    47   23  146 1    
    48   23  147 1    
    49   23  148 1    
    50   24   25 am   BACKBONE|DICT|INTERRES
    51   24  149 1    
    52   25   26 2    
    53   25   27 1    
    54   27   28 1    
    55   27   29 1    
    56   27  150 1    
    57   28  151 1    
    58   28  152 1    
    59   28  153 1    
    60   29   30 am   BACKBONE|DICT|INTERRES
    61   29  154 1    
    62   30   31 2    
    63   30   32 1    
    64   32   33 1    
    65   32   34 1    
    66   32  155 1    
    67   33  156 1    
    68   33  157 1    
    69   33  158 1    
    70   34   35 am   BACKBONE|DICT|INTERRES
    71   34  159 1    
    72   35   36 2    
    73   35   37 1    
    74   37   38 1    
    75   37   39 1    
    76   37  160 1    
    77   38  161 1    
    78   38  162 1    
    79   38  163 1    
    80   39   40 am   BACKBONE|DICT|INTERRES
    81   39  164 1    
    82   40   41 2    
    83   40   42 1    
    84   42   43 1    
    85   42   44 1    
    86   42  165 1    
    87   43  166 1    
    88   43  167 1    
    89   43  168 1    
    90   44   45 am   BACKBONE|DICT|INTERRES
    91   44  169 1    
    92   45   46 2    
    93   45   47 1    
    94   47   48 1    
    95   47   49 1    
    96   47  170 1    
    97   48  171 1    
    98   48  172 1    
    99   48  173 1    
   100   49   50 am   BACKBONE|DICT|INTERRES
   101   49  174 1    
   102   50   51 2    
   103   50   52 1    
   104   52   53 1    
   105   52   54 1    
   106   52  175 1    
   107   53  176 1    
   108   53  177 1    
   109   53  178 1    
   110   54   55 am   BACKBONE|DICT|INTERRES
   111   54  179 1    
   112   55   56 2    
   113   55   57 1    
   114   57   58 1    
   115   57   59 1    
   116   57  180 1    
   117   58  181 1    
   118   58  182 1    
   119   58  183 1    
   120   59   60 am   BACKBONE|DICT|INTERRES
   121   59  184 1    
   122   60   61 2    
   123   60   62 1    
   124   62   63 1    
   125   62   64 1    
   126   62  185 1    
   127   63  186 1    
   128   63  187 1    
   129   63  188 1    
   130   64   65 am   BACKBONE|DICT|INTERRES
   131   64  189 1    
   132   65   66 2    
   133   67   68 2    
   134   67   69 am   BACKBONE|DICT|INTERRES
   135   69   70 1    
   136   69  190 1    
   137   70   71 1    
   138   70   72 1    
   139   70  191 1    
   140   71  192 1    
   141   71  193 1    
   142   71  194 1    
   143   72   73 2    
   144   72   74 am   BACKBONE|DICT|INTERRES
   145   74   75 1    
   146   74  195 1    
   147   75   76 1    
   148   75   77 1    
   149   75  196 1    
   150   76  197 1    
   151   76  198 1    
   152   76  199 1    
   153   77   78 2    
   154   77   79 am   BACKBONE|DICT|INTERRES
   155   79   80 1    
   156   79  200 1    
   157   80   81 1    
   158   80   82 1    
   159   80  201 1    
   160   81  202 1    
   161   81  203 1    
   162   81  204 1    
   163   82   83 2    
   164   82   84 am   BACKBONE|DICT|INTERRES
   165   84   85 1    
   166   84  205 1    
   167   85   86 1    
   168   85   87 1    
   169   85  206 1    
   170   86  207 1    
   171   86  208 1    
   172   86  209 1    
   173   87   88 2    
   174   87   89 am   BACKBONE|DICT|INTERRES
   175   89   90 1    
   176   89  210 1    
   177   90   91 1    
   178   90   92 1    
   179   90  211 1    
   180   91  212 1    
   181   91  213 1    
   182   91  214 1    
   183   92   93 2    
   184   92   94 am   BACKBONE|DICT|INTERRES
   185   94   95 1    
   186   94  215 1    
   187   95   96 1    
   188   95   97 1    
   189   95  216 1    
   190   96  217 1    
   191   96  218 1    
   192   96  219 1    
   193   97   98 2    
   194   97   99 am   BACKBONE|DICT|INTERRES
   195   99  100 1    
   196   99  220 1    
   197  100  101 1    
   198  100  102 1    
   199  100  221 1    
   200  101  222 1    
   201  101  223 1    
   202  101  224 1    
   203  102  103 2    
   204  102  104 am   BACKBONE|DICT|INTERRES
   205  104  105 1    
   206  104  225 1    
   207  105  106 1    
   208  105  107 1    
   209  105  226 1    
   210  106  227 1    
   211  106  228 1    
   212  106  229 1    
   213  107  108 2    
   214  107  109 am   BACKBONE|DICT|INTERRES
   215  109  110 1    
   216  109  230 1    
   217  110  111 1    
   218  110  112 1    
   219  110  231 1    
   220  111  232 1    
   221  111  233 1    
   222  111  234 1    
   223  112  113 2    
   224  112  114 am   BACKBONE|DICT|INTERRES
   225  114  115 1    
   226  114  235 1    
   227  115  116 1    
   228  115  117 1    
   229  115  236 1    
   230  116  237 1    
   231  116  238 1    
   232  116  239 1    
   233  117  118 2    
   234  117  119 am   BACKBONE|DICT|INTERRES
   235  119  120 1    
   236  119  240 1    
   237  120  121 1    
   238  120  124 1    
   239  120  241 1    
   240  121  122 am   BACKBONE|DICT|INTERRES
   241  121  123 2    
   242  122  242 1    
   243  122  243 1    
   244  124  125 1    
   245  124  244 1    
   246  124  245 1    
   247  125  126 1    
   248  126  246 1    
   249  126  247 1    
@<TRIPOS>SUBSTRUCTURE
     1 UNK         1 GROUP             0       ****    0 ROOT    
