@<TRIPOS>MOLECULE
3R540
247   249    1
SMALL
USER_CHARGES


@<TRIPOS>ATOM
      1 CA          7.0173  -10.0371  -47.7801 C.3       0 UNK        -0.1800 
      2 C           5.5814  -10.4166  -47.4489 C.2       0 UNK         0.5000 
      3 O           5.1182  -10.1614  -46.3368 O.2       0 UNK        -0.5000 
      4 N           4.8643  -11.0075  -48.4124 N.am      1 UNK        -0.5000 
      5 CA          3.4805  -11.4917  -48.2943 C.3       1 UNK         0.1400 
      6 C6          3.1874  -12.6329  -49.3028 C.3       23 UNK        -0.0398 
      7 S7          4.2836  -14.0717  -49.0533 S.3       23 UNK        -0.2404 
      8 C8          3.2392  -15.1466  -48.0230 C.3       23 UNK        -0.0205 
      9 C9          2.3121  -16.0125  -48.8612 C.ar      23 UNK        -0.0193 
     10 C10         1.0079  -15.5952  -49.1445 C.ar      23 UNK        -0.1150 
     11 C11         0.1571  -16.3993  -49.9075 C.ar      23 UNK        -0.0193 
     12 C12         0.6149  -17.6312  -50.3820 C.ar      23 UNK        -0.1150 
     13 C13         1.9111  -18.0658  -50.0932 C.ar      23 UNK        -0.0193 
     14 C14         2.7565  -17.2501  -49.3365 C.ar      23 UNK        -0.1150 
     15 C15         2.3981  -19.4149  -50.6012 C.3       23 UNK        -0.0205 
     16 S16         2.3585  -20.6896  -49.3019 S.3       23 UNK        -0.2404 
     17 C17         0.5728  -20.7775  -48.9443 C.3       23 UNK        -0.0398 
     18 CA          0.2040  -21.9901  -48.0602 C.3       11 UNK         0.1400 
     19 N           0.7860  -21.8989  -46.7138 N.am      11 UNK        -0.5000 
     20 C           0.8245  -22.9100  -45.8343 C.2       10 UNK         0.5000 
     21 O           0.3933  -24.0361  -46.0775 O.2       10 UNK        -0.5000 
     22 CA          1.3942  -22.6078  -44.4360 C.3       10 UNK         0.1400 
     23 CB          2.9303  -22.6021  -44.4491 C.3       10 UNK        -0.1800 
     24 N           0.8923  -21.3432  -43.8988 N.am      10 UNK        -0.5000 
     25 C          -0.3778  -21.1359  -43.5229 C.2       9 UNK         0.5000 
     26 O          -1.2331  -22.0208  -43.5035 O.2       9 UNK        -0.5000 
     27 CA         -0.7739  -19.6958  -43.1393 C.3       9 UNK         0.1400 
     28 CB         -0.5161  -19.4331  -41.6486 C.3       9 UNK        -0.1800 
     29 N          -0.0889  -18.6795  -43.9389 N.am      9 UNK        -0.5000 
     30 C          -0.2237  -18.5317  -45.2646 C.2       8 UNK         0.5000 
     31 O          -0.9761  -19.2141  -45.9563 O.2       8 UNK        -0.5000 
     32 CA          0.6822  -17.4858  -45.9343 C.3       8 UNK         0.1400 
     33 CB          0.0894  -16.0762  -45.7780 C.3       8 UNK        -0.1800 
     34 N           2.0434  -17.5262  -45.3924 N.am      8 UNK        -0.5000 
     35 C           2.8816  -18.5606  -45.5582 C.2       7 UNK         0.5000 
     36 O           2.5985  -19.5636  -46.2097 O.2       7 UNK        -0.5000 
     37 CA          4.2351  -18.4964  -44.8254 C.3       7 UNK         0.1400 
     38 CB          5.2553  -17.6624  -45.6138 C.3       7 UNK        -0.1800 
     39 N           4.1156  -17.9600  -43.4702 N.am      7 UNK        -0.5000 
     40 C           3.4794  -18.5761  -42.4638 C.2       6 UNK         0.5000 
     41 O           2.9918  -19.7019  -42.5537 O.2       6 UNK        -0.5000 
     42 CA          3.3129  -17.7746  -41.1560 C.3       6 UNK         0.1400 
     43 CB          4.5066  -18.0154  -40.2205 C.3       6 UNK        -0.1800 
     44 N           3.1470  -16.3318  -41.3720 N.am      6 UNK        -0.5000 
     45 C           2.1607  -15.7808  -42.0925 C.2       5 UNK         0.5000 
     46 O           1.2738  -16.4439  -42.6351 O.2       5 UNK        -0.5000 
     47 CA          2.2296  -14.2533  -42.2945 C.3       5 UNK         0.1400 
     48 CB          3.4377  -13.8809  -43.1721 C.3       5 UNK        -0.1800 
     49 N           1.0308  -13.7192  -42.9379 N.am      5 UNK        -0.5000 
     50 C          -0.1916  -13.6485  -42.4015 C.2       4 UNK         0.5000 
     51 O          -0.4427  -13.9337  -41.2288 O.2       4 UNK        -0.5000 
     52 CA         -1.3048  -13.1400  -43.3437 C.3       4 UNK         0.1400 
     53 CB         -2.7135  -13.3452  -42.7585 C.3       4 UNK        -0.1800 
     54 N          -1.1358  -11.7252  -43.6811 N.am      4 UNK        -0.5000 
     55 C          -0.2153  -11.2215  -44.5127 C.2       3 UNK         0.5000 
     56 O           0.6040  -11.9110  -45.1303 O.2       3 UNK        -0.5000 
     57 CA         -0.2037   -9.6921  -44.6622 C.3       3 UNK         0.1400 
     58 CB          0.1808   -8.9969  -43.3429 C.3       3 UNK        -0.1800 
     59 N           0.7568   -9.3260  -45.6951 N.am      3 UNK        -0.5000 
     60 C           0.6860   -8.2645  -46.5049 C.2       2 UNK         0.5000 
     61 O          -0.2251   -7.4365  -46.4632 O.2       2 UNK        -0.5000 
     62 CA          1.8277   -8.0834  -47.5260 C.3       2 UNK         0.1400 
     63 CB          2.7023   -6.8774  -47.1474 C.3       2 UNK        -0.1800 
     64 N           2.6888   -9.2632  -47.6302 N.am      2 UNK        -0.5000 
     65 C           2.4506  -10.3388  -48.3896 C.2       1 UNK         0.5000 
     66 O           1.4754  -10.4315  -49.1370 O.2       1 UNK        -0.5000 
     67 C          -1.3275  -22.1996  -48.0405 C.2       11 UNK         0.5000 
     68 O          -1.8598  -22.8031  -48.9708 O.2       11 UNK        -0.5000 
     69 N          -2.0048  -21.7250  -46.9851 N.am      12 UNK        -0.5000 
     70 CA         -3.4430  -21.8862  -46.7598 C.3       12 UNK         0.1400 
     71 CB         -3.8935  -20.9395  -45.6373 C.3       12 UNK        -0.1800 
     72 C          -3.8769  -23.3377  -46.4554 C.2       12 UNK         0.5000 
     73 O          -5.0687  -23.6383  -46.5524 O.2       12 UNK        -0.5000 
     74 N          -2.9274  -24.2181  -46.1055 N.am      13 UNK        -0.5000 
     75 CA         -3.1556  -25.6483  -45.8893 C.3       13 UNK         0.1400 
     76 CB         -1.8858  -26.2733  -45.2925 C.3       13 UNK        -0.1800 
     77 C          -3.5621  -26.3851  -47.1823 C.2       13 UNK         0.5000 
     78 O          -3.3088  -25.8936  -48.2847 O.2       13 UNK        -0.5000 
     79 N          -4.1862  -27.5609  -47.0169 N.am      14 UNK        -0.5000 
     80 CA         -4.6915  -28.4395  -48.0822 C.3       14 UNK         0.1400 
     81 CB         -3.5234  -29.0590  -48.8787 C.3       14 UNK        -0.1800 
     82 C          -5.7272  -27.7331  -48.9828 C.2       14 UNK         0.5000 
     83 O          -5.6454  -27.8152  -50.2102 O.2       14 UNK        -0.5000 
     84 N          -6.6580  -27.0117  -48.3378 N.am      15 UNK        -0.5000 
     85 CA         -7.6914  -26.1634  -48.9422 C.3       15 UNK         0.1400 
     86 CB         -8.7465  -27.0252  -49.6679 C.3       15 UNK        -0.1800 
     87 C          -7.0800  -25.0730  -49.8446 C.2       15 UNK         0.5000 
     88 O          -7.4655  -24.9435  -51.0071 O.2       15 UNK        -0.5000 
     89 N          -6.0961  -24.3445  -49.2972 N.am      16 UNK        -0.5000 
     90 CA         -5.2810  -23.3296  -49.9695 C.3       16 UNK         0.1400 
     91 CB         -6.1298  -22.0870  -50.2980 C.3       16 UNK        -0.1800 
     92 C          -4.5216  -23.8936  -51.1839 C.2       16 UNK         0.5000 
     93 O          -4.5797  -23.3171  -52.2714 O.2       16 UNK        -0.5000 
     94 N          -3.8571  -25.0397  -50.9769 N.am      17 UNK        -0.5000 
     95 CA         -3.1357  -25.8319  -51.9766 C.3       17 UNK         0.1400 
     96 CB         -1.8393  -25.1049  -52.3905 C.3       17 UNK        -0.1800 
     97 C          -4.0307  -26.2154  -53.1760 C.2       17 UNK         0.5000 
     98 O          -3.6374  -26.0271  -54.3277 O.2       17 UNK        -0.5000 
     99 N          -5.2391  -26.7094  -52.8670 N.am      18 UNK        -0.5000 
    100 CA        -6.3428  -26.9976  -53.7886 C.3       18 UNK         0.1400 
    101 CB        -5.9927  -28.1810  -54.7149 C.3       18 UNK        -0.1800 
    102 C         -6.8153  -25.7391  -54.5510 C.2       18 UNK         0.5000 
    103 O         -6.9219  -25.7550  -55.7790 O.2       18 UNK        -0.5000 
    104 N         -7.0881  -24.6713  -53.7874 N.am      19 UNK        -0.5000 
    105 CA        -7.5715  -23.3531  -54.2125 C.3       19 UNK         0.1400 
    106 CB        -9.0110  -23.4579  -54.7577 C.3       19 UNK        -0.1800 
    107 C         -6.6179  -22.6020  -55.1685 C.2       19 UNK         0.5000 
    108 O         -7.0787  -21.8389  -56.0203 O.2       19 UNK        -0.5000 
    109 N         -5.3078  -22.8199  -55.0082 N.am      20 UNK        -0.5000 
    110 CA        -4.2524  -22.1536  -55.7704 C.3       20 UNK         0.1400 
    111 CB        -3.1427  -23.1689  -56.0807 C.3       20 UNK        -0.1800 
    112 C         -3.6719  -20.9468  -55.0122 C.2       20 UNK         0.5000 
    113 O         -3.2618  -19.9754  -55.6494 O.2       20 UNK        -0.5000 
    114 N         -3.6335  -21.0303  -53.6772 N.am      21 UNK        -0.5000 
    115 CA        -3.1120  -20.0024  -52.7798 C.3       21 UNK         0.1400 
    116 CB        -2.3263  -20.7011  -51.6557 C.3       21 UNK        -0.1800 
    117 C         -4.2445  -19.1317  -52.2034 C.2       21 UNK         0.5000 
    118 O         -5.4170  -19.3123  -52.5426 O.2       21 UNK        -0.5000 
    119 N         -3.8611  -18.2004  -51.3243 N.am      22 UNK        -0.5000 
    120 CA        -4.7604  -17.4113  -50.4727 C.3       22 UNK         0.1400 
    121 C         -5.4605  -18.2671  -49.3769 C.2       22 UNK         0.5000 
    122 N         -6.6645  -17.8912  -48.9669 N.am      22 UNK        -0.7600 
    123 O         -4.9148  -19.2455  -48.8728 O.2       22 UNK        -0.5000 
    124 C124       -4.0278  -16.1852  -49.8617 C.3       23 UNK        -0.0398 
    125 S125       -2.4504  -16.5877  -49.0230 S.3       23 UNK        -0.2404 
    126 C126       -1.2541  -15.9389  -50.2293 C.3       23 UNK        -0.0205 
    127 H127        7.7037  -10.5359  -47.0960 H         1 UNK         0.0600 
    128 H128        7.1538   -8.9605  -47.6776 H         1 UNK         0.0600 
    129 H129        7.2866  -10.3193  -48.7981 H         1 UNK         0.0600 
    130 H130        5.2980  -11.1709  -49.3099 H         1 UNK         0.3000 
    131 H131        3.3565  -11.9127  -47.2939 H         1 UNK         0.0600 
    132 H132        3.3162  -12.2784  -50.3267 H         1 UNK         0.0800 
    133 H133        2.1504  -12.9598  -49.2284 H         1 UNK         0.0800 
    134 H134        3.8873  -15.7883  -47.4286 H         1 UNK         0.0800 
    135 H135        2.6746  -14.5449  -47.3099 H         1 UNK         0.0800 
    136 H136        0.6490  -14.6487  -48.7666 H         1 UNK         0.1150 
    137 H137       -0.0413  -18.2555  -50.9709 H         1 UNK         0.1150 
    138 H138        3.7594  -17.5842  -49.1107 H         1 UNK         0.1150 
    139 H139        1.8013  -19.7456  -51.4527 H         1 UNK         0.0800 
    140 H140        3.4211  -19.3164  -50.9671 H         1 UNK         0.0800 
    141 H141        0.0551  -20.8350  -49.9020 H         1 UNK         0.0800 
    142 H142        0.2553  -19.8474  -48.4694 H         1 UNK         0.0800 
    143 H143        0.6248  -22.8811  -48.5317 H         1 UNK         0.0600 
    144 H144        1.2161  -21.0126  -46.4663 H         1 UNK         0.3000 
    145 H145        1.0712  -23.4081  -43.7667 H         1 UNK         0.0600 
    146 H146        3.3188  -23.5589  -44.7998 H         1 UNK         0.0600 
    147 H147        3.3300  -21.8285  -45.1037 H         1 UNK         0.0600 
    148 H148        3.3320  -22.4341  -43.4497 H         1 UNK         0.0600 
    149 H149        1.5567  -20.5821  -43.8193 H         1 UNK         0.3000 
    150 H150       -1.8451  -19.5886  -43.3217 H         1 UNK         0.0600 
    151 H151       -1.0815  -20.1292  -41.0279 H         1 UNK         0.0600 
    152 H152       -0.8178  -18.4241  -41.3665 H         1 UNK         0.0600 
    153 H153        0.5371  -19.5511  -41.3955 H         1 UNK         0.0600 
    154 H154        0.5226  -18.0365  -43.4434 H         1 UNK         0.3000 
    155 H155        0.7355  -17.7189  -46.9997 H         1 UNK         0.0600 
    156 H156        0.7527  -15.3112  -46.1774 H         1 UNK         0.0600 
    157 H157       -0.1092  -15.8337  -44.7354 H         1 UNK         0.0600 
    158 H158       -0.8569  -15.9973  -46.3141 H         1 UNK         0.0600 
    159 H159        2.3034  -16.7797  -44.7661 H         1 UNK         0.3000 
    160 H160        4.6166  -19.5174  -44.7556 H         1 UNK         0.0600 
    161 H161        5.0114  -16.6005  -45.5914 H         1 UNK         0.0600 
    162 H162        5.2970  -17.9741  -46.6586 H         1 UNK         0.0600 
    163 H163        6.2571  -17.7799  -45.2005 H         1 UNK         0.0600 
    164 H164        4.4969  -17.0407  -43.3054 H         1 UNK         0.3000 
    165 H165        2.4118  -18.1397  -40.6596 H         1 UNK         0.0600 
    166 H166        4.3585  -17.5264  -39.2575 H         1 UNK         0.0600 
    167 H167        4.6405  -19.0803  -40.0252 H         1 UNK         0.0600 
    168 H168        5.4370  -17.6406  -40.6490 H         1 UNK         0.0600 
    169 H169        3.8462  -15.7325  -40.9573 H         1 UNK         0.3000 
    170 H170        2.3369  -13.7817  -41.3158 H         1 UNK         0.0600 
    171 H171        4.3771  -14.1913  -42.7135 H         1 UNK         0.0600 
    172 H172        3.3805  -14.3489  -44.1560 H         1 UNK         0.0600 
    173 H173        3.4972  -12.8024  -43.3214 H         1 UNK         0.0600 
    174 H174        1.1349  -13.3908  -43.8918 H         1 UNK         0.3000 
    175 H175       -1.2456  -13.7230  -44.2649 H         1 UNK         0.0600 
    176 H176       -3.4833  -13.0526  -43.4728 H         1 UNK         0.0600 
    177 H177       -2.8841  -14.3939  -42.5114 H         1 UNK         0.0600 
    178 H178       -2.8622  -12.7637  -41.8478 H         1 UNK         0.0600 
    179 H179       -1.7480  -11.0847  -43.1969 H         1 UNK         0.3000 
    180 H180       -1.2053   -9.3796  -44.9648 H         1 UNK         0.0600 
    181 H181        1.1652   -9.3136  -42.9960 H         1 UNK         0.0600 
    182 H182       -0.5350   -9.2194  -42.5511 H         1 UNK         0.0600 
    183 H183        0.2016   -7.9132  -43.4599 H         1 UNK         0.0600 
    184 H184        1.4943  -10.0036  -45.8368 H         1 UNK         0.3000 
    185 H185        1.3720   -7.8835  -48.4980 H         1 UNK         0.0600 
    186 H186        2.1083   -5.9643  -47.0899 H         1 UNK         0.0600 
    187 H187        3.1835   -7.0184  -46.1787 H         1 UNK         0.0600 
    188 H188        3.4835   -6.7089  -47.8889 H         1 UNK         0.0600 
    189 H189        3.5147   -9.2841  -47.0389 H         1 UNK         0.3000 
    190 H190       -1.5056  -21.1478  -46.3168 H         1 UNK         0.3000 
    191 H191       -3.9542  -21.5710  -47.6698 H         1 UNK         0.0600 
    192 H192       -3.6501  -19.9035  -45.8743 H         1 UNK         0.0600 
    193 H193       -4.9736  -20.9910  -45.4954 H         1 UNK         0.0600 
    194 H194       -3.4267  -21.1886  -44.6854 H         1 UNK         0.0600 
    195 H195       -1.9648  -23.9079  -46.0882 H         1 UNK         0.3000 
    196 H196       -3.9669  -25.7492  -45.1656 H         1 UNK         0.0600 
    197 H197       -2.0572  -27.3103  -45.0017 H         1 UNK         0.0600 
    198 H198       -1.5590  -25.7360  -44.4017 H         1 UNK         0.0600 
    199 H199       -1.0634  -26.2684  -46.0086 H         1 UNK         0.0600 
    200 H200       -4.3492  -27.8877  -46.0744 H         1 UNK         0.3000 
    201 H201       -5.2223  -29.2553  -47.5896 H         1 UNK         0.0600 
    202 H202       -2.8248  -29.5716  -48.2176 H         1 UNK         0.0600 
    203 H203       -2.9652  -28.3066  -49.4361 H         1 UNK         0.0600 
    204 H204       -3.8875  -29.7938  -49.5977 H         1 UNK         0.0600 
    205 H205       -6.6177  -26.9947  -47.3285 H         1 UNK         0.3000 
    206 H206       -8.1926  -25.6439  -48.1242 H         1 UNK         0.0600 
    207 H207       -9.1752  -27.7701  -48.9978 H         1 UNK         0.0600 
    208 H208       -9.5675  -26.4080  -50.0348 H         1 UNK         0.0600 
    209 H209       -8.3250  -27.5496  -50.5261 H         1 UNK         0.0600 
    210 H210       -5.8401  -24.5203  -48.3322 H         1 UNK         0.3000 
    211 H211       -4.5113  -23.0281  -49.2652 H         1 UNK         0.0600 
    212 H212       -6.9089  -22.3014  -51.0287 H         1 UNK         0.0600 
    213 H213       -5.5066  -21.2947  -50.7076 H         1 UNK         0.0600 
    214 H214       -6.6067  -21.6883  -49.4027 H         1 UNK         0.0600 
    215 H215       -3.8285  -25.4079  -50.0281 H         1 UNK         0.3000 
    216 H216       -2.8546  -26.7658  -51.4884 H         1 UNK         0.0600 
    217 H217       -1.2466  -25.7162  -53.0718 H         1 UNK         0.0600 
    218 H218       -1.2177  -24.8894  -51.5213 H         1 UNK         0.0600 
    219 H219       -2.0465  -24.1593  -52.8918 H         1 UNK         0.0600 
    220 H220       -5.4465  -26.8658  -51.8834 H         1 UNK         0.3000 
    221 H221       -7.1821  -27.3085  -53.1645 H         1 UNK         0.0600 
    222 H222       -5.1827  -27.9358  -55.4023 H         1 UNK         0.0600 
    223 H223       -5.6907  -29.0554  -54.1386 H         1 UNK         0.0600 
    224 H224       -6.8544  -28.4710  -55.3172 H         1 UNK         0.0600 
    225 H225       -7.0000  -24.7804  -52.7783 H         1 UNK         0.3000 
    226 H226       -7.6117  -22.7489  -53.3058 H         1 UNK         0.0600 
    227 H227       -9.6641  -23.9665  -54.0484 H         1 UNK         0.0600 
    228 H228       -9.4367  -22.4698  -54.9358 H         1 UNK         0.0600 
    229 H229       -9.0474  -24.0050  -55.7002 H         1 UNK         0.0600 
    230 H230       -5.0132  -23.4101  -54.2367 H         1 UNK         0.3000 
    231 H231       -4.6485  -21.7923  -56.7217 H         1 UNK         0.0600 
    232 H232       -2.6773  -23.5467  -55.1700 H         1 UNK         0.0600 
    233 H233       -2.3576  -22.7172  -56.6883 H         1 UNK         0.0600 
    234 H234       -3.5338  -24.0233  -56.6336 H         1 UNK         0.0600 
    235 H235       -4.0383  -21.8469  -53.2246 H         1 UNK         0.3000 
    236 H236       -2.4267  -19.3463  -53.3205 H         1 UNK         0.0600 
    237 H237       -1.5592  -21.3630  -52.0582 H         1 UNK         0.0600 
    238 H238       -1.8245  -19.9784  -51.0132 H         1 UNK         0.0600 
    239 H239       -2.9803  -21.2980  -51.0200 H         1 UNK         0.0600 
    240 H240       -2.8884  -18.1491  -51.0639 H         1 UNK         0.3000 
    241 H241       -5.5493  -17.0249  -51.1213 H         1 UNK         0.0600 
    242 H242       -7.1219  -18.4300  -48.2486 H         1 UNK         0.3800 
    243 H243       -7.1357  -17.0909  -49.3594 H         1 UNK         0.3800 
    244 H244       -3.8347  -15.4564  -50.6498 H         1 UNK         0.0800 
    245 H245       -4.6724  -15.6669  -49.1497 H         1 UNK         0.0800 
    246 H246       -1.3048  -14.8489  -50.2371 H         1 UNK         0.0800 
    247 H247       -1.5241  -16.2662  -51.2344 H         1 UNK         0.0800 
@<TRIPOS>BOND
     1    1    2 1    
     2    1  127 1    
     3    1  128 1    
     4    1  129 1    
     5    2    3 2    
     6    2    4 am   BACKBONE|DICT|INTERRES
     7    4    5 1    
     8    4  130 1    
     9    5    6 1    
    10    5   65 1    
    11    5  131 1    
    12    6    7 1    
    13    6  132 1    
    14    6  133 1    
    15    7    8 1    
    16    8    9 1    
    17    8  134 1    
    18    8  135 1    
    19    9   10 ar   
    20    9   14 ar   
    21   10   11 ar   
    22   10  136 1    
    23   11   12 ar   
    24   11  126 1    
    25   12   13 ar   
    26   12  137 1    
    27   13   14 ar   
    28   13   15 1    
    29   14  138 1    
    30   15   16 1    
    31   15  139 1    
    32   15  140 1    
    33   16   17 1    
    34   17   18 1    
    35   17  141 1    
    36   17  142 1    
    37   18   19 1    
    38   18   67 1    
    39   18  143 1    
    40   19   20 am   BACKBONE|DICT|INTERRES
    41   19  144 1    
    42   20   21 2    
    43   20   22 1    
    44   22   23 1    
    45   22   24 1    
    46   22  145 1    
    47   23  146 1    
    48   23  147 1    
    49   23  148 1    
    50   24   25 am   BACKBONE|DICT|INTERRES
    51   24  149 1    
    52   25   26 2    
    53   25   27 1    
    54   27   28 1    
    55   27   29 1    
    56   27  150 1    
    57   28  151 1    
    58   28  152 1    
    59   28  153 1    
    60   29   30 am   BACKBONE|DICT|INTERRES
    61   29  154 1    
    62   30   31 2    
    63   30   32 1    
    64   32   33 1    
    65   32   34 1    
    66   32  155 1    
    67   33  156 1    
    68   33  157 1    
    69   33  158 1    
    70   34   35 am   BACKBONE|DICT|INTERRES
    71   34  159 1    
    72   35   36 2    
    73   35   37 1    
    74   37   38 1    
    75   37   39 1    
    76   37  160 1    
    77   38  161 1    
    78   38  162 1    
    79   38  163 1    
    80   39   40 am   BACKBONE|DICT|INTERRES
    81   39  164 1    
    82   40   41 2    
    83   40   42 1    
    84   42   43 1    
    85   42   44 1    
    86   42  165 1    
    87   43  166 1    
    88   43  167 1    
    89   43  168 1    
    90   44   45 am   BACKBONE|DICT|INTERRES
    91   44  169 1    
    92   45   46 2    
    93   45   47 1    
    94   47   48 1    
    95   47   49 1    
    96   47  170 1    
    97   48  171 1    
    98   48  172 1    
    99   48  173 1    
   100   49   50 am   BACKBONE|DICT|INTERRES
   101   49  174 1    
   102   50   51 2    
   103   50   52 1    
   104   52   53 1    
   105   52   54 1    
   106   52  175 1    
   107   53  176 1    
   108   53  177 1    
   109   53  178 1    
   110   54   55 am   BACKBONE|DICT|INTERRES
   111   54  179 1    
   112   55   56 2    
   113   55   57 1    
   114   57   58 1    
   115   57   59 1    
   116   57  180 1    
   117   58  181 1    
   118   58  182 1    
   119   58  183 1    
   120   59   60 am   BACKBONE|DICT|INTERRES
   121   59  184 1    
   122   60   61 2    
   123   60   62 1    
   124   62   63 1    
   125   62   64 1    
   126   62  185 1    
   127   63  186 1    
   128   63  187 1    
   129   63  188 1    
   130   64   65 am   BACKBONE|DICT|INTERRES
   131   64  189 1    
   132   65   66 2    
   133   67   68 2    
   134   67   69 am   BACKBONE|DICT|INTERRES
   135   69   70 1    
   136   69  190 1    
   137   70   71 1    
   138   70   72 1    
   139   70  191 1    
   140   71  192 1    
   141   71  193 1    
   142   71  194 1    
   143   72   73 2    
   144   72   74 am   BACKBONE|DICT|INTERRES
   145   74   75 1    
   146   74  195 1    
   147   75   76 1    
   148   75   77 1    
   149   75  196 1    
   150   76  197 1    
   151   76  198 1    
   152   76  199 1    
   153   77   78 2    
   154   77   79 am   BACKBONE|DICT|INTERRES
   155   79   80 1    
   156   79  200 1    
   157   80   81 1    
   158   80   82 1    
   159   80  201 1    
   160   81  202 1    
   161   81  203 1    
   162   81  204 1    
   163   82   83 2    
   164   82   84 am   BACKBONE|DICT|INTERRES
   165   84   85 1    
   166   84  205 1    
   167   85   86 1    
   168   85   87 1    
   169   85  206 1    
   170   86  207 1    
   171   86  208 1    
   172   86  209 1    
   173   87   88 2    
   174   87   89 am   BACKBONE|DICT|INTERRES
   175   89   90 1    
   176   89  210 1    
   177   90   91 1    
   178   90   92 1    
   179   90  211 1    
   180   91  212 1    
   181   91  213 1    
   182   91  214 1    
   183   92   93 2    
   184   92   94 am   BACKBONE|DICT|INTERRES
   185   94   95 1    
   186   94  215 1    
   187   95   96 1    
   188   95   97 1    
   189   95  216 1    
   190   96  217 1    
   191   96  218 1    
   192   96  219 1    
   193   97   98 2    
   194   97   99 am   BACKBONE|DICT|INTERRES
   195   99  100 1    
   196   99  220 1    
   197  100  101 1    
   198  100  102 1    
   199  100  221 1    
   200  101  222 1    
   201  101  223 1    
   202  101  224 1    
   203  102  103 2    
   204  102  104 am   BACKBONE|DICT|INTERRES
   205  104  105 1    
   206  104  225 1    
   207  105  106 1    
   208  105  107 1    
   209  105  226 1    
   210  106  227 1    
   211  106  228 1    
   212  106  229 1    
   213  107  108 2    
   214  107  109 am   BACKBONE|DICT|INTERRES
   215  109  110 1    
   216  109  230 1    
   217  110  111 1    
   218  110  112 1    
   219  110  231 1    
   220  111  232 1    
   221  111  233 1    
   222  111  234 1    
   223  112  113 2    
   224  112  114 am   BACKBONE|DICT|INTERRES
   225  114  115 1    
   226  114  235 1    
   227  115  116 1    
   228  115  117 1    
   229  115  236 1    
   230  116  237 1    
   231  116  238 1    
   232  116  239 1    
   233  117  118 2    
   234  117  119 am   BACKBONE|DICT|INTERRES
   235  119  120 1    
   236  119  240 1    
   237  120  121 1    
   238  120  124 1    
   239  120  241 1    
   240  121  122 am   BACKBONE|DICT|INTERRES
   241  121  123 2    
   242  122  242 1    
   243  122  243 1    
   244  124  125 1    
   245  124  244 1    
   246  124  245 1    
   247  125  126 1    
   248  126  246 1    
   249  126  247 1    
@<TRIPOS>SUBSTRUCTURE
     1 UNK         1 GROUP             0       ****    0 ROOT    
