@<TRIPOS>MOLECULE
3R540
247   249    1
SMALL
USER_CHARGES


@<TRIPOS>ATOM
      1 CA         -1.1401   -8.3816  -44.4203 C.3       0 UNK        -0.1800 
      2 C          -0.3292   -9.6222  -44.7607 C.2       0 UNK         0.5000 
      3 O           0.8340   -9.7211  -44.3699 O.2       0 UNK        -0.5000 
      4 N          -0.9397  -10.5874  -45.4605 N.am      1 UNK        -0.5000 
      5 CA         -0.3125  -11.8351  -45.9232 C.3       1 UNK         0.1400 
      6 C6         -1.1745  -12.5604  -46.9887 C.3       23 UNK        -0.0398 
      7 S7         -2.8820  -12.9537  -46.4744 S.3       23 UNK        -0.2404 
      8 C8         -3.7975  -12.6896  -48.0275 C.3       23 UNK        -0.0205 
      9 C9         -3.6049  -13.8246  -49.0275 C.ar      23 UNK        -0.0193 
     10 C10        -2.5278  -13.8116  -49.9206 C.ar      23 UNK        -0.1150 
     11 C11        -2.3805  -14.8151  -50.8842 C.ar      23 UNK        -0.0193 
     12 C12        -3.3319  -15.8402  -50.9447 C.ar      23 UNK        -0.1150 
     13 C13        -4.4126  -15.8698  -50.0609 C.ar      23 UNK        -0.0193 
     14 C14        -4.5423  -14.8597  -49.1022 C.ar      23 UNK        -0.1150 
     15 C15        -5.4574  -16.9720  -50.1896 C.3       23 UNK        -0.0205 
     16 S16        -5.7540  -17.8925  -48.6463 S.3       23 UNK        -0.2404 
     17 C17        -4.0748  -18.4213  -48.1632 C.3       23 UNK        -0.0398 
     18 CA         -3.4496  -19.5657  -48.9989 C.3       11 UNK         0.1400 
     19 N          -2.0611  -19.7854  -48.5901 N.am      11 UNK        -0.5000 
     20 C          -1.2269  -20.7495  -49.0000 C.2       10 UNK         0.5000 
     21 O          -1.4892  -21.5376  -49.9098 O.2       10 UNK        -0.5000 
     22 CA          0.0945  -20.8890  -48.2135 C.3       10 UNK         0.1400 
     23 CB          1.2336  -20.1493  -48.9238 C.3       10 UNK        -0.1800 
     24 N           0.0067  -20.4142  -46.8279 N.am      10 UNK        -0.5000 
     25 C          -0.7995  -20.9243  -45.8831 C.2       9 UNK         0.5000 
     26 O          -1.5767  -21.8600  -46.0741 O.2       9 UNK        -0.5000 
     27 CA         -0.7771  -20.2224  -44.5165 C.3       9 UNK         0.1400 
     28 CB          0.4543  -20.6368  -43.6956 C.3       9 UNK        -0.1800 
     29 N          -0.8012  -18.7700  -44.6940 N.am      9 UNK        -0.5000 
     30 C          -1.9255  -18.0685  -44.8985 C.2       8 UNK         0.5000 
     31 O          -3.0507  -18.5617  -44.8308 O.2       8 UNK        -0.5000 
     32 CA         -1.7878  -16.5710  -45.2384 C.3       8 UNK         0.1400 
     33 CB         -1.9747  -15.7384  -43.9651 C.3       8 UNK        -0.1800 
     34 N          -0.5161  -16.2187  -45.8777 N.am      8 UNK        -0.5000 
     35 C          -0.1428  -16.6312  -47.0969 C.2       7 UNK         0.5000 
     36 O          -0.8560  -17.3096  -47.8320 O.2       7 UNK        -0.5000 
     37 CA          1.2952  -16.3090  -47.5455 C.3       7 UNK         0.1400 
     38 CB          1.3743  -15.0019  -48.3486 C.3       7 UNK        -0.1800 
     39 N           2.2632  -16.2654  -46.4507 N.am      7 UNK        -0.5000 
     40 C           2.5589  -17.2791  -45.6249 C.2       6 UNK         0.5000 
     41 O           1.9917  -18.3718  -45.6813 O.2       6 UNK        -0.5000 
     42 CA          3.6722  -17.0362  -44.5808 C.3       6 UNK         0.1400 
     43 CB          4.5543  -18.2833  -44.3990 C.3       6 UNK        -0.1800 
     44 N           4.5241  -15.9048  -44.9622 N.am      6 UNK        -0.5000 
     45 C           4.3578  -14.6404  -44.5562 C.2       5 UNK         0.5000 
     46 O           3.5662  -14.3032  -43.6736 O.2       5 UNK        -0.5000 
     47 CA          5.1819  -13.5739  -45.2991 C.3       5 UNK         0.1400 
     48 CB          5.0943  -13.7429  -46.8337 C.3       5 UNK        -0.1800 
     49 N           4.6850  -12.2569  -44.9185 N.am      5 UNK        -0.5000 
     50 C           5.2951  -11.0860  -45.1286 C.2       4 UNK         0.5000 
     51 O           6.4039  -10.9762  -45.6538 O.2       4 UNK        -0.5000 
     52 CA          4.5378   -9.8176  -44.6924 C.3       4 UNK         0.1400 
     53 CB          3.8239   -9.1845  -45.8970 C.3       4 UNK        -0.1800 
     54 N           3.5511  -10.0592  -43.6390 N.am      4 UNK        -0.5000 
     55 C           3.8493  -10.3009  -42.3554 C.2       3 UNK         0.5000 
     56 O           5.0001  -10.3702  -41.9223 O.2       3 UNK        -0.5000 
     57 CA          2.6668  -10.4987  -41.3962 C.3       3 UNK         0.1400 
     58 CB          2.0731   -9.1404  -40.9888 C.3       3 UNK        -0.1800 
     59 N           1.6166  -11.3133  -42.0075 N.am      3 UNK        -0.5000 
     60 C           1.3169  -12.5691  -41.6476 C.2       2 UNK         0.5000 
     61 O           1.9167  -13.1867  -40.7665 O.2       2 UNK        -0.5000 
     62 CA          0.1216  -13.2463  -42.3473 C.3       2 UNK         0.1400 
     63 CB         -1.0728  -13.3226  -41.3810 C.3       2 UNK        -0.1800 
     64 N          -0.3057  -12.5384  -43.5549 N.am      2 UNK        -0.5000 
     65 C           0.1417  -12.7882  -44.7925 C.2       1 UNK         0.5000 
     66 O           0.8912  -13.7250  -45.0676 O.2       1 UNK        -0.5000 
     67 C          -4.3025  -20.8525  -48.9337 C.2       11 UNK         0.5000 
     68 O          -5.0879  -21.0925  -49.8498 O.2       11 UNK        -0.5000 
     69 N          -4.0908  -21.6751  -47.8982 N.am      12 UNK        -0.5000 
     70 CA         -4.8142  -22.9196  -47.6533 C.3       12 UNK         0.1400 
     71 CB         -5.6920  -22.7465  -46.4010 C.3       12 UNK        -0.1800 
     72 C          -3.8432  -24.1084  -47.5373 C.2       12 UNK         0.5000 
     73 O          -4.0749  -25.0082  -46.7262 O.2       12 UNK        -0.5000 
     74 N          -2.7795  -24.1124  -48.3548 N.am      13 UNK        -0.5000 
     75 CA         -1.7811  -25.1838  -48.4102 C.3       13 UNK         0.1400 
     76 CB         -0.6915  -24.8229  -49.4282 C.3       13 UNK        -0.1800 
     77 C          -2.3888  -26.5649  -48.7291 C.2       13 UNK         0.5000 
     78 O          -3.3312  -26.6599  -49.5216 O.2       13 UNK        -0.5000 
     79 N          -1.8405  -27.6005  -48.0771 N.am      14 UNK        -0.5000 
     80 CA         -2.2755  -29.0022  -48.1187 C.3       14 UNK         0.1400 
     81 CB         -2.0077  -29.6122  -49.5109 C.3       14 UNK        -0.1800 
     82 C          -3.7359  -29.1873  -47.6511 C.2       14 UNK         0.5000 
     83 O          -4.4805  -29.9600  -48.2526 O.2       14 UNK        -0.5000 
     84 N          -4.1335  -28.4371  -46.6104 N.am      15 UNK        -0.5000 
     85 CA         -5.4996  -28.3391  -46.0736 C.3       15 UNK         0.1400 
     86 CB         -5.9238  -29.6597  -45.3974 C.3       15 UNK        -0.1800 
     87 C          -6.5047  -27.8492  -47.1397 C.2       15 UNK         0.5000 
     88 O          -7.5991  -28.3978  -47.2765 O.2       15 UNK        -0.5000 
     89 N          -6.0678  -26.8362  -47.8987 N.am      16 UNK        -0.5000 
     90 CA         -6.7217  -26.1940  -49.0402 C.3       16 UNK         0.1400 
     91 CB         -8.0616  -25.5498  -48.6313 C.3       16 UNK        -0.1800 
     92 C          -6.8442  -27.0720  -50.3036 C.2       16 UNK         0.5000 
     93 O          -7.4813  -26.6397  -51.2650 O.2       16 UNK        -0.5000 
     94 N          -6.2029  -28.2506  -50.3330 N.am      17 UNK        -0.5000 
     95 CA         -6.1256  -29.0996  -51.5273 C.3       17 UNK         0.1400 
     96 CB         -5.7144  -30.5251  -51.1321 C.3       17 UNK        -0.1800 
     97 C          -5.1643  -28.5381  -52.5940 C.2       17 UNK         0.5000 
     98 O          -5.3083  -28.8733  -53.7702 O.2       17 UNK        -0.5000 
     99 N          -4.2190  -27.6888  -52.1725 N.am      18 UNK        -0.5000 
    100 CA        -3.2596  -26.9882  -53.0207 C.3       18 UNK         0.1400 
    101 CB        -1.8624  -27.6013  -52.8090 C.3       18 UNK        -0.1800 
    102 C         -3.3044  -25.4824  -52.7053 C.2       18 UNK         0.5000 
    103 O         -2.2565  -24.8433  -52.6294 O.2       18 UNK        -0.5000 
    104 N         -4.5196  -24.9519  -52.4973 N.am      19 UNK        -0.5000 
    105 CA        -4.8029  -23.5657  -52.1165 C.3       19 UNK         0.1400 
    106 CB        -6.3261  -23.3813  -52.0220 C.3       19 UNK        -0.1800 
    107 C         -4.1972  -22.5056  -53.0601 C.2       19 UNK         0.5000 
    108 O         -4.0231  -22.7614  -54.2544 O.2       19 UNK        -0.5000 
    109 N         -3.9287  -21.3231  -52.4902 N.am      20 UNK        -0.5000 
    110 CA        -3.2952  -20.1567  -53.1139 C.3       20 UNK         0.1400 
    111 CB        -4.2122  -19.5398  -54.1898 C.3       20 UNK        -0.1800 
    112 C         -1.8649  -20.4472  -53.6183 C.2       20 UNK         0.5000 
    113 O         -1.4970  -20.0376  -54.7203 O.2       20 UNK        -0.5000 
    114 N         -1.0663  -21.1268  -52.7831 N.am      21 UNK        -0.5000 
    115 CA         0.3374  -21.4647  -53.0465 C.3       21 UNK         0.1400 
    116 CB         0.6947  -22.7431  -52.2688 C.3       21 UNK        -0.1800 
    117 C          1.3168  -20.3187  -52.7070 C.2       21 UNK         0.5000 
    118 O          2.5286  -20.5377  -52.7102 O.2       21 UNK        -0.5000 
    119 N          0.7864  -19.1303  -52.3917 N.am      22 UNK        -0.5000 
    120 CA         1.5237  -17.9184  -52.0010 C.3       22 UNK         0.1400 
    121 C          2.4709  -17.3109  -53.0814 C.2       22 UNK         0.5000 
    122 N          2.3636  -17.6844  -54.3507 N.am      22 UNK        -0.7600 
    123 O          3.3239  -16.4901  -52.7554 O.2       22 UNK        -0.5000 
    124 C124        0.5589  -16.8505  -51.4211 C.3       23 UNK        -0.0398 
    125 S125       -0.7010  -16.2984  -52.6233 S.3       23 UNK        -0.2404 
    126 C126       -1.2432  -14.7103  -51.9008 C.3       23 UNK        -0.0205 
    127 H127       -0.6670   -7.4978  -44.8480 H         1 UNK         0.0600 
    128 H128       -1.1909   -8.2528  -43.3391 H         1 UNK         0.0600 
    129 H129       -2.1581   -8.4444  -44.8053 H         1 UNK         0.0600 
    130 H130       -1.9074  -10.4695  -45.7268 H         1 UNK         0.3000 
    131 H131        0.6126  -11.5407  -46.4238 H         1 UNK         0.0600 
    132 H132       -0.7103  -13.4906  -47.3086 H         1 UNK         0.0800 
    133 H133       -1.2108  -11.9315  -47.8782 H         1 UNK         0.0800 
    134 H134       -3.5068  -11.7383  -48.4755 H         1 UNK         0.0800 
    135 H135       -4.8571  -12.5904  -47.7870 H         1 UNK         0.0800 
    136 H136       -1.8172  -12.9985  -49.8886 H         1 UNK         0.1150 
    137 H137       -3.2547  -16.6056  -51.7027 H         1 UNK         0.1150 
    138 H138       -5.3859  -14.8708  -48.4263 H         1 UNK         0.1150 
    139 H139       -6.3976  -16.5240  -50.5135 H         1 UNK         0.0800 
    140 H140       -5.1784  -17.6844  -50.9675 H         1 UNK         0.0800 
    141 H141       -4.1319  -18.7234  -47.1184 H         1 UNK         0.0800 
    142 H142       -3.4255  -17.5462  -48.1784 H         1 UNK         0.0800 
    143 H143       -3.4163  -19.2432  -50.0391 H         1 UNK         0.0600 
    144 H144       -1.6892  -19.1091  -47.9316 H         1 UNK         0.3000 
    145 H145        0.3500  -21.9478  -48.1717 H         1 UNK         0.0600 
    146 H146        2.1441  -20.1424  -48.3241 H         1 UNK         0.0600 
    147 H147        1.4756  -20.6346  -49.8677 H         1 UNK         0.0600 
    148 H148        0.9641  -19.1172  -49.1421 H         1 UNK         0.0600 
    149 H149        0.6264  -19.6547  -46.5672 H         1 UNK         0.3000 
    150 H150       -1.6637  -20.5347  -43.9603 H         1 UNK         0.0600 
    151 H151        0.4400  -21.7086  -43.4944 H         1 UNK         0.0600 
    152 H152        0.4757  -20.1260  -42.7329 H         1 UNK         0.0600 
    153 H153        1.3885  -20.4175  -44.2118 H         1 UNK         0.0600 
    154 H154        0.0956  -18.3141  -44.8096 H         1 UNK         0.3000 
    155 H155       -2.5923  -16.3166  -45.9321 H         1 UNK         0.0600 
    156 H156       -1.1661  -15.9079  -43.2543 H         1 UNK         0.0600 
    157 H157       -2.9101  -15.9911  -43.4640 H         1 UNK         0.0600 
    158 H158       -2.0164  -14.6757  -44.1931 H         1 UNK         0.0600 
    159 H159        0.1162  -15.6168  -45.3609 H         1 UNK         0.3000 
    160 H160        1.6004  -17.1175  -48.2106 H         1 UNK         0.0600 
    161 H161        1.4112  -14.1279  -47.6999 H         1 UNK         0.0600 
    162 H162        0.5180  -14.8872  -49.0145 H         1 UNK         0.0600 
    163 H163        2.2723  -14.9822  -48.9663 H         1 UNK         0.0600 
    164 H164        2.7207  -15.3808  -46.2921 H         1 UNK         0.3000 
    165 H165        3.1789  -16.8300  -43.6289 H         1 UNK         0.0600 
    166 H166        5.3368  -18.1074  -43.6606 H         1 UNK         0.0600 
    167 H167        3.9670  -19.1334  -44.0490 H         1 UNK         0.0600 
    168 H168        5.0337  -18.5772  -45.3334 H         1 UNK         0.0600 
    169 H169        5.1992  -16.0926  -45.6900 H         1 UNK         0.3000 
    170 H170        6.2202  -13.6693  -44.9760 H         1 UNK         0.0600 
    171 H171        5.4962  -14.7022  -47.1602 H         1 UNK         0.0600 
    172 H172        4.0640  -13.6771  -47.1851 H         1 UNK         0.0600 
    173 H173        5.6677  -12.9761  -47.3543 H         1 UNK         0.0600 
    174 H174        3.8076  -12.2767  -44.4130 H         1 UNK         0.3000 
    175 H175        5.2749   -9.1043  -44.3179 H         1 UNK         0.0600 
    176 H176        3.0644   -9.8507  -46.3086 H         1 UNK         0.0600 
    177 H177        3.3339   -8.2512  -45.6191 H         1 UNK         0.0600 
    178 H178        4.5301   -8.9560  -46.6963 H         1 UNK         0.0600 
    179 H179        2.5742   -9.9779  -43.9127 H         1 UNK         0.3000 
    180 H180        3.0515  -10.9781  -40.4937 H         1 UNK         0.0600 
    181 H181        1.2710   -9.2656  -40.2614 H         1 UNK         0.0600 
    182 H182        1.6656   -8.6022  -41.8457 H         1 UNK         0.0600 
    183 H183        2.8313   -8.5040  -40.5307 H         1 UNK         0.0600 
    184 H184        1.1096  -10.8872  -42.7745 H         1 UNK         0.3000 
    185 H185        0.4284  -14.2625  -42.6023 H         1 UNK         0.0600 
    186 H186       -1.9322  -13.8074  -41.8426 H         1 UNK         0.0600 
    187 H187       -0.8182  -13.8975  -40.4897 H         1 UNK         0.0600 
    188 H188       -1.3876  -12.3312  -41.0527 H         1 UNK         0.0600 
    189 H189       -0.9409  -11.7644  -43.4272 H         1 UNK         0.3000 
    190 H190       -3.3501  -21.4633  -47.2378 H         1 UNK         0.3000 
    191 H191       -5.4738  -23.1498  -48.4917 H         1 UNK         0.0600 
    192 H192       -6.2892  -23.6390  -46.2100 H         1 UNK         0.0600 
    193 H193       -6.3856  -21.9140  -46.5197 H         1 UNK         0.0600 
    194 H194       -5.0879  -22.5559  -45.5131 H         1 UNK         0.0600 
    195 H195       -2.6418  -23.3358  -48.9875 H         1 UNK         0.3000 
    196 H196       -1.3164  -25.2373  -47.4235 H         1 UNK         0.0600 
    197 H197       -1.1177  -24.5681  -50.3961 H         1 UNK         0.0600 
    198 H198       -0.1052  -23.9708  -49.0917 H         1 UNK         0.0600 
    199 H199        0.0029  -25.6501  -49.5810 H         1 UNK         0.0600 
    200 H200       -1.0709  -27.4124  -47.4495 H         1 UNK         0.3000 
    201 H201       -1.6568  -29.5404  -47.3994 H         1 UNK         0.0600 
    202 H202       -2.6440  -29.1701  -50.2766 H         1 UNK         0.0600 
    203 H203       -2.1979  -30.6861  -49.5106 H         1 UNK         0.0600 
    204 H204       -0.9707  -29.4670  -49.8134 H         1 UNK         0.0600 
    205 H205       -3.4605  -27.8032  -46.2023 H         1 UNK         0.3000 
    206 H206       -5.4737  -27.5674  -45.3028 H         1 UNK         0.0600 
    207 H207       -5.1982  -29.9674  -44.6446 H         1 UNK         0.0600 
    208 H208       -6.8850  -29.5483  -44.8946 H         1 UNK         0.0600 
    209 H209       -6.0253  -30.4723  -46.1174 H         1 UNK         0.0600 
    210 H210       -5.1493  -26.4668  -47.6756 H         1 UNK         0.3000 
    211 H211       -6.0506  -25.3852  -49.3288 H         1 UNK         0.0600 
    212 H212       -8.4611  -24.9308  -49.4354 H         1 UNK         0.0600 
    213 H213       -7.9408  -24.9063  -47.7600 H         1 UNK         0.0600 
    214 H214       -8.8167  -26.2995  -48.3942 H         1 UNK         0.0600 
    215 H215       -5.6925  -28.5625  -49.5158 H         1 UNK         0.3000 
    216 H216       -7.1209  -29.1529  -51.9736 H         1 UNK         0.0600 
    217 H217       -4.6810  -30.5664  -50.7882 H         1 UNK         0.0600 
    218 H218       -5.7983  -31.2018  -51.9832 H         1 UNK         0.0600 
    219 H219       -6.3509  -30.9180  -50.3390 H         1 UNK         0.0600 
    220 H220       -4.1681  -27.4515  -51.1855 H         1 UNK         0.3000 
    221 H221       -3.5269  -27.0941  -54.0737 H         1 UNK         0.0600 
    222 H222       -1.8663  -28.6721  -53.0126 H         1 UNK         0.0600 
    223 H223       -1.5129  -27.4554  -51.7861 H         1 UNK         0.0600 
    224 H224       -1.1292  -27.1461  -53.4757 H         1 UNK         0.0600 
    225 H225       -5.3210  -25.5575  -52.5991 H         1 UNK         0.3000 
    226 H226       -4.3711  -23.4190  -51.1244 H         1 UNK         0.0600 
    227 H227       -6.8183  -23.6239  -52.9645 H         1 UNK         0.0600 
    228 H228       -6.7558  -24.0119  -51.2458 H         1 UNK         0.0600 
    229 H229       -6.5867  -22.3516  -51.7737 H         1 UNK         0.0600 
    230 H230       -4.1957  -21.2110  -51.5160 H         1 UNK         0.3000 
    231 H231       -3.1837  -19.4105  -52.3276 H         1 UNK         0.0600 
    232 H232       -4.3359  -20.2013  -55.0476 H         1 UNK         0.0600 
    233 H233       -3.8013  -18.5995  -54.5593 H         1 UNK         0.0600 
    234 H234       -5.2017  -19.3238  -53.7867 H         1 UNK         0.0600 
    235 H235       -1.4231  -21.4113  -51.8751 H         1 UNK         0.3000 
    236 H236        0.4550  -21.6799  -54.1103 H         1 UNK         0.0600 
    237 H237        0.0310  -23.5640  -52.5360 H         1 UNK         0.0600 
    238 H238        1.7109  -23.0708  -52.4905 H         1 UNK         0.0600 
    239 H239        0.6267  -22.5940  -51.1916 H         1 UNK         0.0600 
    240 H240       -0.2150  -19.0308  -52.4506 H         1 UNK         0.3000 
    241 H241        2.1854  -18.2202  -51.1871 H         1 UNK         0.0600 
    242 H242        2.9834  -17.2889  -55.0400 H         1 UNK         0.3800 
    243 H243        1.6602  -18.3494  -54.6296 H         1 UNK         0.3800 
    244 H244        1.1273  -15.9870  -51.0748 H         1 UNK         0.0800 
    245 H245        0.0428  -17.2440  -50.5442 H         1 UNK         0.0800 
    246 H246       -1.5883  -14.0732  -52.7159 H         1 UNK         0.0800 
    247 H247       -0.3851  -14.2001  -51.4611 H         1 UNK         0.0800 
@<TRIPOS>BOND
     1    1    2 1    
     2    1  127 1    
     3    1  128 1    
     4    1  129 1    
     5    2    3 2    
     6    2    4 am   BACKBONE|DICT|INTERRES
     7    4    5 1    
     8    4  130 1    
     9    5    6 1    
    10    5   65 1    
    11    5  131 1    
    12    6    7 1    
    13    6  132 1    
    14    6  133 1    
    15    7    8 1    
    16    8    9 1    
    17    8  134 1    
    18    8  135 1    
    19    9   10 ar   
    20    9   14 ar   
    21   10   11 ar   
    22   10  136 1    
    23   11   12 ar   
    24   11  126 1    
    25   12   13 ar   
    26   12  137 1    
    27   13   14 ar   
    28   13   15 1    
    29   14  138 1    
    30   15   16 1    
    31   15  139 1    
    32   15  140 1    
    33   16   17 1    
    34   17   18 1    
    35   17  141 1    
    36   17  142 1    
    37   18   19 1    
    38   18   67 1    
    39   18  143 1    
    40   19   20 am   BACKBONE|DICT|INTERRES
    41   19  144 1    
    42   20   21 2    
    43   20   22 1    
    44   22   23 1    
    45   22   24 1    
    46   22  145 1    
    47   23  146 1    
    48   23  147 1    
    49   23  148 1    
    50   24   25 am   BACKBONE|DICT|INTERRES
    51   24  149 1    
    52   25   26 2    
    53   25   27 1    
    54   27   28 1    
    55   27   29 1    
    56   27  150 1    
    57   28  151 1    
    58   28  152 1    
    59   28  153 1    
    60   29   30 am   BACKBONE|DICT|INTERRES
    61   29  154 1    
    62   30   31 2    
    63   30   32 1    
    64   32   33 1    
    65   32   34 1    
    66   32  155 1    
    67   33  156 1    
    68   33  157 1    
    69   33  158 1    
    70   34   35 am   BACKBONE|DICT|INTERRES
    71   34  159 1    
    72   35   36 2    
    73   35   37 1    
    74   37   38 1    
    75   37   39 1    
    76   37  160 1    
    77   38  161 1    
    78   38  162 1    
    79   38  163 1    
    80   39   40 am   BACKBONE|DICT|INTERRES
    81   39  164 1    
    82   40   41 2    
    83   40   42 1    
    84   42   43 1    
    85   42   44 1    
    86   42  165 1    
    87   43  166 1    
    88   43  167 1    
    89   43  168 1    
    90   44   45 am   BACKBONE|DICT|INTERRES
    91   44  169 1    
    92   45   46 2    
    93   45   47 1    
    94   47   48 1    
    95   47   49 1    
    96   47  170 1    
    97   48  171 1    
    98   48  172 1    
    99   48  173 1    
   100   49   50 am   BACKBONE|DICT|INTERRES
   101   49  174 1    
   102   50   51 2    
   103   50   52 1    
   104   52   53 1    
   105   52   54 1    
   106   52  175 1    
   107   53  176 1    
   108   53  177 1    
   109   53  178 1    
   110   54   55 am   BACKBONE|DICT|INTERRES
   111   54  179 1    
   112   55   56 2    
   113   55   57 1    
   114   57   58 1    
   115   57   59 1    
   116   57  180 1    
   117   58  181 1    
   118   58  182 1    
   119   58  183 1    
   120   59   60 am   BACKBONE|DICT|INTERRES
   121   59  184 1    
   122   60   61 2    
   123   60   62 1    
   124   62   63 1    
   125   62   64 1    
   126   62  185 1    
   127   63  186 1    
   128   63  187 1    
   129   63  188 1    
   130   64   65 am   BACKBONE|DICT|INTERRES
   131   64  189 1    
   132   65   66 2    
   133   67   68 2    
   134   67   69 am   BACKBONE|DICT|INTERRES
   135   69   70 1    
   136   69  190 1    
   137   70   71 1    
   138   70   72 1    
   139   70  191 1    
   140   71  192 1    
   141   71  193 1    
   142   71  194 1    
   143   72   73 2    
   144   72   74 am   BACKBONE|DICT|INTERRES
   145   74   75 1    
   146   74  195 1    
   147   75   76 1    
   148   75   77 1    
   149   75  196 1    
   150   76  197 1    
   151   76  198 1    
   152   76  199 1    
   153   77   78 2    
   154   77   79 am   BACKBONE|DICT|INTERRES
   155   79   80 1    
   156   79  200 1    
   157   80   81 1    
   158   80   82 1    
   159   80  201 1    
   160   81  202 1    
   161   81  203 1    
   162   81  204 1    
   163   82   83 2    
   164   82   84 am   BACKBONE|DICT|INTERRES
   165   84   85 1    
   166   84  205 1    
   167   85   86 1    
   168   85   87 1    
   169   85  206 1    
   170   86  207 1    
   171   86  208 1    
   172   86  209 1    
   173   87   88 2    
   174   87   89 am   BACKBONE|DICT|INTERRES
   175   89   90 1    
   176   89  210 1    
   177   90   91 1    
   178   90   92 1    
   179   90  211 1    
   180   91  212 1    
   181   91  213 1    
   182   91  214 1    
   183   92   93 2    
   184   92   94 am   BACKBONE|DICT|INTERRES
   185   94   95 1    
   186   94  215 1    
   187   95   96 1    
   188   95   97 1    
   189   95  216 1    
   190   96  217 1    
   191   96  218 1    
   192   96  219 1    
   193   97   98 2    
   194   97   99 am   BACKBONE|DICT|INTERRES
   195   99  100 1    
   196   99  220 1    
   197  100  101 1    
   198  100  102 1    
   199  100  221 1    
   200  101  222 1    
   201  101  223 1    
   202  101  224 1    
   203  102  103 2    
   204  102  104 am   BACKBONE|DICT|INTERRES
   205  104  105 1    
   206  104  225 1    
   207  105  106 1    
   208  105  107 1    
   209  105  226 1    
   210  106  227 1    
   211  106  228 1    
   212  106  229 1    
   213  107  108 2    
   214  107  109 am   BACKBONE|DICT|INTERRES
   215  109  110 1    
   216  109  230 1    
   217  110  111 1    
   218  110  112 1    
   219  110  231 1    
   220  111  232 1    
   221  111  233 1    
   222  111  234 1    
   223  112  113 2    
   224  112  114 am   BACKBONE|DICT|INTERRES
   225  114  115 1    
   226  114  235 1    
   227  115  116 1    
   228  115  117 1    
   229  115  236 1    
   230  116  237 1    
   231  116  238 1    
   232  116  239 1    
   233  117  118 2    
   234  117  119 am   BACKBONE|DICT|INTERRES
   235  119  120 1    
   236  119  240 1    
   237  120  121 1    
   238  120  124 1    
   239  120  241 1    
   240  121  122 am   BACKBONE|DICT|INTERRES
   241  121  123 2    
   242  122  242 1    
   243  122  243 1    
   244  124  125 1    
   245  124  244 1    
   246  124  245 1    
   247  125  126 1    
   248  126  246 1    
   249  126  247 1    
@<TRIPOS>SUBSTRUCTURE
     1 UNK         1 GROUP             0       ****    0 ROOT    
