@<TRIPOS>MOLECULE
3R540
247   249    1
SMALL
USER_CHARGES


@<TRIPOS>ATOM
      1 CA          5.2733  -12.4509  -50.4257 C.3       0 UNK        -0.1800 
      2 C           4.5756  -13.0163  -49.1963 C.2       0 UNK         0.5000 
      3 O           5.0257  -12.7827  -48.0741 O.2       0 UNK        -0.5000 
      4 N           3.4863  -13.7650  -49.4037 N.am      1 UNK        -0.5000 
      5 CA          2.6386  -14.3257  -48.3484 C.3       1 UNK         0.1400 
      6 C6          1.7738  -15.4978  -48.8821 C.3       23 UNK        -0.0398 
      7 S7          0.6150  -15.0413  -50.2233 S.3       23 UNK        -0.2404 
      8 C8         -0.4808  -16.4931  -50.2827 C.3       23 UNK        -0.0205 
      9 C9          0.1568  -17.6552  -51.0277 C.ar      23 UNK        -0.0193 
     10 C10        -0.0994  -17.8349  -52.3901 C.ar      23 UNK        -0.1150 
     11 C11         0.4701  -18.9054  -53.0856 C.ar      23 UNK        -0.0193 
     12 C12         1.3023  -19.7993  -52.4064 C.ar      23 UNK        -0.1150 
     13 C13         1.5568  -19.6376  -51.0417 C.ar      23 UNK        -0.0193 
     14 C14         0.9844  -18.5612  -50.3573 C.ar      23 UNK        -0.1150 
     15 C15         2.4456  -20.6328  -50.3131 C.3       23 UNK        -0.0205 
     16 S16         1.4829  -22.0298  -49.6536 S.3       23 UNK        -0.2404 
     17 C17         0.7317  -21.2684  -48.1780 C.3       23 UNK        -0.0398 
     18 CA          0.1628  -22.3159  -47.1940 C.3       11 UNK         0.1400 
     19 N           0.2074  -21.8444  -45.8075 N.am      11 UNK        -0.5000 
     20 C           0.0135  -22.6286  -44.7384 C.2       10 UNK         0.5000 
     21 O          -0.2306  -23.8323  -44.8166 O.2       10 UNK        -0.5000 
     22 CA          0.0393  -21.9472  -43.3593 C.3       10 UNK         0.1400 
     23 CB          1.4766  -21.6106  -42.9358 C.3       10 UNK        -0.1800 
     24 N          -0.7788  -20.7363  -43.3303 N.am      10 UNK        -0.5000 
     25 C          -2.1081  -20.7130  -43.5048 C.2       9 UNK         0.5000 
     26 O          -2.8017  -21.7205  -43.6410 O.2       9 UNK        -0.5000 
     27 CA         -2.7651  -19.3247  -43.5850 C.3       9 UNK         0.1400 
     28 CB         -3.0469  -18.7720  -42.1804 C.3       9 UNK        -0.1800 
     29 N          -1.9462  -18.3721  -44.3360 N.am      9 UNK        -0.5000 
     30 C          -1.7170  -18.4508  -45.6544 C.2       8 UNK         0.5000 
     31 O          -2.1754  -19.3302  -46.3810 O.2       8 UNK        -0.5000 
     32 CA         -0.7751  -17.3962  -46.2547 C.3       8 UNK         0.1400 
     33 CB         -1.5323  -16.0889  -46.5310 C.3       8 UNK        -0.1800 
     34 N           0.3896  -17.1423  -45.4043 N.am      8 UNK        -0.5000 
     35 C           1.3537  -18.0516  -45.1927 C.2       7 UNK         0.5000 
     36 O           1.3574  -19.1692  -45.7059 O.2       7 UNK        -0.5000 
     37 CA          2.4841  -17.6737  -44.2207 C.3       7 UNK         0.1400 
     38 CB          3.5936  -16.9142  -44.9632 C.3       7 UNK        -0.1800 
     39 N           2.0408  -16.8750  -43.0796 N.am      7 UNK        -0.5000 
     40 C           1.1045  -17.2272  -42.1911 C.2       6 UNK         0.5000 
     41 O           0.4910  -18.2955  -42.2316 O.2       6 UNK        -0.5000 
     42 CA          0.8344  -16.2041  -41.0766 C.3       6 UNK         0.1400 
     43 CB         -0.3391  -16.6204  -40.1741 C.3       6 UNK        -0.1800 
     44 N           2.0257  -16.0744  -40.2382 N.am      6 UNK        -0.5000 
     45 C           2.9554  -15.1085  -40.1521 C.2       5 UNK         0.5000 
     46 O           3.9314  -15.2663  -39.4207 O.2       5 UNK        -0.5000 
     47 CA          2.8640  -13.7771  -40.9394 C.3       5 UNK         0.1400 
     48 CB          3.4254  -13.9073  -42.3655 C.3       5 UNK        -0.1800 
     49 N           1.5591  -13.1185  -40.9752 N.am      5 UNK        -0.5000 
     50 C           0.8805  -12.6617  -39.9138 C.2       4 UNK         0.5000 
     51 O           1.2739  -12.7642  -38.7517 O.2       4 UNK        -0.5000 
     52 CA         -0.4525  -11.9421  -40.2018 C.3       4 UNK         0.1400 
     53 CB         -0.2546  -10.4189  -40.1525 C.3       4 UNK        -0.1800 
     54 N          -1.0170  -12.2994  -41.5067 N.am      4 UNK        -0.5000 
     55 C          -1.8017  -13.3630  -41.7270 C.2       3 UNK         0.5000 
     56 O          -2.1809  -14.1228  -40.8379 O.2       3 UNK        -0.5000 
     57 CA         -2.2340  -13.6353  -43.1803 C.3       3 UNK         0.1400 
     58 CB         -3.6872  -13.1907  -43.4032 C.3       3 UNK        -0.1800 
     59 N          -1.3777  -12.9749  -44.1694 N.am      3 UNK        -0.5000 
     60 C          -0.1939  -13.4428  -44.5789 C.2       2 UNK         0.5000 
     61 O           0.3141  -14.4911  -44.1684 O.2       2 UNK        -0.5000 
     62 CA          0.5514  -12.5924  -45.6124 C.3       2 UNK         0.1400 
     63 CB          1.3899  -11.5024  -44.9235 C.3       2 UNK        -0.1800 
     64 N           1.4151  -13.4635  -46.4023 N.am      2 UNK        -0.5000 
     65 C           1.7902  -13.2280  -47.6639 C.2       1 UNK         0.5000 
     66 O           1.4771  -12.2087  -48.2860 O.2       1 UNK        -0.5000 
     67 C          -1.2468  -22.7992  -47.6007 C.2       11 UNK         0.5000 
     68 O          -1.3656  -23.8175  -48.2811 O.2       11 UNK        -0.5000 
     69 N          -2.2979  -22.1154  -47.1256 N.am      12 UNK        -0.5000 
     70 CA         -3.6981  -22.5071  -47.3154 C.3       12 UNK         0.1400 
     71 CB         -4.6164  -21.3500  -46.8962 C.3       12 UNK        -0.1800 
     72 C          -4.0900  -23.8114  -46.5896 C.2       12 UNK         0.5000 
     73 O          -5.1034  -24.4093  -46.9495 O.2       12 UNK        -0.5000 
     74 N          -3.2907  -24.2458  -45.6074 N.am      13 UNK        -0.5000 
     75 CA         -3.4136  -25.5548  -44.9720 C.3       13 UNK         0.1400 
     76 CB         -3.0368  -25.4432  -43.4858 C.3       13 UNK        -0.1800 
     77 C          -2.5377  -26.5974  -45.6897 C.2       13 UNK         0.5000 
     78 O          -3.0171  -27.6933  -45.9813 O.2       13 UNK        -0.5000 
     79 N          -1.2693  -26.2469  -45.9452 N.am      14 UNK        -0.5000 
     80 CA         -0.2482  -27.1493  -46.4771 C.3       14 UNK         0.1400 
     81 CB          1.1421  -26.5521  -46.2058 C.3       14 UNK        -0.1800 
     82 C          -0.4141  -27.4746  -47.9724 C.2       14 UNK         0.5000 
     83 O          -0.3772  -28.6488  -48.3429 O.2       14 UNK        -0.5000 
     84 N          -0.5616  -26.4360  -48.8031 N.am      15 UNK        -0.5000 
     85 CA         -0.6247  -26.5351  -50.2633 C.3       15 UNK         0.1400 
     86 CB          0.2649  -25.4401  -50.8731 C.3       15 UNK        -0.1800 
     87 C          -2.0591  -26.3945  -50.7964 C.2       15 UNK         0.5000 
     88 O          -2.3267  -26.8288  -51.9170 O.2       15 UNK        -0.5000 
     89 N          -2.9447  -25.7688  -50.0077 N.am      16 UNK        -0.5000 
     90 CA         -4.3681  -25.4950  -50.2515 C.3       16 UNK         0.1400 
     91 CB         -5.1660  -26.7882  -50.5015 C.3       16 UNK        -0.1800 
     92 C          -4.6461  -24.4433  -51.3419 C.2       16 UNK         0.5000 
     93 O          -5.5120  -23.5910  -51.1435 O.2       16 UNK        -0.5000 
     94 N          -3.8938  -24.4877  -52.4496 N.am      17 UNK        -0.5000 
     95 CA         -4.0083  -23.6093  -53.6197 C.3       17 UNK         0.1400 
     96 CB         -2.9500  -24.0216  -54.6531 C.3       17 UNK        -0.1800 
     97 C          -3.8871  -22.1067  -53.3016 C.2       17 UNK         0.5000 
     98 O          -4.5006  -21.2868  -53.9864 O.2       17 UNK        -0.5000 
     99 N          -3.1439  -21.7780  -52.2366 N.am      18 UNK        -0.5000 
    100 CA        -2.9613  -20.4302  -51.6988 C.3       18 UNK         0.1400 
    101 CB        -2.0204  -20.5096  -50.4950 C.3       18 UNK        -0.1800 
    102 C         -4.2706  -19.7305  -51.2906 C.2       18 UNK         0.5000 
    103 O         -4.3390  -18.5043  -51.3663 O.2       18 UNK        -0.5000 
    104 N         -5.3019  -20.5074  -50.9225 N.am      19 UNK        -0.5000 
    105 CA        -6.6445  -20.0069  -50.6125 C.3       19 UNK         0.1400 
    106 CB        -7.4773  -21.1422  -49.9993 C.3       19 UNK        -0.1800 
    107 C         -7.3679  -19.4068  -51.8368 C.2       19 UNK         0.5000 
    108 O         -8.2379  -18.5525  -51.6658 O.2       19 UNK        -0.5000 
    109 N         -6.9792  -19.8439  -53.0422 N.am      20 UNK        -0.5000 
    110 CA        -7.4434  -19.3234  -54.3285 C.3       20 UNK         0.1400 
    111 CB        -7.7530  -20.5191  -55.2460 C.3       20 UNK        -0.1800 
    112 C         -6.4026  -18.3866  -54.9791 C.2       20 UNK         0.5000 
    113 O         -6.6097  -17.9618  -56.1160 O.2       20 UNK        -0.5000 
    114 N         -5.3015  -18.0984  -54.2652 N.am      21 UNK        -0.5000 
    115 CA        -4.1132  -17.3565  -54.7040 C.3       21 UNK         0.1400 
    116 CB        -4.4573  -15.8871  -55.0244 C.3       21 UNK        -0.1800 
    117 C         -3.3308  -18.0594  -55.8367 C.2       21 UNK         0.5000 
    118 O         -2.6375  -17.3936  -56.6081 O.2       21 UNK        -0.5000 
    119 N         -3.4259  -19.3947  -55.8852 N.am      22 UNK        -0.5000 
    120 CA        -2.7574  -20.2993  -56.8342 C.3       22 UNK         0.1400 
    121 C         -3.2103  -20.1116  -58.3170 C.2       22 UNK         0.5000 
    122 N         -2.4933  -20.6673  -59.2863 N.am      22 UNK        -0.7600 
    123 O         -4.2422  -19.5112  -58.6089 O.2       22 UNK        -0.5000 
    124 C124       -1.2108  -20.3331  -56.6527 C.3       23 UNK        -0.0398 
    125 S125       -0.7002  -20.6264  -54.9226 S.3       23 UNK        -0.2404 
    126 C126        0.2005  -19.0837  -54.5718 C.3       23 UNK        -0.0205 
    127 H127        6.3035  -12.8043  -50.4688 H         1 UNK         0.0600 
    128 H128        5.2866  -11.3618  -50.3815 H         1 UNK         0.0600 
    129 H129        4.7732  -12.7476  -51.3480 H         1 UNK         0.0600 
    130 H130        3.1388  -13.8898  -50.3439 H         1 UNK         0.3000 
    131 H131        3.3037  -14.7388  -47.5867 H         1 UNK         0.0600 
    132 H132        1.2151  -15.9530  -48.0644 H         1 UNK         0.0800 
    133 H133        2.4320  -16.2813  -49.2593 H         1 UNK         0.0800 
    134 H134       -1.4105  -16.2058  -50.7766 H         1 UNK         0.0800 
    135 H135       -0.7633  -16.7963  -49.2762 H         1 UNK         0.0800 
    136 H136       -0.7410  -17.1367  -52.9089 H         1 UNK         0.1150 
    137 H137        1.7407  -20.6309  -52.9401 H         1 UNK         0.1150 
    138 H138        1.1770  -18.4345  -49.3016 H         1 UNK         0.1150 
    139 H139        3.1993  -21.0220  -50.9992 H         1 UNK         0.0800 
    140 H140        2.9955  -20.1403  -49.5098 H         1 UNK         0.0800 
    141 H141       -0.0200  -20.5317  -48.4636 H         1 UNK         0.0800 
    142 H142        1.5303  -20.7090  -47.6925 H         1 UNK         0.0800 
    143 H143        0.8151  -23.1913  -47.2288 H         1 UNK         0.0600 
    144 H144        0.4331  -20.8632  -45.6684 H         1 UNK         0.3000 
    145 H145       -0.3745  -22.6490  -42.6323 H         1 UNK         0.0600 
    146 H146        1.5002  -21.1701  -41.9388 H         1 UNK         0.0600 
    147 H147        1.9466  -20.9063  -43.6221 H         1 UNK         0.0600 
    148 H148        2.0958  -22.5081  -42.9111 H         1 UNK         0.0600 
    149 H149       -0.2954  -19.8585  -43.1654 H         1 UNK         0.3000 
    150 H150       -3.7193  -19.4321  -44.1052 H         1 UNK         0.0600 
    151 H151       -3.7460  -19.4158  -41.6454 H         1 UNK         0.0600 
    152 H152       -3.4889  -17.7765  -42.2245 H         1 UNK         0.0600 
    153 H153       -2.1381  -18.7136  -41.5819 H         1 UNK         0.0600 
    154 H154       -1.4721  -17.6597  -43.8019 H         1 UNK         0.3000 
    155 H155       -0.4135  -17.7891  -47.2067 H         1 UNK         0.0600 
    156 H156       -2.3636  -16.2604  -47.2160 H         1 UNK         0.0600 
    157 H157       -0.8868  -15.3405  -46.9893 H         1 UNK         0.0600 
    158 H158       -1.9483  -15.6635  -45.6181 H         1 UNK         0.0600 
    159 H159        0.4208  -16.2584  -44.9043 H         1 UNK         0.3000 
    160 H160        2.9053  -18.6018  -43.8295 H         1 UNK         0.0600 
    161 H161        3.2480  -15.9453  -45.3239 H         1 UNK         0.0600 
    162 H162        3.9472  -17.4804  -45.8261 H         1 UNK         0.0600 
    163 H163        4.4538  -16.7421  -44.3158 H         1 UNK         0.0600 
    164 H164        2.4844  -15.9764  -42.9721 H         1 UNK         0.3000 
    165 H165        0.5623  -15.2782  -41.5724 H         1 UNK         0.0600 
    166 H166       -0.5094  -15.8831  -39.3893 H         1 UNK         0.0600 
    167 H167       -1.2626  -16.6965  -40.7477 H         1 UNK         0.0600 
    168 H168       -0.1654  -17.5845  -39.6945 H         1 UNK         0.0600 
    169 H169        2.2053  -16.8996  -39.6854 H         1 UNK         0.3000 
    170 H170        3.5290  -13.0881  -40.4136 H         1 UNK         0.0600 
    171 H171        4.2966  -14.5636  -42.3965 H         1 UNK         0.0600 
    172 H172        2.6892  -14.2912  -43.0674 H         1 UNK         0.0600 
    173 H173        3.7498  -12.9358  -42.7381 H         1 UNK         0.0600 
    174 H174        1.1452  -12.9931  -41.8854 H         1 UNK         0.3000 
    175 H175       -1.1551  -12.2179  -39.4124 H         1 UNK         0.0600 
    176 H176        0.4437  -10.0772  -40.9176 H         1 UNK         0.0600 
    177 H177       -1.1987   -9.8941  -40.3005 H         1 UNK         0.0600 
    178 H178        0.1404  -10.1069  -39.1847 H         1 UNK         0.0600 
    179 H179       -0.7848  -11.7007  -42.2848 H         1 UNK         0.3000 
    180 H180       -2.1845  -14.7155  -43.3340 H         1 UNK         0.0600 
    181 H181       -4.0258  -13.4423  -44.4084 H         1 UNK         0.0600 
    182 H182       -3.8054  -12.1150  -43.2671 H         1 UNK         0.0600 
    183 H183       -4.3600  -13.6865  -42.7021 H         1 UNK         0.0600 
    184 H184       -1.7306  -12.1136  -44.5624 H         1 UNK         0.3000 
    185 H185       -0.1895  -12.1253  -46.2650 H         1 UNK         0.0600 
    186 H186        2.1509  -11.9316  -44.2722 H         1 UNK         0.0600 
    187 H187        1.8971  -10.8746  -45.6563 H         1 UNK         0.0600 
    188 H188        0.7652  -10.8471  -44.3156 H         1 UNK         0.0600 
    189 H189        1.6697  -14.3237  -45.9379 H         1 UNK         0.3000 
    190 H190       -2.1399  -21.2497  -46.6170 H         1 UNK         0.3000 
    191 H191       -3.8530  -22.6830  -48.3819 H         1 UNK         0.0600 
    192 H192       -4.4342  -20.4636  -47.5042 H         1 UNK         0.0600 
    193 H193       -4.4671  -21.0798  -45.8509 H         1 UNK         0.0600 
    194 H194       -5.6668  -21.6159  -47.0193 H         1 UNK         0.0600 
    195 H195       -2.4940  -23.6822  -45.3418 H         1 UNK         0.3000 
    196 H196       -4.4497  -25.8968  -45.0204 H         1 UNK         0.0600 
    197 H197       -3.6792  -24.7276  -42.9721 H         1 UNK         0.0600 
    198 H198       -2.0051  -25.1212  -43.3459 H         1 UNK         0.0600 
    199 H199       -3.1510  -26.4040  -42.9826 H         1 UNK         0.0600 
    200 H200       -0.9431  -25.3354  -45.6335 H         1 UNK         0.3000 
    201 H201       -0.3147  -28.0909  -45.9276 H         1 UNK         0.0600 
    202 H202        1.3067  -26.4082  -45.1378 H         1 UNK         0.0600 
    203 H203        1.2694  -25.5858  -46.6948 H         1 UNK         0.0600 
    204 H204        1.9302  -27.2120  -46.5706 H         1 UNK         0.0600 
    205 H205       -0.6454  -25.4978  -48.4197 H         1 UNK         0.3000 
    206 H206       -0.2424  -27.5028  -50.5945 H         1 UNK         0.0600 
    207 H207       -0.1034  -24.4422  -50.6333 H         1 UNK         0.0600 
    208 H208        1.2900  -25.5144  -50.5099 H         1 UNK         0.0600 
    209 H209        0.2977  -25.5228  -51.9602 H         1 UNK         0.0600 
    210 H210       -2.5758  -25.3774  -49.1495 H         1 UNK         0.3000 
    211 H211       -4.7440  -25.0683  -49.3254 H         1 UNK         0.0600 
    212 H212       -4.8861  -27.2704  -51.4382 H         1 UNK         0.0600 
    213 H213       -6.2351  -26.5784  -50.5528 H         1 UNK         0.0600 
    214 H214       -5.0144  -27.5055  -49.6947 H         1 UNK         0.0600 
    215 H215       -3.2237  -25.2488  -52.5136 H         1 UNK         0.3000 
    216 H216       -4.9970  -23.7706  -54.0535 H         1 UNK         0.0600 
    217 H217       -3.0407  -23.4317  -55.5650 H         1 UNK         0.0600 
    218 H218       -3.0593  -25.0691  -54.9345 H         1 UNK         0.0600 
    219 H219       -1.9384  -23.8808  -54.2697 H         1 UNK         0.0600 
    220 H220       -2.6813  -22.5253  -51.7415 H         1 UNK         0.3000 
    221 H221       -2.4881  -19.8232  -52.4730 H         1 UNK         0.0600 
    222 H222       -2.4363  -21.1394  -49.7114 H         1 UNK         0.0600 
    223 H223       -1.0543  -20.9204  -50.7841 H         1 UNK         0.0600 
    224 H224       -1.8452  -19.5236  -50.0637 H         1 UNK         0.0600 
    225 H225       -5.1893  -21.5155  -50.9302 H         1 UNK         0.3000 
    226 H226       -6.5436  -19.2158  -49.8665 H         1 UNK         0.0600 
    227 H227       -6.9849  -21.5692  -49.1259 H         1 UNK         0.0600 
    228 H228       -8.4544  -20.7794  -49.6781 H         1 UNK         0.0600 
    229 H229       -7.6464  -21.9476  -50.7151 H         1 UNK         0.0600 
    230 H230       -6.2362  -20.5318  -53.0953 H         1 UNK         0.3000 
    231 H231       -8.3614  -18.7474  -54.1975 H         1 UNK         0.0600 
    232 H232       -8.1612  -20.1872  -56.2014 H         1 UNK         0.0600 
    233 H233       -8.4899  -21.1825  -54.7932 H         1 UNK         0.0600 
    234 H234       -6.8584  -21.1061  -55.4576 H         1 UNK         0.0600 
    235 H235       -5.2467  -18.4642  -53.3228 H         1 UNK         0.3000 
    236 H236       -3.4391  -17.3490  -53.8462 H         1 UNK         0.0600 
    237 H237       -5.0628  -15.7989  -55.9266 H         1 UNK         0.0600 
    238 H238       -5.0046  -15.4224  -54.2044 H         1 UNK         0.0600 
    239 H239       -3.5521  -15.2998  -55.1821 H         1 UNK         0.0600 
    240 H240       -4.0081  -19.8635  -55.1985 H         1 UNK         0.3000 
    241 H241       -3.1318  -21.2870  -56.5680 H         1 UNK         0.0600 
    242 H242       -2.8034  -20.5589  -60.2398 H         1 UNK         0.3800 
    243 H243       -1.6578  -21.1989  -59.0999 H         1 UNK         0.3800 
    244 H244       -0.7655  -19.4088  -57.0236 H         1 UNK         0.0800 
    245 H245       -0.7739  -21.1365  -57.2463 H         1 UNK         0.0800 
    246 H246       -0.3710  -18.2370  -54.9548 H         1 UNK         0.0800 
    247 H247        1.1476  -19.0886  -55.1128 H         1 UNK         0.0800 
@<TRIPOS>BOND
     1    1    2 1    
     2    1  127 1    
     3    1  128 1    
     4    1  129 1    
     5    2    3 2    
     6    2    4 am   BACKBONE|DICT|INTERRES
     7    4    5 1    
     8    4  130 1    
     9    5    6 1    
    10    5   65 1    
    11    5  131 1    
    12    6    7 1    
    13    6  132 1    
    14    6  133 1    
    15    7    8 1    
    16    8    9 1    
    17    8  134 1    
    18    8  135 1    
    19    9   10 ar   
    20    9   14 ar   
    21   10   11 ar   
    22   10  136 1    
    23   11   12 ar   
    24   11  126 1    
    25   12   13 ar   
    26   12  137 1    
    27   13   14 ar   
    28   13   15 1    
    29   14  138 1    
    30   15   16 1    
    31   15  139 1    
    32   15  140 1    
    33   16   17 1    
    34   17   18 1    
    35   17  141 1    
    36   17  142 1    
    37   18   19 1    
    38   18   67 1    
    39   18  143 1    
    40   19   20 am   BACKBONE|DICT|INTERRES
    41   19  144 1    
    42   20   21 2    
    43   20   22 1    
    44   22   23 1    
    45   22   24 1    
    46   22  145 1    
    47   23  146 1    
    48   23  147 1    
    49   23  148 1    
    50   24   25 am   BACKBONE|DICT|INTERRES
    51   24  149 1    
    52   25   26 2    
    53   25   27 1    
    54   27   28 1    
    55   27   29 1    
    56   27  150 1    
    57   28  151 1    
    58   28  152 1    
    59   28  153 1    
    60   29   30 am   BACKBONE|DICT|INTERRES
    61   29  154 1    
    62   30   31 2    
    63   30   32 1    
    64   32   33 1    
    65   32   34 1    
    66   32  155 1    
    67   33  156 1    
    68   33  157 1    
    69   33  158 1    
    70   34   35 am   BACKBONE|DICT|INTERRES
    71   34  159 1    
    72   35   36 2    
    73   35   37 1    
    74   37   38 1    
    75   37   39 1    
    76   37  160 1    
    77   38  161 1    
    78   38  162 1    
    79   38  163 1    
    80   39   40 am   BACKBONE|DICT|INTERRES
    81   39  164 1    
    82   40   41 2    
    83   40   42 1    
    84   42   43 1    
    85   42   44 1    
    86   42  165 1    
    87   43  166 1    
    88   43  167 1    
    89   43  168 1    
    90   44   45 am   BACKBONE|DICT|INTERRES
    91   44  169 1    
    92   45   46 2    
    93   45   47 1    
    94   47   48 1    
    95   47   49 1    
    96   47  170 1    
    97   48  171 1    
    98   48  172 1    
    99   48  173 1    
   100   49   50 am   BACKBONE|DICT|INTERRES
   101   49  174 1    
   102   50   51 2    
   103   50   52 1    
   104   52   53 1    
   105   52   54 1    
   106   52  175 1    
   107   53  176 1    
   108   53  177 1    
   109   53  178 1    
   110   54   55 am   BACKBONE|DICT|INTERRES
   111   54  179 1    
   112   55   56 2    
   113   55   57 1    
   114   57   58 1    
   115   57   59 1    
   116   57  180 1    
   117   58  181 1    
   118   58  182 1    
   119   58  183 1    
   120   59   60 am   BACKBONE|DICT|INTERRES
   121   59  184 1    
   122   60   61 2    
   123   60   62 1    
   124   62   63 1    
   125   62   64 1    
   126   62  185 1    
   127   63  186 1    
   128   63  187 1    
   129   63  188 1    
   130   64   65 am   BACKBONE|DICT|INTERRES
   131   64  189 1    
   132   65   66 2    
   133   67   68 2    
   134   67   69 am   BACKBONE|DICT|INTERRES
   135   69   70 1    
   136   69  190 1    
   137   70   71 1    
   138   70   72 1    
   139   70  191 1    
   140   71  192 1    
   141   71  193 1    
   142   71  194 1    
   143   72   73 2    
   144   72   74 am   BACKBONE|DICT|INTERRES
   145   74   75 1    
   146   74  195 1    
   147   75   76 1    
   148   75   77 1    
   149   75  196 1    
   150   76  197 1    
   151   76  198 1    
   152   76  199 1    
   153   77   78 2    
   154   77   79 am   BACKBONE|DICT|INTERRES
   155   79   80 1    
   156   79  200 1    
   157   80   81 1    
   158   80   82 1    
   159   80  201 1    
   160   81  202 1    
   161   81  203 1    
   162   81  204 1    
   163   82   83 2    
   164   82   84 am   BACKBONE|DICT|INTERRES
   165   84   85 1    
   166   84  205 1    
   167   85   86 1    
   168   85   87 1    
   169   85  206 1    
   170   86  207 1    
   171   86  208 1    
   172   86  209 1    
   173   87   88 2    
   174   87   89 am   BACKBONE|DICT|INTERRES
   175   89   90 1    
   176   89  210 1    
   177   90   91 1    
   178   90   92 1    
   179   90  211 1    
   180   91  212 1    
   181   91  213 1    
   182   91  214 1    
   183   92   93 2    
   184   92   94 am   BACKBONE|DICT|INTERRES
   185   94   95 1    
   186   94  215 1    
   187   95   96 1    
   188   95   97 1    
   189   95  216 1    
   190   96  217 1    
   191   96  218 1    
   192   96  219 1    
   193   97   98 2    
   194   97   99 am   BACKBONE|DICT|INTERRES
   195   99  100 1    
   196   99  220 1    
   197  100  101 1    
   198  100  102 1    
   199  100  221 1    
   200  101  222 1    
   201  101  223 1    
   202  101  224 1    
   203  102  103 2    
   204  102  104 am   BACKBONE|DICT|INTERRES
   205  104  105 1    
   206  104  225 1    
   207  105  106 1    
   208  105  107 1    
   209  105  226 1    
   210  106  227 1    
   211  106  228 1    
   212  106  229 1    
   213  107  108 2    
   214  107  109 am   BACKBONE|DICT|INTERRES
   215  109  110 1    
   216  109  230 1    
   217  110  111 1    
   218  110  112 1    
   219  110  231 1    
   220  111  232 1    
   221  111  233 1    
   222  111  234 1    
   223  112  113 2    
   224  112  114 am   BACKBONE|DICT|INTERRES
   225  114  115 1    
   226  114  235 1    
   227  115  116 1    
   228  115  117 1    
   229  115  236 1    
   230  116  237 1    
   231  116  238 1    
   232  116  239 1    
   233  117  118 2    
   234  117  119 am   BACKBONE|DICT|INTERRES
   235  119  120 1    
   236  119  240 1    
   237  120  121 1    
   238  120  124 1    
   239  120  241 1    
   240  121  122 am   BACKBONE|DICT|INTERRES
   241  121  123 2    
   242  122  242 1    
   243  122  243 1    
   244  124  125 1    
   245  124  244 1    
   246  124  245 1    
   247  125  126 1    
   248  126  246 1    
   249  126  247 1    
@<TRIPOS>SUBSTRUCTURE
     1 UNK         1 GROUP             0       ****    0 ROOT    
