@<TRIPOS>MOLECULE
3R540
247   249    1
SMALL
USER_CHARGES


@<TRIPOS>ATOM
      1 CA          8.0446  -12.7934  -44.6341 C.3       0 UNK        -0.1800 
      2 C           6.5771  -13.1252  -44.8644 C.2       0 UNK         0.5000 
      3 O           5.7456  -12.8502  -44.0014 O.2       0 UNK        -0.5000 
      4 N           6.2592  -13.7146  -46.0244 N.am      1 UNK        -0.5000 
      5 CA          4.9000  -14.0902  -46.4382 C.3       1 UNK         0.1400 
      6 C6          4.9512  -15.1351  -47.5809 C.3       23 UNK        -0.0398 
      7 S7          3.4569  -16.1768  -47.6887 S.3       23 UNK        -0.2404 
      8 C8          3.1991  -16.2009  -49.4905 C.3       23 UNK        -0.0205 
      9 C9          2.2229  -17.2944  -49.8908 C.ar      23 UNK        -0.0193 
     10 C10         0.8974  -16.9886  -50.2091 C.ar      23 UNK        -0.1150 
     11 C11        -0.0024  -18.0022  -50.5555 C.ar      23 UNK        -0.0193 
     12 C12         0.4336  -19.3314  -50.5707 C.ar      23 UNK        -0.1150 
     13 C13         1.7628  -19.6485  -50.2714 C.ar      23 UNK        -0.0193 
     14 C14         2.6533  -18.6218  -49.9441 C.ar      23 UNK        -0.1150 
     15 C15         2.2308  -21.0998  -50.3039 C.3       23 UNK        -0.0205 
     16 S16         3.1544  -21.6091  -48.8098 S.3       23 UNK        -0.2404 
     17 C17         1.9943  -21.1765  -47.4661 C.3       23 UNK        -0.0398 
     18 CA          1.1471  -22.3618  -46.9505 C.3       11 UNK         0.1400 
     19 N           0.4217  -21.9982  -45.7334 N.am      11 UNK        -0.5000 
     20 C          -0.3026  -22.8368  -44.9808 C.2       10 UNK         0.5000 
     21 O          -0.3946  -24.0462  -45.1927 O.2       10 UNK        -0.5000 
     22 CA         -1.0999  -22.2036  -43.8269 C.3       10 UNK         0.1400 
     23 CB         -0.1908  -21.9249  -42.6208 C.3       10 UNK        -0.1800 
     24 N          -1.7815  -20.9709  -44.2281 N.am      10 UNK        -0.5000 
     25 C          -2.7502  -20.9121  -45.1541 C.2       9 UNK         0.5000 
     26 O          -3.1966  -21.8984  -45.7394 O.2       9 UNK        -0.5000 
     27 CA         -3.2918  -19.5175  -45.5123 C.3       9 UNK         0.1400 
     28 CB         -4.2847  -19.0357  -44.4443 C.3       9 UNK        -0.1800 
     29 N          -2.2347  -18.5227  -45.6941 N.am      9 UNK        -0.5000 
     30 C          -1.2850  -18.5852  -46.6395 C.2       8 UNK         0.5000 
     31 O          -1.2058  -19.4889  -47.4688 O.2       8 UNK        -0.5000 
     32 CA         -0.2011  -17.4930  -46.6141 C.3       8 UNK         0.1400 
     33 CB         -0.7332  -16.1692  -47.1819 C.3       8 UNK        -0.1800 
     34 N           0.3302  -17.2684  -45.2714 N.am      8 UNK        -0.5000 
     35 C           0.9416  -18.1969  -44.5230 C.2       7 UNK         0.5000 
     36 O           1.1736  -19.3454  -44.8990 O.2       7 UNK        -0.5000 
     37 CA          1.2983  -17.7874  -43.0860 C.3       7 UNK         0.1400 
     38 CB          2.5895  -16.9550  -43.0565 C.3       7 UNK        -0.1800 
     39 N           0.2074  -17.0454  -42.4525 N.am      7 UNK        -0.5000 
     40 C          -0.9691  -17.5864  -42.1038 C.2       6 UNK         0.5000 
     41 O          -1.2456  -18.7771  -42.2512 O.2       6 UNK        -0.5000 
     42 CA         -2.0265  -16.6282  -41.5250 C.3       6 UNK         0.1400 
     43 CB         -1.7719  -16.3762  -40.0314 C.3       6 UNK        -0.1800 
     44 N          -2.0776  -15.3478  -42.2329 N.am      6 UNK        -0.5000 
     45 C          -2.4866  -15.2049  -43.5013 C.2       5 UNK         0.5000 
     46 O          -2.8867  -16.1357  -44.1978 O.2       5 UNK        -0.5000 
     47 CA         -2.3931  -13.7939  -44.1114 C.3       5 UNK         0.1400 
     48 CB         -3.6556  -12.9815  -43.7879 C.3       5 UNK        -0.1800 
     49 N          -1.2097  -13.0351  -43.6968 N.am      5 UNK        -0.5000 
     50 C           0.0595  -13.4376  -43.8424 C.2       4 UNK         0.5000 
     51 O           0.3826  -14.5359  -44.2974 O.2       4 UNK        -0.5000 
     52 CA          1.1341  -12.4166  -43.4452 C.3       4 UNK         0.1400 
     53 CB          2.4952  -13.0719  -43.1641 C.3       4 UNK        -0.1800 
     54 N           1.2775  -11.4515  -44.5308 N.am      4 UNK        -0.5000 
     55 C           0.6330  -10.2791  -44.6009 C.2       3 UNK         0.5000 
     56 O          -0.1327   -9.8842  -43.7194 O.2       3 UNK        -0.5000 
     57 CA          0.8297   -9.4165  -45.8689 C.3       3 UNK         0.1400 
     58 CB          0.9809   -7.9167  -45.5380 C.3       3 UNK        -0.1800 
     59 N           1.9028   -9.8718  -46.7627 N.am      3 UNK        -0.5000 
     60 C           3.2219   -9.8874  -46.5247 C.2       2 UNK         0.5000 
     61 O           3.7509   -9.4859  -45.4866 O.2       2 UNK        -0.5000 
     62 CA          4.0938  -10.4975  -47.6389 C.3       2 UNK         0.1400 
     63 CB          5.2035   -9.5259  -48.0718 C.3       2 UNK        -0.1800 
     64 N           4.7003  -11.7655  -47.2330 N.am      2 UNK        -0.5000 
     65 C           4.0416  -12.8614  -46.8245 C.2       1 UNK         0.5000 
     66 O           2.8139  -12.9228  -46.7431 O.2       1 UNK        -0.5000 
     67 C           0.1913  -22.9031  -48.0318 C.2       11 UNK         0.5000 
     68 O           0.4440  -23.9753  -48.5787 O.2       11 UNK        -0.5000 
     69 N          -0.9036  -22.1767  -48.2939 N.am      12 UNK        -0.5000 
     70 CA         -1.9439  -22.5486  -49.2504 C.3       12 UNK         0.1400 
     71 CB         -2.9810  -21.4242  -49.3298 C.3       12 UNK        -0.1800 
     72 C          -2.6261  -23.8845  -48.9122 C.2       12 UNK         0.5000 
     73 O          -2.8433  -24.6941  -49.8134 O.2       12 UNK        -0.5000 
     74 N          -2.9148  -24.1063  -47.6224 N.am      13 UNK        -0.5000 
     75 CA         -3.4647  -25.3556  -47.0994 C.3       13 UNK         0.1400 
     76 CB         -3.8715  -25.1671  -45.6303 C.3       13 UNK        -0.1800 
     77 C          -2.4932  -26.5395  -47.2545 C.2       13 UNK         0.5000 
     78 O          -2.9173  -27.6136  -47.6813 O.2       13 UNK        -0.5000 
     79 N          -1.2083  -26.3167  -46.9415 N.am      14 UNK        -0.5000 
     80 CA         -0.1343  -27.3022  -47.0888 C.3       14 UNK         0.1400 
     81 CB          1.1363  -26.7837  -46.3981 C.3       14 UNK        -0.1800 
     82 C           0.1512  -27.6639  -48.5590 C.2       14 UNK         0.5000 
     83 O           0.3668  -28.8366  -48.8673 O.2       14 UNK        -0.5000 
     84 N           0.1229  -26.6556  -49.4400 N.am      15 UNK        -0.5000 
     85 CA          0.2913  -26.7954  -50.8876 C.3       15 UNK         0.1400 
     86 CB          0.6043  -25.4123  -51.4822 C.3       15 UNK        -0.1800 
     87 C          -0.9334  -27.4082  -51.5959 C.2       15 UNK         0.5000 
     88 O          -0.7992  -27.8593  -52.7341 O.2       15 UNK        -0.5000 
     89 N          -2.0962  -27.3888  -50.9267 N.am      16 UNK        -0.5000 
     90 CA         -3.4250  -27.7521  -51.4293 C.3       16 UNK         0.1400 
     91 CB         -3.5067  -29.2579  -51.7557 C.3       16 UNK        -0.1800 
     92 C          -3.8636  -26.8413  -52.5962 C.2       16 UNK         0.5000 
     93 O          -4.3623  -27.3211  -53.6168 O.2       16 UNK        -0.5000 
     94 N          -3.6378  -25.5333  -52.4218 N.am      17 UNK        -0.5000 
     95 CA         -3.9863  -24.4785  -53.3701 C.3       17 UNK         0.1400 
     96 CB         -3.1518  -23.2310  -53.0337 C.3       17 UNK        -0.1800 
     97 C          -5.4949  -24.1581  -53.3528 C.2       17 UNK         0.5000 
     98 O          -6.2315  -24.6412  -52.4874 O.2       17 UNK        -0.5000 
     99 N          -5.9277  -23.3341  -54.3159 N.am      18 UNK        -0.5000 
    100 CA        -7.2996  -22.8467  -54.4628 C.3       18 UNK         0.1400 
    101 CB        -7.4735  -22.2697  -55.8783 C.3       18 UNK        -0.1800 
    102 C         -7.6614  -21.8279  -53.3621 C.2       18 UNK         0.5000 
    103 O         -7.5660  -20.6172  -53.5828 O.2       18 UNK        -0.5000 
    104 N         -8.0407  -22.3622  -52.1925 N.am      19 UNK        -0.5000 
    105 CA        -8.3698  -21.6759  -50.9385 C.3       19 UNK         0.1400 
    106 CB        -9.5587  -20.7104  -51.1378 C.3       19 UNK        -0.1800 
    107 C         -7.1532  -20.9731  -50.3017 C.2       19 UNK         0.5000 
    108 O         -6.0497  -21.0073  -50.8486 O.2       19 UNK        -0.5000 
    109 N         -7.3764  -20.3207  -49.1516 N.am      20 UNK        -0.5000 
    110 CA        -6.3735  -19.5370  -48.4168 C.3       20 UNK         0.1400 
    111 CB        -6.9889  -19.0528  -47.0956 C.3       20 UNK        -0.1800 
    112 C         -5.8036  -18.3447  -49.2144 C.2       20 UNK         0.5000 
    113 O         -4.6923  -17.8965  -48.9358 O.2       20 UNK        -0.5000 
    114 N         -6.5706  -17.8792  -50.2090 N.am      21 UNK        -0.5000 
    115 CA        -6.1845  -16.8655  -51.1875 C.3       21 UNK         0.1400 
    116 CB        -7.4644  -16.3219  -51.8441 C.3       21 UNK        -0.1800 
    117 C         -5.1994  -17.3762  -52.2624 C.2       21 UNK         0.5000 
    118 O         -4.7147  -16.5535  -53.0399 O.2       21 UNK        -0.5000 
    119 N         -4.9402  -18.6947  -52.2987 N.am      22 UNK        -0.5000 
    120 CA        -4.0644  -19.4192  -53.2376 C.3       22 UNK         0.1400 
    121 C         -4.3439  -19.1514  -54.7470 C.2       22 UNK         0.5000 
    122 N         -5.6059  -19.1086  -55.1548 N.am      22 UNK        -0.7600 
    123 O         -3.4327  -19.0073  -55.5577 O.2       22 UNK        -0.5000 
    124 C124       -2.5581  -19.4311  -52.8318 C.3       23 UNK        -0.0398 
    125 S125       -1.7380  -17.8008  -52.7045 S.3       23 UNK        -0.2404 
    126 C126       -1.4412  -17.6542  -50.9121 C.3       23 UNK        -0.0205 
    127 H127        8.1675  -11.7203  -44.4877 H         1 UNK         0.0600 
    128 H128        8.6668  -13.0952  -45.4769 H         1 UNK         0.0600 
    129 H129        8.4090  -13.3040  -43.7427 H         1 UNK         0.0600 
    130 H130        6.9944  -13.9218  -46.6859 H         1 UNK         0.3000 
    131 H131        4.4223  -14.5597  -45.5756 H         1 UNK         0.0600 
    132 H132        5.1542  -14.6536  -48.5394 H         1 UNK         0.0800 
    133 H133        5.7819  -15.8232  -47.4170 H         1 UNK         0.0800 
    134 H134        4.1508  -16.3713  -49.9964 H         1 UNK         0.0800 
    135 H135        2.8421  -15.2230  -49.8175 H         1 UNK         0.0800 
    136 H136        0.5654  -15.9603  -50.1821 H         1 UNK         0.1150 
    137 H137       -0.2621  -20.1174  -50.8256 H         1 UNK         0.1150 
    138 H138        3.6809  -18.8582  -49.7062 H         1 UNK         0.1150 
    139 H139        1.3853  -21.7745  -50.4440 H         1 UNK         0.0800 
    140 H140        2.8742  -21.2369  -51.1736 H         1 UNK         0.0800 
    141 H141        1.3558  -20.3426  -47.7577 H         1 UNK         0.0800 
    142 H142        2.6068  -20.7943  -46.6487 H         1 UNK         0.0800 
    143 H143        1.8290  -23.1716  -46.6824 H         1 UNK         0.0600 
    144 H144        0.4687  -21.0190  -45.4622 H         1 UNK         0.3000 
    145 H145       -1.8626  -22.9215  -43.5183 H         1 UNK         0.0600 
    146 H146       -0.7669  -21.5596  -41.7705 H         1 UNK         0.0600 
    147 H147        0.3230  -22.8321  -42.3005 H         1 UNK         0.0600 
    148 H148        0.5702  -21.1792  -42.8528 H         1 UNK         0.0600 
    149 H149       -1.4925  -20.1174  -43.7609 H         1 UNK         0.3000 
    150 H150       -3.8261  -19.6018  -46.4601 H         1 UNK         0.0600 
    151 H151       -5.0980  -19.7510  -44.3154 H         1 UNK         0.0600 
    152 H152       -4.7319  -18.0817  -44.7225 H         1 UNK         0.0600 
    153 H153       -3.8025  -18.9058  -43.4749 H         1 UNK         0.0600 
    154 H154       -2.2583  -17.7203  -45.0708 H         1 UNK         0.3000 
    155 H155        0.6238  -17.8285  -47.2461 H         1 UNK         0.0600 
    156 H156       -1.5169  -15.7476  -46.5540 H         1 UNK         0.0600 
    157 H157        0.0643  -15.4303  -47.2662 H         1 UNK         0.0600 
    158 H158       -1.1557  -16.3120  -48.1762 H         1 UNK         0.0600 
    159 H159        0.2210  -16.3329  -44.8878 H         1 UNK         0.3000 
    160 H160        1.4695  -18.6984  -42.5084 H         1 UNK         0.0600 
    161 H161        2.5029  -16.0503  -43.6579 H         1 UNK         0.0600 
    162 H162        3.4276  -17.5282  -43.4546 H         1 UNK         0.0600 
    163 H163        2.8494  -16.6610  -42.0397 H         1 UNK         0.0600 
    164 H164        0.3271  -16.0467  -42.3696 H         1 UNK         0.3000 
    165 H165       -3.0013  -17.1104  -41.6267 H         1 UNK         0.0600 
    166 H166       -2.5620  -15.7652  -39.5946 H         1 UNK         0.0600 
    167 H167       -1.7447  -17.3153  -39.4770 H         1 UNK         0.0600 
    168 H168       -0.8217  -15.8679  -39.8630 H         1 UNK         0.0600 
    169 H169       -1.7605  -14.5308  -41.7323 H         1 UNK         0.3000 
    170 H170       -2.3367  -13.9115  -45.1951 H         1 UNK         0.0600 
    171 H171       -4.5540  -13.5123  -44.1059 H         1 UNK         0.0600 
    172 H172       -3.7483  -12.7901  -42.7181 H         1 UNK         0.0600 
    173 H173       -3.6490  -12.0202  -44.3021 H         1 UNK         0.0600 
    174 H174       -1.3752  -12.1025  -43.3431 H         1 UNK         0.3000 
    175 H175        0.8144  -11.9193  -42.5270 H         1 UNK         0.0600 
    176 H176        2.8795  -13.5995  -44.0359 H         1 UNK         0.0600 
    177 H177        3.2358  -12.3266  -42.8739 H         1 UNK         0.0600 
    178 H178        2.4213  -13.7926  -42.3492 H         1 UNK         0.0600 
    179 H179        1.8343  -11.7548  -45.3230 H         1 UNK         0.3000 
    180 H180       -0.0927   -9.5280  -46.4405 H         1 UNK         0.0600 
    181 H181        1.8386   -7.7268  -44.8924 H         1 UNK         0.0600 
    182 H182        0.0977   -7.5386  -45.0220 H         1 UNK         0.0600 
    183 H183        1.1032   -7.3226  -46.4436 H         1 UNK         0.0600 
    184 H184        1.5825  -10.2692  -47.6353 H         1 UNK         0.3000 
    185 H185        3.4659  -10.6973  -48.5097 H         1 UNK         0.0600 
    186 H186        4.7835   -8.5691  -48.3848 H         1 UNK         0.0600 
    187 H187        5.9049   -9.3267  -47.2605 H         1 UNK         0.0600 
    188 H188        5.7696   -9.9226  -48.9149 H         1 UNK         0.0600 
    189 H189        5.7088  -11.7944  -47.2264 H         1 UNK         0.3000 
    190 H190       -1.0257  -21.2790  -47.8281 H         1 UNK         0.3000 
    191 H191       -1.4714  -22.6512  -50.2292 H         1 UNK         0.0600 
    192 H192       -3.4833  -21.2777  -48.3748 H         1 UNK         0.0600 
    193 H193       -3.7423  -21.6523  -50.0721 H         1 UNK         0.0600 
    194 H194       -2.5225  -20.4777  -49.6086 H         1 UNK         0.0600 
    195 H195       -2.7551  -23.3614  -46.9496 H         1 UNK         0.3000 
    196 H196       -4.3650  -25.5880  -47.6722 H         1 UNK         0.0600 
    197 H197       -4.2965  -26.0844  -45.2211 H         1 UNK         0.0600 
    198 H198       -4.6246  -24.3855  -45.5285 H         1 UNK         0.0600 
    199 H199       -3.0200  -24.8919  -45.0075 H         1 UNK         0.0600 
    200 H200       -0.9446  -25.4113  -46.5643 H         1 UNK         0.3000 
    201 H201       -0.4470  -28.2156  -46.5785 H         1 UNK         0.0600 
    202 H202        0.9619  -26.6042  -45.3371 H         1 UNK         0.0600 
    203 H203        1.4839  -25.8500  -46.8412 H         1 UNK         0.0600 
    204 H204        1.9479  -27.5079  -46.4769 H         1 UNK         0.0600 
    205 H205        0.0172  -25.7058  -49.0886 H         1 UNK         0.3000 
    206 H206        1.1441  -27.4510  -51.0745 H         1 UNK         0.0600 
    207 H207        1.5036  -24.9853  -51.0377 H         1 UNK         0.0600 
    208 H208        0.7717  -25.4749  -52.5581 H         1 UNK         0.0600 
    209 H209       -0.2153  -24.7117  -51.3171 H         1 UNK         0.0600 
    210 H210       -2.0891  -26.9576  -50.0117 H         1 UNK         0.3000 
    211 H211       -4.1207  -27.5554  -50.6121 H         1 UNK         0.0600 
    212 H212       -2.8791  -29.5268  -52.6055 H         1 UNK         0.0600 
    213 H213       -4.5291  -29.5468  -52.0018 H         1 UNK         0.0600 
    214 H214       -3.1951  -29.8618  -50.9034 H         1 UNK         0.0600 
    215 H215       -3.2808  -25.2280  -51.5188 H         1 UNK         0.3000 
    216 H216       -3.7194  -24.8161  -54.3737 H         1 UNK         0.0600 
    217 H217       -3.2492  -22.4725  -53.8103 H         1 UNK         0.0600 
    218 H218       -2.0915  -23.4720  -52.9530 H         1 UNK         0.0600 
    219 H219       -3.4664  -22.7839  -52.0912 H         1 UNK         0.0600 
    220 H220       -5.2601  -22.9709  -54.9799 H         1 UNK         0.3000 
    221 H221       -7.9819  -23.6946  -54.3707 H         1 UNK         0.0600 
    222 H222       -6.7604  -21.4715  -56.0831 H         1 UNK         0.0600 
    223 H223       -7.3354  -23.0412  -56.6360 H         1 UNK         0.0600 
    224 H224       -8.4750  -21.8591  -56.0128 H         1 UNK         0.0600 
    225 H225       -7.9398  -23.3672  -52.1116 H         1 UNK         0.3000 
    226 H226       -8.6796  -22.4564  -50.2423 H         1 UNK         0.0600 
    227 H227      -10.3829  -21.2034  -51.6535 H         1 UNK         0.0600 
    228 H228       -9.9486  -20.3558  -50.1835 H         1 UNK         0.0600 
    229 H229       -9.2789  -19.8324  -51.7209 H         1 UNK         0.0600 
    230 H230       -8.3029  -20.3435  -48.7505 H         1 UNK         0.3000 
    231 H231       -5.5398  -20.1998  -48.1830 H         1 UNK         0.0600 
    232 H232       -6.2851  -18.4335  -46.5397 H         1 UNK         0.0600 
    233 H233       -7.2595  -19.8921  -46.4547 H         1 UNK         0.0600 
    234 H234       -7.8844  -18.4537  -47.2649 H         1 UNK         0.0600 
    235 H235       -7.4682  -18.3167  -50.3529 H         1 UNK         0.3000 
    236 H236       -5.6932  -16.0457  -50.6593 H         1 UNK         0.0600 
    237 H237       -8.1454  -15.9074  -51.1005 H         1 UNK         0.0600 
    238 H238       -7.2347  -15.5238  -52.5513 H         1 UNK         0.0600 
    239 H239       -7.9961  -17.1017  -52.3913 H         1 UNK         0.0600 
    240 H240       -5.4256  -19.2956  -51.6411 H         1 UNK         0.3000 
    241 H241       -4.3876  -20.4540  -53.1222 H         1 UNK         0.0600 
    242 H242       -6.3603  -19.3367  -54.5143 H         1 UNK         0.3800 
    243 H243       -5.8084  -18.9309  -56.1251 H         1 UNK         0.3800 
    244 H244       -2.4580  -19.9542  -51.8828 H         1 UNK         0.0800 
    245 H245       -1.9862  -20.0341  -53.5386 H         1 UNK         0.0800 
    246 H246       -2.1343  -18.2757  -50.3444 H         1 UNK         0.0800 
    247 H247       -1.6636  -16.6276  -50.6184 H         1 UNK         0.0800 
@<TRIPOS>BOND
     1    1    2 1    
     2    1  127 1    
     3    1  128 1    
     4    1  129 1    
     5    2    3 2    
     6    2    4 am   BACKBONE|DICT|INTERRES
     7    4    5 1    
     8    4  130 1    
     9    5    6 1    
    10    5   65 1    
    11    5  131 1    
    12    6    7 1    
    13    6  132 1    
    14    6  133 1    
    15    7    8 1    
    16    8    9 1    
    17    8  134 1    
    18    8  135 1    
    19    9   10 ar   
    20    9   14 ar   
    21   10   11 ar   
    22   10  136 1    
    23   11   12 ar   
    24   11  126 1    
    25   12   13 ar   
    26   12  137 1    
    27   13   14 ar   
    28   13   15 1    
    29   14  138 1    
    30   15   16 1    
    31   15  139 1    
    32   15  140 1    
    33   16   17 1    
    34   17   18 1    
    35   17  141 1    
    36   17  142 1    
    37   18   19 1    
    38   18   67 1    
    39   18  143 1    
    40   19   20 am   BACKBONE|DICT|INTERRES
    41   19  144 1    
    42   20   21 2    
    43   20   22 1    
    44   22   23 1    
    45   22   24 1    
    46   22  145 1    
    47   23  146 1    
    48   23  147 1    
    49   23  148 1    
    50   24   25 am   BACKBONE|DICT|INTERRES
    51   24  149 1    
    52   25   26 2    
    53   25   27 1    
    54   27   28 1    
    55   27   29 1    
    56   27  150 1    
    57   28  151 1    
    58   28  152 1    
    59   28  153 1    
    60   29   30 am   BACKBONE|DICT|INTERRES
    61   29  154 1    
    62   30   31 2    
    63   30   32 1    
    64   32   33 1    
    65   32   34 1    
    66   32  155 1    
    67   33  156 1    
    68   33  157 1    
    69   33  158 1    
    70   34   35 am   BACKBONE|DICT|INTERRES
    71   34  159 1    
    72   35   36 2    
    73   35   37 1    
    74   37   38 1    
    75   37   39 1    
    76   37  160 1    
    77   38  161 1    
    78   38  162 1    
    79   38  163 1    
    80   39   40 am   BACKBONE|DICT|INTERRES
    81   39  164 1    
    82   40   41 2    
    83   40   42 1    
    84   42   43 1    
    85   42   44 1    
    86   42  165 1    
    87   43  166 1    
    88   43  167 1    
    89   43  168 1    
    90   44   45 am   BACKBONE|DICT|INTERRES
    91   44  169 1    
    92   45   46 2    
    93   45   47 1    
    94   47   48 1    
    95   47   49 1    
    96   47  170 1    
    97   48  171 1    
    98   48  172 1    
    99   48  173 1    
   100   49   50 am   BACKBONE|DICT|INTERRES
   101   49  174 1    
   102   50   51 2    
   103   50   52 1    
   104   52   53 1    
   105   52   54 1    
   106   52  175 1    
   107   53  176 1    
   108   53  177 1    
   109   53  178 1    
   110   54   55 am   BACKBONE|DICT|INTERRES
   111   54  179 1    
   112   55   56 2    
   113   55   57 1    
   114   57   58 1    
   115   57   59 1    
   116   57  180 1    
   117   58  181 1    
   118   58  182 1    
   119   58  183 1    
   120   59   60 am   BACKBONE|DICT|INTERRES
   121   59  184 1    
   122   60   61 2    
   123   60   62 1    
   124   62   63 1    
   125   62   64 1    
   126   62  185 1    
   127   63  186 1    
   128   63  187 1    
   129   63  188 1    
   130   64   65 am   BACKBONE|DICT|INTERRES
   131   64  189 1    
   132   65   66 2    
   133   67   68 2    
   134   67   69 am   BACKBONE|DICT|INTERRES
   135   69   70 1    
   136   69  190 1    
   137   70   71 1    
   138   70   72 1    
   139   70  191 1    
   140   71  192 1    
   141   71  193 1    
   142   71  194 1    
   143   72   73 2    
   144   72   74 am   BACKBONE|DICT|INTERRES
   145   74   75 1    
   146   74  195 1    
   147   75   76 1    
   148   75   77 1    
   149   75  196 1    
   150   76  197 1    
   151   76  198 1    
   152   76  199 1    
   153   77   78 2    
   154   77   79 am   BACKBONE|DICT|INTERRES
   155   79   80 1    
   156   79  200 1    
   157   80   81 1    
   158   80   82 1    
   159   80  201 1    
   160   81  202 1    
   161   81  203 1    
   162   81  204 1    
   163   82   83 2    
   164   82   84 am   BACKBONE|DICT|INTERRES
   165   84   85 1    
   166   84  205 1    
   167   85   86 1    
   168   85   87 1    
   169   85  206 1    
   170   86  207 1    
   171   86  208 1    
   172   86  209 1    
   173   87   88 2    
   174   87   89 am   BACKBONE|DICT|INTERRES
   175   89   90 1    
   176   89  210 1    
   177   90   91 1    
   178   90   92 1    
   179   90  211 1    
   180   91  212 1    
   181   91  213 1    
   182   91  214 1    
   183   92   93 2    
   184   92   94 am   BACKBONE|DICT|INTERRES
   185   94   95 1    
   186   94  215 1    
   187   95   96 1    
   188   95   97 1    
   189   95  216 1    
   190   96  217 1    
   191   96  218 1    
   192   96  219 1    
   193   97   98 2    
   194   97   99 am   BACKBONE|DICT|INTERRES
   195   99  100 1    
   196   99  220 1    
   197  100  101 1    
   198  100  102 1    
   199  100  221 1    
   200  101  222 1    
   201  101  223 1    
   202  101  224 1    
   203  102  103 2    
   204  102  104 am   BACKBONE|DICT|INTERRES
   205  104  105 1    
   206  104  225 1    
   207  105  106 1    
   208  105  107 1    
   209  105  226 1    
   210  106  227 1    
   211  106  228 1    
   212  106  229 1    
   213  107  108 2    
   214  107  109 am   BACKBONE|DICT|INTERRES
   215  109  110 1    
   216  109  230 1    
   217  110  111 1    
   218  110  112 1    
   219  110  231 1    
   220  111  232 1    
   221  111  233 1    
   222  111  234 1    
   223  112  113 2    
   224  112  114 am   BACKBONE|DICT|INTERRES
   225  114  115 1    
   226  114  235 1    
   227  115  116 1    
   228  115  117 1    
   229  115  236 1    
   230  116  237 1    
   231  116  238 1    
   232  116  239 1    
   233  117  118 2    
   234  117  119 am   BACKBONE|DICT|INTERRES
   235  119  120 1    
   236  119  240 1    
   237  120  121 1    
   238  120  124 1    
   239  120  241 1    
   240  121  122 am   BACKBONE|DICT|INTERRES
   241  121  123 2    
   242  122  242 1    
   243  122  243 1    
   244  124  125 1    
   245  124  244 1    
   246  124  245 1    
   247  125  126 1    
   248  126  246 1    
   249  126  247 1    
@<TRIPOS>SUBSTRUCTURE
     1 UNK         1 GROUP             0       ****    0 ROOT    
