@<TRIPOS>MOLECULE
3R540
247   249    1
SMALL
USER_CHARGES


@<TRIPOS>ATOM
      1 CA          6.1518  -19.0214  -44.8388 C.3       0 UNK        -0.1800 
      2 C           5.4859  -17.7268  -45.2803 C.2       0 UNK         0.5000 
      3 O           5.0622  -16.9411  -44.4344 O.2       0 UNK        -0.5000 
      4 N           5.4122  -17.4982  -46.5997 N.am      1 UNK        -0.5000 
      5 CA          4.7557  -16.3626  -47.2710 C.3       1 UNK         0.1400 
      6 C6          4.9362  -16.4253  -48.8101 C.3       23 UNK        -0.0398 
      7 S7          4.4512  -18.0267  -49.5505 S.3       23 UNK        -0.2404 
      8 C8          3.5881  -17.5025  -51.0701 C.3       23 UNK        -0.0205 
      9 C9          2.0739  -17.5374  -50.9147 C.ar      23 UNK        -0.0193 
     10 C10         1.3048  -18.4003  -51.7025 C.ar      23 UNK        -0.1150 
     11 C11        -0.0853  -18.4486  -51.5588 C.ar      23 UNK        -0.0193 
     12 C12        -0.7067  -17.6248  -50.6165 C.ar      23 UNK        -0.1150 
     13 C13         0.0516  -16.7598  -49.8221 C.ar      23 UNK        -0.0193 
     14 C14         1.4377  -16.7108  -49.9851 C.ar      23 UNK        -0.1150 
     15 C15        -0.6141  -15.8984  -48.7624 C.3       23 UNK        -0.0205 
     16 S16        -0.4907  -16.6689  -47.1178 S.3       23 UNK        -0.2404 
     17 C17        -1.6521  -18.0646  -47.2808 C.3       23 UNK        -0.0398 
     18 CA         -0.9570  -19.4203  -47.5603 C.3       11 UNK         0.1400 
     19 N          -0.0818  -19.8596  -46.4710 N.am      11 UNK        -0.5000 
     20 C           0.6883  -20.9573  -46.4918 C.2       10 UNK         0.5000 
     21 O           0.7969  -21.7031  -47.4632 O.2       10 UNK        -0.5000 
     22 CA          1.4098  -21.3235  -45.1855 C.3       10 UNK         0.1400 
     23 CB          2.7318  -20.5511  -45.0472 C.3       10 UNK        -0.1800 
     24 N           0.5609  -21.0828  -44.0188 N.am      10 UNK        -0.5000 
     25 C          -0.5090  -21.8215  -43.6940 C.2       9 UNK         0.5000 
     26 O          -0.8633  -22.8211  -44.3200 O.2       9 UNK        -0.5000 
     27 CA         -1.3408  -21.3435  -42.4878 C.3       9 UNK         0.1400 
     28 CB         -0.7178  -21.8336  -41.1723 C.3       9 UNK        -0.1800 
     29 N          -1.4942  -19.8874  -42.4386 N.am      9 UNK        -0.5000 
     30 C          -2.2108  -19.1774  -43.3207 C.2       8 UNK         0.5000 
     31 O          -2.8350  -19.6828  -44.2540 O.2       8 UNK        -0.5000 
     32 CA         -2.1918  -17.6415  -43.1686 C.3       8 UNK         0.1400 
     33 CB         -3.2251  -17.1927  -42.1248 C.3       8 UNK        -0.1800 
     34 N          -0.8903  -17.0449  -42.8406 N.am      8 UNK        -0.5000 
     35 C           0.2826  -17.3126  -43.4340 C.2       7 UNK         0.5000 
     36 O           0.4342  -18.2156  -44.2511 O.2       7 UNK        -0.5000 
     37 CA          1.4969  -16.4307  -43.0975 C.3       7 UNK         0.1400 
     38 CB          2.0431  -15.7993  -44.3881 C.3       7 UNK        -0.1800 
     39 N           1.2169  -15.3844  -42.1085 N.am      7 UNK        -0.5000 
     40 C           1.1840  -15.5891  -40.7819 C.2       6 UNK         0.5000 
     41 O           1.3619  -16.6960  -40.2728 O.2       6 UNK        -0.5000 
     42 CA          0.8957  -14.3844  -39.8614 C.3       6 UNK         0.1400 
     43 CB          2.0354  -14.1575  -38.8544 C.3       6 UNK        -0.1800 
     44 N           0.6716  -13.1431  -40.6012 N.am      6 UNK        -0.5000 
     45 C          -0.5288  -12.6927  -40.9906 C.2       5 UNK         0.5000 
     46 O          -1.5878  -13.2687  -40.7398 O.2       5 UNK        -0.5000 
     47 CA         -0.5530  -11.3934  -41.8225 C.3       5 UNK         0.1400 
     48 CB         -0.8050  -10.1794  -40.9157 C.3       5 UNK        -0.1800 
     49 N           0.6699  -11.1640  -42.5974 N.am      5 UNK        -0.5000 
     50 C           1.1219  -11.9686  -43.5684 C.2       4 UNK         0.5000 
     51 O           0.5342  -12.9899  -43.9210 O.2       4 UNK        -0.5000 
     52 CA          2.4634  -11.6055  -44.2358 C.3       4 UNK         0.1400 
     53 CB          2.9030  -10.1429  -44.0033 C.3       4 UNK        -0.1800 
     54 N           3.5399  -12.5230  -43.8500 N.am      4 UNK        -0.5000 
     55 C           3.9782  -12.7991  -42.6101 C.2       3 UNK         0.5000 
     56 O           3.4488  -12.3588  -41.5881 O.2       3 UNK        -0.5000 
     57 CA          5.2228  -13.7067  -42.4752 C.3       3 UNK         0.1400 
     58 CB          4.9025  -15.0041  -41.7175 C.3       3 UNK        -0.1800 
     59 N           5.8541  -14.0460  -43.7541 N.am      3 UNK        -0.5000 
     60 C           6.6088  -13.2026  -44.4749 C.2       2 UNK         0.5000 
     61 O           6.8718  -12.0553  -44.1126 O.2       2 UNK        -0.5000 
     62 CA          7.1601  -13.7000  -45.8276 C.3       2 UNK         0.1400 
     63 CB          8.6672  -13.9807  -45.7213 C.3       2 UNK        -0.1800 
     64 N           6.4999  -14.8956  -46.3544 N.am      2 UNK        -0.5000 
     65 C           5.2244  -14.9797  -46.7591 C.2       1 UNK         0.5000 
     66 O           4.4338  -14.0357  -46.7231 O.2       1 UNK        -0.5000 
     67 C          -2.0124  -20.4894  -47.8965 C.2       11 UNK         0.5000 
     68 O          -2.1676  -20.8346  -49.0664 O.2       11 UNK        -0.5000 
     69 N          -2.6880  -21.0199  -46.8657 N.am      12 UNK        -0.5000 
     70 CA         -3.6758  -22.0920  -46.9882 C.3       12 UNK         0.1400 
     71 CB         -4.3533  -22.3310  -45.6313 C.3       12 UNK        -0.1800 
     72 C          -3.0755  -23.3982  -47.5350 C.2       12 UNK         0.5000 
     73 O          -3.6927  -24.0298  -48.3930 O.2       12 UNK        -0.5000 
     74 N          -1.8757  -23.7611  -47.0597 N.am      13 UNK        -0.5000 
     75 CA         -1.1176  -24.9181  -47.5353 C.3       13 UNK         0.1400 
     76 CB          0.0944  -25.1583  -46.6227 C.3       13 UNK        -0.1800 
     77 C          -0.6846  -24.7731  -49.0054 C.2       13 UNK         0.5000 
     78 O          -0.8939  -25.6972  -49.7913 O.2       13 UNK        -0.5000 
     79 N          -0.1337  -23.6046  -49.3626 N.am      14 UNK        -0.5000 
     80 CA          0.2923  -23.2604  -50.7210 C.3       14 UNK         0.1400 
     81 CB          1.0836  -21.9450  -50.6873 C.3       14 UNK        -0.1800 
     82 C          -0.8781  -23.1772  -51.7198 C.2       14 UNK         0.5000 
     83 O          -0.7164  -23.5654  -52.8767 O.2       14 UNK        -0.5000 
     84 N          -2.0438  -22.7155  -51.2476 N.am      15 UNK        -0.5000 
     85 CA         -3.3022  -22.6848  -51.9948 C.3       15 UNK         0.1400 
     86 CB         -4.2332  -21.6373  -51.3646 C.3       15 UNK        -0.1800 
     87 C          -4.0146  -24.0527  -52.0631 C.2       15 UNK         0.5000 
     88 O          -5.0792  -24.1332  -52.6769 O.2       15 UNK        -0.5000 
     89 N          -3.4541  -25.0843  -51.4120 N.am      16 UNK        -0.5000 
     90 CA         -3.9575  -26.4580  -51.3121 C.3       16 UNK         0.1400 
     91 CB         -3.8713  -27.1664  -52.6795 C.3       16 UNK        -0.1800 
     92 C          -5.3595  -26.5299  -50.6725 C.2       16 UNK         0.5000 
     93 O          -6.2536  -27.1875  -51.2063 O.2       16 UNK        -0.5000 
     94 N          -5.5171  -25.8252  -49.5425 N.am      17 UNK        -0.5000 
     95 CA         -6.7564  -25.6208  -48.7864 C.3       17 UNK         0.1400 
     96 CB         -7.3224  -26.9520  -48.2473 C.3       17 UNK        -0.1800 
     97 C          -7.7836  -24.7835  -49.5757 C.2       17 UNK         0.5000 
     98 O          -8.9755  -25.0966  -49.5742 O.2       17 UNK        -0.5000 
     99 N          -7.2820  -23.7205  -50.2235 N.am      18 UNK        -0.5000 
    100 CA        -8.0148  -22.7410  -51.0327 C.3       18 UNK         0.1400 
    101 CB        -8.9840  -21.9191  -50.1572 C.3       18 UNK        -0.1800 
    102 C         -8.6921  -23.3707  -52.2664 C.2       18 UNK         0.5000 
    103 O         -9.8618  -23.0977  -52.5448 O.2       18 UNK        -0.5000 
    104 N         -7.9353  -24.1881  -53.0093 N.am      19 UNK        -0.5000 
    105 CA        -8.3694  -24.8825  -54.2239 C.3       19 UNK         0.1400 
    106 CB        -7.4964  -26.1352  -54.4139 C.3       19 UNK        -0.1800 
    107 C         -8.3520  -23.9556  -55.4593 C.2       19 UNK         0.5000 
    108 O         -7.7240  -24.2810  -56.4686 O.2       19 UNK        -0.5000 
    109 N         -9.0341  -22.8060  -55.3443 N.am      20 UNK        -0.5000 
    110 CA        -9.1524  -21.7303  -56.3374 C.3       20 UNK         0.1400 
    111 CB        -9.9928  -22.1981  -57.5441 C.3       20 UNK        -0.1800 
    112 C         -7.7883  -21.1295  -56.7464 C.2       20 UNK         0.5000 
    113 O         -7.5750  -20.8132  -57.9188 O.2       20 UNK        -0.5000 
    114 N         -6.8882  -20.9911  -55.7664 N.am      21 UNK        -0.5000 
    115 CA        -5.5338  -20.4725  -55.9224 C.3       21 UNK         0.1400 
    116 CB        -4.5388  -21.6369  -55.7910 C.3       21 UNK        -0.1800 
    117 C         -5.2693  -19.4127  -54.8454 C.2       21 UNK         0.5000 
    118 O         -5.7668  -19.5463  -53.7249 O.2       21 UNK        -0.5000 
    119 N         -4.4779  -18.3955  -55.2072 N.am      22 UNK        -0.5000 
    120 CA        -4.0108  -17.2939  -54.3415 C.3       22 UNK         0.1400 
    121 C         -5.1300  -16.3474  -53.8035 C.2       22 UNK         0.5000 
    122 N         -6.3204  -16.3311  -54.3906 N.am      22 UNK        -0.7600 
    123 O         -4.9115  -15.5877  -52.8635 O.2       22 UNK        -0.5000 
    124 C124       -3.0405  -17.7703  -53.2231 C.3       23 UNK        -0.0398 
    125 S125       -1.5893  -18.6560  -53.8900 S.3       23 UNK        -0.2404 
    126 C126       -0.9070  -19.4230  -52.3897 C.3       23 UNK        -0.0205 
    127 H127        6.3596  -19.6791  -45.6831 H         1 UNK         0.0600 
    128 H128        5.5060  -19.5561  -44.1428 H         1 UNK         0.0600 
    129 H129        7.0923  -18.8042  -44.3328 H         1 UNK         0.0600 
    130 H130        5.7803  -18.1958  -47.2311 H         1 UNK         0.3000 
    131 H131        3.6890  -16.4412  -47.0543 H         1 UNK         0.0600 
    132 H132        4.3652  -15.6228  -49.2796 H         1 UNK         0.0800 
    133 H133        5.9792  -16.2475  -49.0794 H         1 UNK         0.0800 
    134 H134        3.9039  -16.5032  -51.3720 H         1 UNK         0.0800 
    135 H135        3.8982  -18.1681  -51.8771 H         1 UNK         0.0800 
    136 H136        1.7882  -19.0445  -52.4233 H         1 UNK         0.1150 
    137 H137       -1.7782  -17.6747  -50.4865 H         1 UNK         0.1150 
    138 H138        2.0221  -16.0467  -49.3652 H         1 UNK         0.1150 
    139 H139       -0.1300  -14.9212  -48.7298 H         1 UNK         0.0800 
    140 H140       -1.6597  -15.7112  -49.0114 H         1 UNK         0.0800 
    141 H141       -2.3695  -17.8290  -48.0687 H         1 UNK         0.0800 
    142 H142       -2.2356  -18.1206  -46.3623 H         1 UNK         0.0800 
    143 H143       -0.3238  -19.3091  -48.4418 H         1 UNK         0.0600 
    144 H144       -0.0509  -19.2681  -45.6427 H         1 UNK         0.3000 
    145 H145        1.6463  -22.3889  -45.2199 H         1 UNK         0.0600 
    146 H146        3.2535  -20.8254  -44.1305 H         1 UNK         0.0600 
    147 H147        3.3990  -20.7741  -45.8807 H         1 UNK         0.0600 
    148 H148        2.5791  -19.4719  -45.0362 H         1 UNK         0.0600 
    149 H149        0.7096  -20.2078  -43.5338 H         1 UNK         0.3000 
    150 H150       -2.3353  -21.7862  -42.5770 H         1 UNK         0.0600 
    151 H151       -0.6070  -22.9188  -41.1738 H         1 UNK         0.0600 
    152 H152       -1.3438  -21.5732  -40.3186 H         1 UNK         0.0600 
    153 H153        0.2707  -21.4026  -41.0083 H         1 UNK         0.0600 
    154 H154       -0.9943  -19.3942  -41.7133 H         1 UNK         0.3000 
    155 H155       -2.4886  -17.2230  -44.1317 H         1 UNK         0.0600 
    156 H156       -2.9548  -17.5271  -41.1224 H         1 UNK         0.0600 
    157 H157       -3.3180  -16.1066  -42.1021 H         1 UNK         0.0600 
    158 H158       -4.2127  -17.5970  -42.3515 H         1 UNK         0.0600 
    159 H159       -0.9071  -16.2805  -42.1824 H         1 UNK         0.3000 
    160 H160        2.2705  -17.0916  -42.7011 H         1 UNK         0.0600 
    161 H161        1.2884  -15.2079  -44.9050 H         1 UNK         0.0600 
    162 H162        2.3682  -16.5727  -45.0841 H         1 UNK         0.0600 
    163 H163        2.9041  -15.1637  -44.1974 H         1 UNK         0.0600 
    164 H164        1.0133  -14.4627  -42.4783 H         1 UNK         0.3000 
    165 H165        0.0013  -14.6379  -39.2886 H         1 UNK         0.0600 
    166 H166        1.7659  -13.3903  -38.1284 H         1 UNK         0.0600 
    167 H167        2.2590  -15.0663  -38.2943 H         1 UNK         0.0600 
    168 H168        2.9531  -13.8374  -39.3455 H         1 UNK         0.0600 
    169 H169        1.5036  -12.6324  -40.8804 H         1 UNK         0.3000 
    170 H170       -1.3833  -11.4729  -42.5271 H         1 UNK         0.0600 
    171 H171        0.0088  -10.0334  -40.2042 H         1 UNK         0.0600 
    172 H172       -0.9100   -9.2649  -41.4997 H         1 UNK         0.0600 
    173 H173       -1.7244  -10.3042  -40.3419 H         1 UNK         0.0600 
    174 H174        1.2258  -10.3611  -42.3411 H         1 UNK         0.3000 
    175 H175        2.3149  -11.7387  -45.3084 H         1 UNK         0.0600 
    176 H176        3.7967   -9.9123  -44.5834 H         1 UNK         0.0600 
    177 H177        3.1326   -9.9391  -42.9569 H         1 UNK         0.0600 
    178 H178        2.1279   -9.4433  -44.3188 H         1 UNK         0.0600 
    179 H179        4.0106  -12.9788  -44.6212 H         1 UNK         0.3000 
    180 H180        5.9481  -13.1516  -41.8768 H         1 UNK         0.0600 
    181 H181        4.1607  -15.6058  -42.2386 H         1 UNK         0.0600 
    182 H182        4.5157  -14.7947  -40.7213 H         1 UNK         0.0600 
    183 H183        5.7954  -15.6164  -41.5920 H         1 UNK         0.0600 
    184 H184        5.6727  -14.9786  -44.1124 H         1 UNK         0.3000 
    185 H185        7.0125  -12.8943  -46.5496 H         1 UNK         0.0600 
    186 H186        9.2064  -13.1011  -45.3669 H         1 UNK         0.0600 
    187 H187        8.8755  -14.7953  -45.0264 H         1 UNK         0.0600 
    188 H188        9.0890  -14.2483  -46.6903 H         1 UNK         0.0600 
    189 H189        7.0615  -15.7337  -46.3958 H         1 UNK         0.3000 
    190 H190       -2.5326  -20.6534  -45.9308 H         1 UNK         0.3000 
    191 H191       -4.4391  -21.7597  -47.6947 H         1 UNK         0.0600 
    192 H192       -4.8625  -21.4325  -45.2825 H         1 UNK         0.0600 
    193 H193       -5.1008  -23.1224  -45.7007 H         1 UNK         0.0600 
    194 H194       -3.6326  -22.6237  -44.8670 H         1 UNK         0.0600 
    195 H195       -1.4513  -23.2083  -46.3234 H         1 UNK         0.3000 
    196 H196       -1.7683  -25.7925  -47.4665 H         1 UNK         0.0600 
    197 H197        0.6577  -26.0349  -46.9449 H         1 UNK         0.0600 
    198 H198       -0.2171  -25.3321  -45.5926 H         1 UNK         0.0600 
    199 H199        0.7781  -24.3096  -46.6255 H         1 UNK         0.0600 
    200 H200        0.0337  -22.8992  -48.6474 H         1 UNK         0.3000 
    201 H201        0.9633  -24.0488  -51.0677 H         1 UNK         0.0600 
    202 H202        1.9640  -22.0313  -50.0503 H         1 UNK         0.0600 
    203 H203        0.4778  -21.1232  -50.3038 H         1 UNK         0.0600 
    204 H204        1.4315  -21.6690  -51.6831 H         1 UNK         0.0600 
    205 H205       -2.0734  -22.3397  -50.3036 H         1 UNK         0.3000 
    206 H206       -3.0878  -22.3746  -53.0190 H         1 UNK         0.0600 
    207 H207       -3.7629  -20.6573  -51.3118 H         1 UNK         0.0600 
    208 H208       -5.1359  -21.5160  -51.9613 H         1 UNK         0.0600 
    209 H209       -4.5321  -21.9181  -50.3542 H         1 UNK         0.0600 
    210 H210       -2.5938  -24.9103  -50.9070 H         1 UNK         0.3000 
    211 H211       -3.2865  -26.9814  -50.6298 H         1 UNK         0.0600 
    212 H212       -4.5310  -26.7091  -53.4162 H         1 UNK         0.0600 
    213 H213       -4.1530  -28.2165  -52.5947 H         1 UNK         0.0600 
    214 H214       -2.8559  -27.1339  -53.0745 H         1 UNK         0.0600 
    215 H215       -4.7215  -25.2868  -49.2011 H         1 UNK         0.3000 
    216 H216       -6.4800  -25.0161  -47.9213 H         1 UNK         0.0600 
    217 H217       -8.1489  -26.7711  -47.5592 H         1 UNK         0.0600 
    218 H218       -6.5626  -27.5109  -47.7012 H         1 UNK         0.0600 
    219 H219       -7.7006  -27.5901  -49.0461 H         1 UNK         0.0600 
    220 H220       -6.2815  -23.5928  -50.1870 H         1 UNK         0.3000 
    221 H221       -7.2736  -22.0459  -51.4244 H         1 UNK         0.0600 
    222 H222       -9.7967  -22.5303  -49.7638 H         1 UNK         0.0600 
    223 H223       -8.4645  -21.4671  -49.3123 H         1 UNK         0.0600 
    224 H224       -9.4346  -21.1083  -50.7307 H         1 UNK         0.0600 
    225 H225       -6.9544  -24.3032  -52.7626 H         1 UNK         0.3000 
    226 H226       -9.3997  -25.2177  -54.0886 H         1 UNK         0.0600 
    227 H227       -7.5576  -26.7931  -53.5474 H         1 UNK         0.0600 
    228 H228       -7.8191  -26.7127  -55.2809 H         1 UNK         0.0600 
    229 H229       -6.4490  -25.8717  -54.5630 H         1 UNK         0.0600 
    230 H230       -9.5120  -22.6500  -54.4619 H         1 UNK         0.3000 
    231 H231       -9.7015  -20.9241  -55.8492 H         1 UNK         0.0600 
    232 H232       -9.4827  -22.9729  -58.1173 H         1 UNK         0.0600 
    233 H233      -10.1974  -21.3700  -58.2236 H         1 UNK         0.0600 
    234 H234      -10.9550  -22.5972  -57.2232 H         1 UNK         0.0600 
    235 H235       -7.1550  -21.2142  -54.8177 H         1 UNK         0.3000 
    236 H236       -5.4093  -20.0077  -56.9027 H         1 UNK         0.0600 
    237 H237       -4.6780  -22.3629  -56.5923 H         1 UNK         0.0600 
    238 H238       -3.5078  -21.2843  -55.8430 H         1 UNK         0.0600 
    239 H239       -4.6624  -22.1626  -54.8436 H         1 UNK         0.0600 
    240 H240       -4.1223  -18.3735  -56.1523 H         1 UNK         0.3000 
    241 H241       -3.4282  -16.6500  -55.0012 H         1 UNK         0.0600 
    242 H242       -6.5175  -16.9403  -55.1681 H         1 UNK         0.3800 
    243 H243       -7.0351  -15.7096  -54.0457 H         1 UNK         0.3800 
    244 H244       -2.6675  -16.9171  -52.6550 H         1 UNK         0.0800 
    245 H245       -3.5644  -18.4115  -52.5131 H         1 UNK         0.0800 
    246 H246       -0.2860  -20.2644  -52.6968 H         1 UNK         0.0800 
    247 H247       -1.7056  -19.8467  -51.7827 H         1 UNK         0.0800 
@<TRIPOS>BOND
     1    1    2 1    
     2    1  127 1    
     3    1  128 1    
     4    1  129 1    
     5    2    3 2    
     6    2    4 am   BACKBONE|DICT|INTERRES
     7    4    5 1    
     8    4  130 1    
     9    5    6 1    
    10    5   65 1    
    11    5  131 1    
    12    6    7 1    
    13    6  132 1    
    14    6  133 1    
    15    7    8 1    
    16    8    9 1    
    17    8  134 1    
    18    8  135 1    
    19    9   10 ar   
    20    9   14 ar   
    21   10   11 ar   
    22   10  136 1    
    23   11   12 ar   
    24   11  126 1    
    25   12   13 ar   
    26   12  137 1    
    27   13   14 ar   
    28   13   15 1    
    29   14  138 1    
    30   15   16 1    
    31   15  139 1    
    32   15  140 1    
    33   16   17 1    
    34   17   18 1    
    35   17  141 1    
    36   17  142 1    
    37   18   19 1    
    38   18   67 1    
    39   18  143 1    
    40   19   20 am   BACKBONE|DICT|INTERRES
    41   19  144 1    
    42   20   21 2    
    43   20   22 1    
    44   22   23 1    
    45   22   24 1    
    46   22  145 1    
    47   23  146 1    
    48   23  147 1    
    49   23  148 1    
    50   24   25 am   BACKBONE|DICT|INTERRES
    51   24  149 1    
    52   25   26 2    
    53   25   27 1    
    54   27   28 1    
    55   27   29 1    
    56   27  150 1    
    57   28  151 1    
    58   28  152 1    
    59   28  153 1    
    60   29   30 am   BACKBONE|DICT|INTERRES
    61   29  154 1    
    62   30   31 2    
    63   30   32 1    
    64   32   33 1    
    65   32   34 1    
    66   32  155 1    
    67   33  156 1    
    68   33  157 1    
    69   33  158 1    
    70   34   35 am   BACKBONE|DICT|INTERRES
    71   34  159 1    
    72   35   36 2    
    73   35   37 1    
    74   37   38 1    
    75   37   39 1    
    76   37  160 1    
    77   38  161 1    
    78   38  162 1    
    79   38  163 1    
    80   39   40 am   BACKBONE|DICT|INTERRES
    81   39  164 1    
    82   40   41 2    
    83   40   42 1    
    84   42   43 1    
    85   42   44 1    
    86   42  165 1    
    87   43  166 1    
    88   43  167 1    
    89   43  168 1    
    90   44   45 am   BACKBONE|DICT|INTERRES
    91   44  169 1    
    92   45   46 2    
    93   45   47 1    
    94   47   48 1    
    95   47   49 1    
    96   47  170 1    
    97   48  171 1    
    98   48  172 1    
    99   48  173 1    
   100   49   50 am   BACKBONE|DICT|INTERRES
   101   49  174 1    
   102   50   51 2    
   103   50   52 1    
   104   52   53 1    
   105   52   54 1    
   106   52  175 1    
   107   53  176 1    
   108   53  177 1    
   109   53  178 1    
   110   54   55 am   BACKBONE|DICT|INTERRES
   111   54  179 1    
   112   55   56 2    
   113   55   57 1    
   114   57   58 1    
   115   57   59 1    
   116   57  180 1    
   117   58  181 1    
   118   58  182 1    
   119   58  183 1    
   120   59   60 am   BACKBONE|DICT|INTERRES
   121   59  184 1    
   122   60   61 2    
   123   60   62 1    
   124   62   63 1    
   125   62   64 1    
   126   62  185 1    
   127   63  186 1    
   128   63  187 1    
   129   63  188 1    
   130   64   65 am   BACKBONE|DICT|INTERRES
   131   64  189 1    
   132   65   66 2    
   133   67   68 2    
   134   67   69 am   BACKBONE|DICT|INTERRES
   135   69   70 1    
   136   69  190 1    
   137   70   71 1    
   138   70   72 1    
   139   70  191 1    
   140   71  192 1    
   141   71  193 1    
   142   71  194 1    
   143   72   73 2    
   144   72   74 am   BACKBONE|DICT|INTERRES
   145   74   75 1    
   146   74  195 1    
   147   75   76 1    
   148   75   77 1    
   149   75  196 1    
   150   76  197 1    
   151   76  198 1    
   152   76  199 1    
   153   77   78 2    
   154   77   79 am   BACKBONE|DICT|INTERRES
   155   79   80 1    
   156   79  200 1    
   157   80   81 1    
   158   80   82 1    
   159   80  201 1    
   160   81  202 1    
   161   81  203 1    
   162   81  204 1    
   163   82   83 2    
   164   82   84 am   BACKBONE|DICT|INTERRES
   165   84   85 1    
   166   84  205 1    
   167   85   86 1    
   168   85   87 1    
   169   85  206 1    
   170   86  207 1    
   171   86  208 1    
   172   86  209 1    
   173   87   88 2    
   174   87   89 am   BACKBONE|DICT|INTERRES
   175   89   90 1    
   176   89  210 1    
   177   90   91 1    
   178   90   92 1    
   179   90  211 1    
   180   91  212 1    
   181   91  213 1    
   182   91  214 1    
   183   92   93 2    
   184   92   94 am   BACKBONE|DICT|INTERRES
   185   94   95 1    
   186   94  215 1    
   187   95   96 1    
   188   95   97 1    
   189   95  216 1    
   190   96  217 1    
   191   96  218 1    
   192   96  219 1    
   193   97   98 2    
   194   97   99 am   BACKBONE|DICT|INTERRES
   195   99  100 1    
   196   99  220 1    
   197  100  101 1    
   198  100  102 1    
   199  100  221 1    
   200  101  222 1    
   201  101  223 1    
   202  101  224 1    
   203  102  103 2    
   204  102  104 am   BACKBONE|DICT|INTERRES
   205  104  105 1    
   206  104  225 1    
   207  105  106 1    
   208  105  107 1    
   209  105  226 1    
   210  106  227 1    
   211  106  228 1    
   212  106  229 1    
   213  107  108 2    
   214  107  109 am   BACKBONE|DICT|INTERRES
   215  109  110 1    
   216  109  230 1    
   217  110  111 1    
   218  110  112 1    
   219  110  231 1    
   220  111  232 1    
   221  111  233 1    
   222  111  234 1    
   223  112  113 2    
   224  112  114 am   BACKBONE|DICT|INTERRES
   225  114  115 1    
   226  114  235 1    
   227  115  116 1    
   228  115  117 1    
   229  115  236 1    
   230  116  237 1    
   231  116  238 1    
   232  116  239 1    
   233  117  118 2    
   234  117  119 am   BACKBONE|DICT|INTERRES
   235  119  120 1    
   236  119  240 1    
   237  120  121 1    
   238  120  124 1    
   239  120  241 1    
   240  121  122 am   BACKBONE|DICT|INTERRES
   241  121  123 2    
   242  122  242 1    
   243  122  243 1    
   244  124  125 1    
   245  124  244 1    
   246  124  245 1    
   247  125  126 1    
   248  126  246 1    
   249  126  247 1    
@<TRIPOS>SUBSTRUCTURE
     1 UNK         1 GROUP             0       ****    0 ROOT    
