@<TRIPOS>MOLECULE
3R540
247   249    1
SMALL
USER_CHARGES


@<TRIPOS>ATOM
      1 CA          0.8578  -10.8948  -51.7233 C.3       0 UNK        -0.1800 
      2 C           1.4776  -11.3775  -50.4199 C.2       0 UNK         0.5000 
      3 O           1.8664  -10.5623  -49.5830 O.2       0 UNK        -0.5000 
      4 N           1.5552  -12.7003  -50.2343 N.am      1 UNK        -0.5000 
      5 CA          2.1242  -13.3578  -49.0508 C.3       1 UNK         0.1400 
      6 C6          2.4973  -14.8328  -49.3282 C.3       23 UNK        -0.0398 
      7 S7          3.7615  -14.9799  -50.6321 S.3       23 UNK        -0.2404 
      8 C8          3.9791  -16.7839  -50.6979 C.3       23 UNK        -0.0205 
      9 C9          2.7691  -17.4961  -51.2858 C.ar      23 UNK        -0.0193 
     10 C10         2.4608  -17.3507  -52.6417 C.ar      23 UNK        -0.1150 
     11 C11         1.3878  -18.0456  -53.2063 C.ar      23 UNK        -0.0193 
     12 C12         0.6297  -18.9047  -52.4042 C.ar      23 UNK        -0.1150 
     13 C13         0.9199  -19.0506  -51.0447 C.ar      23 UNK        -0.0193 
     14 C14         1.9840  -18.3340  -50.4881 C.ar      23 UNK        -0.1150 
     15 C15         0.0957  -19.9939  -50.1826 C.3       23 UNK        -0.0205 
     16 S16         1.0790  -21.4440  -49.6753 S.3       23 UNK        -0.2404 
     17 C17         1.0940  -21.2832  -47.8535 C.3       23 UNK        -0.0398 
     18 CA          0.5238  -22.5044  -47.0887 C.3       11 UNK         0.1400 
     19 N           0.5430  -22.2729  -45.6439 N.am      11 UNK        -0.5000 
     20 C           0.2561  -23.1841  -44.7045 C.2       10 UNK         0.5000 
     21 O           0.0046  -24.3651  -44.9457 O.2       10 UNK        -0.5000 
     22 CA          0.1837  -22.6699  -43.2548 C.3       10 UNK         0.1400 
     23 CB          1.5886  -22.5273  -42.6509 C.3       10 UNK        -0.1800 
     24 N          -0.5326  -21.3960  -43.1492 N.am      10 UNK        -0.5000 
     25 C          -1.8283  -21.2343  -43.4565 C.2       9 UNK         0.5000 
     26 O          -2.5644  -22.1530  -43.8137 O.2       9 UNK        -0.5000 
     27 CA         -2.3913  -19.8043  -43.3975 C.3       9 UNK         0.1400 
     28 CB         -2.7209  -19.4105  -41.9502 C.3       9 UNK        -0.1800 
     29 N          -1.4917  -18.8159  -43.9932 N.am      9 UNK        -0.5000 
     30 C          -1.1384  -18.7896  -45.2867 C.2       8 UNK         0.5000 
     31 O          -1.5657  -19.5784  -46.1276 O.2       8 UNK        -0.5000 
     32 CA         -0.0864  -17.7475  -45.7056 C.3       8 UNK         0.1400 
     33 CB         -0.7190  -16.3622  -45.8862 C.3       8 UNK        -0.1800 
     34 N           1.0221  -17.6630  -44.7573 N.am      8 UNK        -0.5000 
     35 C           1.8616  -18.6692  -44.4767 C.2       7 UNK         0.5000 
     36 O           1.8248  -19.7683  -45.0296 O.2       7 UNK        -0.5000 
     37 CA          2.8776  -18.4209  -43.3514 C.3       7 UNK         0.1400 
     38 CB          4.0992  -17.6493  -43.8733 C.3       7 UNK        -0.1800 
     39 N           2.2730  -17.6976  -42.2329 N.am      7 UNK        -0.5000 
     40 C           1.3815  -18.2298  -41.3853 C.2       6 UNK         0.5000 
     41 O           0.9993  -19.3992  -41.4410 O.2       6 UNK        -0.5000 
     42 CA          0.7932  -17.2859  -40.3197 C.3       6 UNK         0.1400 
     43 CB          1.7487  -17.1539  -39.1244 C.3       6 UNK        -0.1800 
     44 N           0.4864  -15.9544  -40.8469 N.am      6 UNK        -0.5000 
     45 C          -0.4731  -15.7077  -41.7493 C.2       5 UNK         0.5000 
     46 O          -1.2081  -16.5757  -42.2161 O.2       5 UNK        -0.5000 
     47 CA         -0.6145  -14.2585  -42.2489 C.3       5 UNK         0.1400 
     48 CB         -1.5198  -13.4497  -41.3086 C.3       5 UNK        -0.1800 
     49 N           0.6486  -13.5401  -42.4377 N.am      5 UNK        -0.5000 
     50 C           1.6846  -13.9554  -43.1787 C.2       4 UNK         0.5000 
     51 O           1.7617  -15.0766  -43.6831 O.2       4 UNK        -0.5000 
     52 CA          2.7757  -12.9059  -43.4422 C.3       4 UNK         0.1400 
     53 CB          4.0416  -13.5111  -44.0751 C.3       4 UNK        -0.1800 
     54 N           2.2129  -11.9167  -44.3550 N.am      4 UNK        -0.5000 
     55 C           1.7012  -10.7305  -43.9997 C.2       3 UNK         0.5000 
     56 O           1.7707  -10.2737  -42.8582 O.2       3 UNK        -0.5000 
     57 CA          0.9469   -9.9372  -45.0886 C.3       3 UNK         0.1400 
     58 CB          1.8971   -8.9633  -45.8012 C.3       3 UNK        -0.1800 
     59 N           0.3090  -10.7962  -46.0886 N.am      3 UNK        -0.5000 
     60 C          -0.6847  -11.6625  -45.8396 C.2       2 UNK         0.5000 
     61 O          -1.2684  -11.7350  -44.7581 O.2       2 UNK        -0.5000 
     62 CA         -1.0770  -12.6352  -46.9726 C.3       2 UNK         0.1400 
     63 CB         -2.3752  -12.1745  -47.6520 C.3       2 UNK        -0.1800 
     64 N          -0.0527  -12.8327  -48.0047 N.am      2 UNK        -0.5000 
     65 C           1.2066  -13.2569  -47.8150 C.2       1 UNK         0.5000 
     66 O           1.6665  -13.5350  -46.7093 O.2       1 UNK        -0.5000 
     67 C          -0.8813  -22.9290  -47.5687 C.2       11 UNK         0.5000 
     68 O          -1.0013  -23.9484  -48.2476 O.2       11 UNK        -0.5000 
     69 N          -1.9201  -22.1811  -47.1697 N.am      12 UNK        -0.5000 
     70 CA         -3.3170  -22.4755  -47.4874 C.3       12 UNK         0.1400 
     71 CB         -4.2207  -21.3314  -47.0075 C.3       12 UNK        -0.1800 
     72 C          -3.7952  -23.8258  -46.9313 C.2       12 UNK         0.5000 
     73 O          -4.4811  -24.5535  -47.6473 O.2       12 UNK        -0.5000 
     74 N          -3.3959  -24.1594  -45.6969 N.am      13 UNK        -0.5000 
     75 CA         -3.6688  -25.4486  -45.0619 C.3       13 UNK         0.1400 
     76 CB         -3.2330  -25.4056  -43.5895 C.3       13 UNK        -0.1800 
     77 C          -3.0033  -26.6253  -45.7991 C.2       13 UNK         0.5000 
     78 O          -3.6555  -27.6467  -46.0164 O.2       13 UNK        -0.5000 
     79 N          -1.7366  -26.4496  -46.2020 N.am      14 UNK        -0.5000 
     80 CA         -0.9694  -27.4276  -46.9762 C.3       14 UNK         0.1400 
     81 CB          0.5075  -27.0060  -47.0130 C.3       14 UNK        -0.1800 
     82 C          -1.5176  -27.6274  -48.4024 C.2       14 UNK         0.5000 
     83 O          -1.5847  -28.7625  -48.8754 O.2       14 UNK        -0.5000 
     84 N          -1.9158  -26.5261  -49.0522 N.am      15 UNK        -0.5000 
     85 CA         -2.4981  -26.5069  -50.3956 C.3       15 UNK         0.1400 
     86 CB         -2.4004  -25.0771  -50.9534 C.3       15 UNK        -0.1800 
     87 C          -3.9623  -26.9843  -50.4466 C.2       15 UNK         0.5000 
     88 O          -4.4637  -27.2486  -51.5388 O.2       15 UNK        -0.5000 
     89 N          -4.6360  -27.0342  -49.2872 N.am      16 UNK        -0.5000 
     90 CA         -6.0805  -27.2326  -49.1123 C.3       16 UNK         0.1400 
     91 CB         -6.5047  -28.6545  -49.5342 C.3       16 UNK        -0.1800 
     92 C          -6.8922  -26.1163  -49.8072 C.2       16 UNK         0.5000 
     93 O          -7.8916  -26.3863  -50.4744 O.2       16 UNK        -0.5000 
     94 N          -6.3943  -24.8796  -49.6620 N.am      17 UNK        -0.5000 
     95 CA         -6.8606  -23.6062  -50.2216 C.3       17 UNK         0.1400 
     96 CB         -8.2886  -23.2850  -49.7399 C.3       17 UNK        -0.1800 
     97 C          -6.7349  -23.4596  -51.7548 C.2       17 UNK         0.5000 
     98 O          -6.9855  -22.3648  -52.2625 O.2       17 UNK        -0.5000 
     99 N          -6.3430  -24.5233  -52.4709 N.am      18 UNK        -0.5000 
    100 CA        -6.2359  -24.5721  -53.9293 C.3       18 UNK         0.1400 
    101 CB        -5.9654  -26.0189  -54.3719 C.3       18 UNK        -0.1800 
    102 C         -5.1574  -23.6094  -54.4585 C.2       18 UNK         0.5000 
    103 O         -3.9658  -23.8814  -54.3024 O.2       18 UNK        -0.5000 
    104 N         -5.6103  -22.4904  -55.0434 N.am      19 UNK        -0.5000 
    105 CA        -4.8124  -21.3809  -55.5813 C.3       19 UNK         0.1400 
    106 CB        -4.0094  -21.8363  -56.8179 C.3       19 UNK        -0.1800 
    107 C         -3.9323  -20.6795  -54.5218 C.2       19 UNK         0.5000 
    108 O         -2.8904  -20.1199  -54.8622 O.2       19 UNK        -0.5000 
    109 N         -4.3666  -20.7099  -53.2537 N.am      20 UNK        -0.5000 
    110 CA        -3.6189  -20.1760  -52.1124 C.3       20 UNK         0.1400 
    111 CB        -4.0318  -20.9444  -50.8494 C.3       20 UNK        -0.1800 
    112 C         -3.7924  -18.6586  -51.9032 C.2       20 UNK         0.5000 
    113 O         -3.1375  -18.0990  -51.0234 O.2       20 UNK        -0.5000 
    114 N         -4.6670  -18.0187  -52.6941 N.am      21 UNK        -0.5000 
    115 CA        -5.0579  -16.6064  -52.5961 C.3       21 UNK         0.1400 
    116 CB        -6.1180  -16.3127  -53.6688 C.3       21 UNK        -0.1800 
    117 C         -3.8983  -15.5929  -52.6948 C.2       21 UNK         0.5000 
    118 O         -4.0131  -14.4907  -52.1571 O.2       21 UNK        -0.5000 
    119 N         -2.8053  -15.9853  -53.3584 N.am      22 UNK        -0.5000 
    120 CA        -1.5264  -15.2595  -53.3945 C.3       22 UNK         0.1400 
    121 C         -0.7101  -15.2958  -52.0688 C.2       22 UNK         0.5000 
    122 N         -1.0681  -16.0973  -51.0724 N.am      22 UNK        -0.7600 
    123 O          0.2521  -14.5465  -51.9306 O.2       22 UNK        -0.5000 
    124 C124       -0.6666  -15.6446  -54.6317 C.3       23 UNK        -0.0398 
    125 S125       -0.6419  -17.4308  -55.0272 S.3       23 UNK        -0.2404 
    126 C126        1.0839  -17.9076  -54.6919 C.3       23 UNK        -0.0205 
    127 H127       -0.0265  -10.2915  -51.5179 H         1 UNK         0.0600 
    128 H128        1.5713  -10.2816  -52.2734 H         1 UNK         0.0600 
    129 H129        0.5612  -11.7273  -52.3621 H         1 UNK         0.0600 
    130 H130        1.1918  -13.3335  -50.9470 H         1 UNK         0.3000 
    131 H131        3.0436  -12.8298  -48.7881 H         1 UNK         0.0600 
    132 H132        2.8898  -15.3090  -48.4273 H         1 UNK         0.0800 
    133 H133        1.6154  -15.4030  -49.6228 H         1 UNK         0.0800 
    134 H134        4.8524  -17.0083  -51.3119 H         1 UNK         0.0800 
    135 H135        4.2065  -17.1581  -49.6985 H         1 UNK         0.0800 
    136 H136        3.0672  -16.7010  -53.2570 H         1 UNK         0.1150 
    137 H137       -0.1883  -19.4581  -52.8438 H         1 UNK         0.1150 
    138 H138        2.2173  -18.4560  -49.4397 H         1 UNK         0.1150 
    139 H139       -0.2983  -19.4445  -49.3274 H         1 UNK         0.0800 
    140 H140       -0.7765  -20.3503  -50.7299 H         1 UNK         0.0800 
    141 H141        0.5643  -20.3807  -47.5531 H         1 UNK         0.0800 
    142 H142        2.1293  -21.1216  -47.5503 H         1 UNK         0.0800 
    143 H143        1.1895  -23.3483  -47.2817 H         1 UNK         0.0600 
    144 H144        0.7868  -21.3322  -45.3453 H         1 UNK         0.3000 
    145 H145       -0.3638  -23.4101  -42.6678 H         1 UNK         0.0600 
    146 H146        1.5379  -22.2367  -41.6015 H         1 UNK         0.0600 
    147 H147        2.1329  -23.4710  -42.7018 H         1 UNK         0.0600 
    148 H148        2.1805  -21.7774  -43.1761 H         1 UNK         0.0600 
    149 H149       -0.0005  -20.5976  -42.8202 H         1 UNK         0.3000 
    150 H150       -3.3213  -19.7922  -43.9694 H         1 UNK         0.0600 
    151 H151       -3.3846  -20.1416  -41.4868 H         1 UNK         0.0600 
    152 H152       -3.2249  -18.4448  -41.9108 H         1 UNK         0.0600 
    153 H153       -1.8226  -19.3445  -41.3356 H         1 UNK         0.0600 
    154 H154       -1.1415  -18.0925  -43.3709 H         1 UNK         0.3000 
    155 H155        0.3261  -18.0563  -46.6682 H         1 UNK         0.0600 
    156 H156       -1.5012  -16.3850  -46.6459 H         1 UNK         0.0600 
    157 H157        0.0272  -15.6358  -46.2050 H         1 UNK         0.0600 
    158 H158       -1.1665  -15.9982  -44.9617 H         1 UNK         0.0600 
    159 H159        1.1588  -16.7732  -44.2836 H         1 UNK         0.3000 
    160 H160        3.2205  -19.3918  -42.9875 H         1 UNK         0.0600 
    161 H161        4.8338  -17.4918  -43.0836 H         1 UNK         0.0600 
    162 H162        3.8236  -16.6739  -44.2748 H         1 UNK         0.0600 
    163 H163        4.5940  -18.2023  -44.6726 H         1 UNK         0.0600 
    164 H164        2.4630  -16.7066  -42.1806 H         1 UNK         0.3000 
    165 H165       -0.1378  -17.7310  -39.9620 H         1 UNK         0.0600 
    166 H166        1.3045  -16.5549  -38.3292 H         1 UNK         0.0600 
    167 H167        1.9814  -18.1322  -38.7016 H         1 UNK         0.0600 
    168 H168        2.6919  -16.6868  -39.4103 H         1 UNK         0.0600 
    169 H169        1.0538  -15.1856  -40.5216 H         1 UNK         0.3000 
    170 H170       -1.1006  -14.3007  -43.2252 H         1 UNK         0.0600 
    171 H171       -2.4786  -13.9492  -41.1627 H         1 UNK         0.0600 
    172 H172       -1.0646  -13.3168  -40.3265 H         1 UNK         0.0600 
    173 H173       -1.7299  -12.4617  -41.7195 H         1 UNK         0.0600 
    174 H174        0.6721  -12.5921  -42.0890 H         1 UNK         0.3000 
    175 H175        3.0541  -12.4504  -42.4899 H         1 UNK         0.0600 
    176 H176        4.7984  -12.7457  -44.2467 H         1 UNK         0.0600 
    177 H177        4.4819  -14.2644  -43.4209 H         1 UNK         0.0600 
    178 H178        3.8292  -13.9897  -45.0321 H         1 UNK         0.0600 
    179 H179        2.0356  -12.2633  -45.2938 H         1 UNK         0.3000 
    180 H180        0.1654   -9.3567  -44.5942 H         1 UNK         0.0600 
    181 H181        2.6859   -9.4918  -46.3383 H         1 UNK         0.0600 
    182 H182        2.3771   -8.2924  -45.0875 H         1 UNK         0.0600 
    183 H183        1.3605   -8.3429  -46.5194 H         1 UNK         0.0600 
    184 H184        0.7206  -10.7979  -47.0114 H         1 UNK         0.3000 
    185 H185       -1.2636  -13.6034  -46.5067 H         1 UNK         0.0600 
    186 H186       -2.7196  -12.9062  -48.3833 H         1 UNK         0.0600 
    187 H187       -3.1757  -12.0461  -46.9221 H         1 UNK         0.0600 
    188 H188       -2.2426  -11.2215  -48.1657 H         1 UNK         0.0600 
    189 H189       -0.3280  -12.6203  -48.9526 H         1 UNK         0.3000 
    190 H190       -1.7465  -21.3307  -46.6376 H         1 UNK         0.3000 
    191 H191       -3.3944  -22.5365  -48.5731 H         1 UNK         0.0600 
    192 H192       -4.1663  -21.2034  -45.9262 H         1 UNK         0.0600 
    193 H193       -5.2631  -21.5219  -47.2656 H         1 UNK         0.0600 
    194 H194       -3.9387  -20.3854  -47.4701 H         1 UNK         0.0600 
    195 H195       -2.8813  -23.4777  -45.1452 H         1 UNK         0.3000 
    196 H196       -4.7485  -25.6094  -45.0893 H         1 UNK         0.0600 
    197 H197       -2.1656  -25.2080  -43.4898 H         1 UNK         0.0600 
    198 H198       -3.4404  -26.3539  -43.0923 H         1 UNK         0.0600 
    199 H199       -3.7681  -24.6282  -43.0439 H         1 UNK         0.0600 
    200 H200       -1.2582  -25.5886  -45.9550 H         1 UNK         0.3000 
    201 H201       -1.0330  -28.3877  -46.4598 H         1 UNK         0.0600 
    202 H202        0.6380  -26.0341  -47.4901 H         1 UNK         0.0600 
    203 H203        1.1071  -27.7285  -47.5679 H         1 UNK         0.0600 
    204 H204        0.9232  -26.9413  -46.0073 H         1 UNK         0.0600 
    205 H205       -1.7553  -25.6197  -48.6173 H         1 UNK         0.3000 
    206 H206       -1.9130  -27.1675  -51.0385 H         1 UNK         0.0600 
    207 H207       -1.3659  -24.7349  -50.9872 H         1 UNK         0.0600 
    208 H208       -2.7938  -25.0218  -51.9695 H         1 UNK         0.0600 
    209 H209       -2.9662  -24.3710  -50.3446 H         1 UNK         0.0600 
    210 H210       -4.1355  -26.7565  -48.4528 H         1 UNK         0.3000 
    211 H211       -6.2744  -27.1329  -48.0433 H         1 UNK         0.0600 
    212 H212       -6.4007  -28.8109  -50.6081 H         1 UNK         0.0600 
    213 H213       -7.5483  -28.8403  -49.2781 H         1 UNK         0.0600 
    214 H214       -5.9061  -29.4101  -49.0254 H         1 UNK         0.0600 
    215 H215       -5.5848  -24.7959  -49.0480 H         1 UNK         0.3000 
    216 H216       -6.1993  -22.8503  -49.7967 H         1 UNK         0.0600 
    217 H217       -8.3594  -23.3380  -48.6535 H         1 UNK         0.0600 
    218 H218       -8.5831  -22.2769  -50.0340 H         1 UNK         0.0600 
    219 H219       -9.0233  -23.9726  -50.1594 H         1 UNK         0.0600 
    220 H220       -6.1276  -25.3796  -51.9792 H         1 UNK         0.3000 
    221 H221       -7.2035  -24.2781  -54.3415 H         1 UNK         0.0600 
    222 H222       -5.0064  -26.3825  -54.0020 H         1 UNK         0.0600 
    223 H223       -6.7410  -26.6950  -54.0115 H         1 UNK         0.0600 
    224 H224       -5.9452  -26.0949  -55.4597 H         1 UNK         0.0600 
    225 H225       -6.6111  -22.3499  -55.0720 H         1 UNK         0.3000 
    226 H226       -5.5282  -20.6292  -55.9165 H         1 UNK         0.0600 
    227 H227       -4.6552  -22.3163  -57.5531 H         1 UNK         0.0600 
    228 H228       -3.5343  -20.9877  -57.3115 H         1 UNK         0.0600 
    229 H229       -3.2214  -22.5415  -56.5519 H         1 UNK         0.0600 
    230 H230       -5.2380  -21.1847  -53.0484 H         1 UNK         0.3000 
    231 H231       -2.5556  -20.3556  -52.2800 H         1 UNK         0.0600 
    232 H232       -3.8703  -22.0157  -50.9704 H         1 UNK         0.0600 
    233 H233       -5.0827  -20.7829  -50.6073 H         1 UNK         0.0600 
    234 H234       -3.4425  -20.6198  -49.9911 H         1 UNK         0.0600 
    235 H235       -5.1497  -18.5680  -53.3891 H         1 UNK         0.3000 
    236 H236       -5.5178  -16.4683  -51.6157 H         1 UNK         0.0600 
    237 H237       -6.4577  -15.2776  -53.6112 H         1 UNK         0.0600 
    238 H238       -5.7266  -16.4743  -54.6740 H         1 UNK         0.0600 
    239 H239       -6.9954  -16.9474  -53.5426 H         1 UNK         0.0600 
    240 H240       -2.7893  -16.9108  -53.7629 H         1 UNK         0.3000 
    241 H241       -1.7752  -14.2039  -53.5199 H         1 UNK         0.0600 
    242 H242       -0.5226  -16.1045  -50.2299 H         1 UNK         0.3800 
    243 H243       -1.8532  -16.7364  -51.1615 H         1 UNK         0.3800 
    244 H244       -1.0789  -15.1426  -55.5077 H         1 UNK         0.0800 
    245 H245        0.3533  -15.2659  -54.5435 H         1 UNK         0.0800 
    246 H246        1.7554  -17.1920  -55.1688 H         1 UNK         0.0800 
    247 H247        1.2744  -18.8693  -55.1699 H         1 UNK         0.0800 
@<TRIPOS>BOND
     1    1    2 1    
     2    1  127 1    
     3    1  128 1    
     4    1  129 1    
     5    2    3 2    
     6    2    4 am   BACKBONE|DICT|INTERRES
     7    4    5 1    
     8    4  130 1    
     9    5    6 1    
    10    5   65 1    
    11    5  131 1    
    12    6    7 1    
    13    6  132 1    
    14    6  133 1    
    15    7    8 1    
    16    8    9 1    
    17    8  134 1    
    18    8  135 1    
    19    9   10 ar   
    20    9   14 ar   
    21   10   11 ar   
    22   10  136 1    
    23   11   12 ar   
    24   11  126 1    
    25   12   13 ar   
    26   12  137 1    
    27   13   14 ar   
    28   13   15 1    
    29   14  138 1    
    30   15   16 1    
    31   15  139 1    
    32   15  140 1    
    33   16   17 1    
    34   17   18 1    
    35   17  141 1    
    36   17  142 1    
    37   18   19 1    
    38   18   67 1    
    39   18  143 1    
    40   19   20 am   BACKBONE|DICT|INTERRES
    41   19  144 1    
    42   20   21 2    
    43   20   22 1    
    44   22   23 1    
    45   22   24 1    
    46   22  145 1    
    47   23  146 1    
    48   23  147 1    
    49   23  148 1    
    50   24   25 am   BACKBONE|DICT|INTERRES
    51   24  149 1    
    52   25   26 2    
    53   25   27 1    
    54   27   28 1    
    55   27   29 1    
    56   27  150 1    
    57   28  151 1    
    58   28  152 1    
    59   28  153 1    
    60   29   30 am   BACKBONE|DICT|INTERRES
    61   29  154 1    
    62   30   31 2    
    63   30   32 1    
    64   32   33 1    
    65   32   34 1    
    66   32  155 1    
    67   33  156 1    
    68   33  157 1    
    69   33  158 1    
    70   34   35 am   BACKBONE|DICT|INTERRES
    71   34  159 1    
    72   35   36 2    
    73   35   37 1    
    74   37   38 1    
    75   37   39 1    
    76   37  160 1    
    77   38  161 1    
    78   38  162 1    
    79   38  163 1    
    80   39   40 am   BACKBONE|DICT|INTERRES
    81   39  164 1    
    82   40   41 2    
    83   40   42 1    
    84   42   43 1    
    85   42   44 1    
    86   42  165 1    
    87   43  166 1    
    88   43  167 1    
    89   43  168 1    
    90   44   45 am   BACKBONE|DICT|INTERRES
    91   44  169 1    
    92   45   46 2    
    93   45   47 1    
    94   47   48 1    
    95   47   49 1    
    96   47  170 1    
    97   48  171 1    
    98   48  172 1    
    99   48  173 1    
   100   49   50 am   BACKBONE|DICT|INTERRES
   101   49  174 1    
   102   50   51 2    
   103   50   52 1    
   104   52   53 1    
   105   52   54 1    
   106   52  175 1    
   107   53  176 1    
   108   53  177 1    
   109   53  178 1    
   110   54   55 am   BACKBONE|DICT|INTERRES
   111   54  179 1    
   112   55   56 2    
   113   55   57 1    
   114   57   58 1    
   115   57   59 1    
   116   57  180 1    
   117   58  181 1    
   118   58  182 1    
   119   58  183 1    
   120   59   60 am   BACKBONE|DICT|INTERRES
   121   59  184 1    
   122   60   61 2    
   123   60   62 1    
   124   62   63 1    
   125   62   64 1    
   126   62  185 1    
   127   63  186 1    
   128   63  187 1    
   129   63  188 1    
   130   64   65 am   BACKBONE|DICT|INTERRES
   131   64  189 1    
   132   65   66 2    
   133   67   68 2    
   134   67   69 am   BACKBONE|DICT|INTERRES
   135   69   70 1    
   136   69  190 1    
   137   70   71 1    
   138   70   72 1    
   139   70  191 1    
   140   71  192 1    
   141   71  193 1    
   142   71  194 1    
   143   72   73 2    
   144   72   74 am   BACKBONE|DICT|INTERRES
   145   74   75 1    
   146   74  195 1    
   147   75   76 1    
   148   75   77 1    
   149   75  196 1    
   150   76  197 1    
   151   76  198 1    
   152   76  199 1    
   153   77   78 2    
   154   77   79 am   BACKBONE|DICT|INTERRES
   155   79   80 1    
   156   79  200 1    
   157   80   81 1    
   158   80   82 1    
   159   80  201 1    
   160   81  202 1    
   161   81  203 1    
   162   81  204 1    
   163   82   83 2    
   164   82   84 am   BACKBONE|DICT|INTERRES
   165   84   85 1    
   166   84  205 1    
   167   85   86 1    
   168   85   87 1    
   169   85  206 1    
   170   86  207 1    
   171   86  208 1    
   172   86  209 1    
   173   87   88 2    
   174   87   89 am   BACKBONE|DICT|INTERRES
   175   89   90 1    
   176   89  210 1    
   177   90   91 1    
   178   90   92 1    
   179   90  211 1    
   180   91  212 1    
   181   91  213 1    
   182   91  214 1    
   183   92   93 2    
   184   92   94 am   BACKBONE|DICT|INTERRES
   185   94   95 1    
   186   94  215 1    
   187   95   96 1    
   188   95   97 1    
   189   95  216 1    
   190   96  217 1    
   191   96  218 1    
   192   96  219 1    
   193   97   98 2    
   194   97   99 am   BACKBONE|DICT|INTERRES
   195   99  100 1    
   196   99  220 1    
   197  100  101 1    
   198  100  102 1    
   199  100  221 1    
   200  101  222 1    
   201  101  223 1    
   202  101  224 1    
   203  102  103 2    
   204  102  104 am   BACKBONE|DICT|INTERRES
   205  104  105 1    
   206  104  225 1    
   207  105  106 1    
   208  105  107 1    
   209  105  226 1    
   210  106  227 1    
   211  106  228 1    
   212  106  229 1    
   213  107  108 2    
   214  107  109 am   BACKBONE|DICT|INTERRES
   215  109  110 1    
   216  109  230 1    
   217  110  111 1    
   218  110  112 1    
   219  110  231 1    
   220  111  232 1    
   221  111  233 1    
   222  111  234 1    
   223  112  113 2    
   224  112  114 am   BACKBONE|DICT|INTERRES
   225  114  115 1    
   226  114  235 1    
   227  115  116 1    
   228  115  117 1    
   229  115  236 1    
   230  116  237 1    
   231  116  238 1    
   232  116  239 1    
   233  117  118 2    
   234  117  119 am   BACKBONE|DICT|INTERRES
   235  119  120 1    
   236  119  240 1    
   237  120  121 1    
   238  120  124 1    
   239  120  241 1    
   240  121  122 am   BACKBONE|DICT|INTERRES
   241  121  123 2    
   242  122  242 1    
   243  122  243 1    
   244  124  125 1    
   245  124  244 1    
   246  124  245 1    
   247  125  126 1    
   248  126  246 1    
   249  126  247 1    
@<TRIPOS>SUBSTRUCTURE
     1 UNK         1 GROUP             0       ****    0 ROOT    
