@<TRIPOS>MOLECULE
3R540
247   249    1
SMALL
USER_CHARGES


@<TRIPOS>ATOM
      1 CA          2.3044  -12.5983  -48.8836 C.3       0 UNK        -0.1800 
      2 C           3.4238  -13.1682  -48.0240 C.2       0 UNK         0.5000 
      3 O           4.5291  -12.6261  -48.0218 O.2       0 UNK        -0.5000 
      4 N           3.1438  -14.2597  -47.3035 N.am      1 UNK        -0.5000 
      5 CA          4.1061  -14.9621  -46.4422 C.3       1 UNK         0.1400 
      6 C6          3.8728  -16.4937  -46.4211 C.3       23 UNK        -0.0398 
      7 S7          3.7552  -17.2411  -48.0845 S.3       23 UNK        -0.2404 
      8 C8          1.9572  -17.4923  -48.1489 C.3       23 UNK        -0.0205 
      9 C9          1.4770  -18.0107  -49.4934 C.ar      23 UNK        -0.0193 
     10 C10         0.7357  -17.1783  -50.3353 C.ar      23 UNK        -0.1150 
     11 C11         0.2170  -17.6649  -51.5366 C.ar      23 UNK        -0.0193 
     12 C12         0.4520  -18.9964  -51.8932 C.ar      23 UNK        -0.1150 
     13 C13         1.2079  -19.8410  -51.0737 C.ar      23 UNK        -0.0193 
     14 C14         1.7248  -19.3331  -49.8735 C.ar      23 UNK        -0.1150 
     15 C15         1.4580  -21.2784  -51.5379 C.3       23 UNK        -0.0205 
     16 S16         1.7685  -22.4986  -50.2137 S.3       23 UNK        -0.2404 
     17 C17         0.2059  -22.4056  -49.2813 C.3       23 UNK        -0.0398 
     18 CA         -0.0013  -23.5840  -48.2982 C.3       11 UNK         0.1400 
     19 N           1.1491  -23.7981  -47.4142 N.am      11 UNK        -0.5000 
     20 C           1.2667  -24.7861  -46.5149 C.2       10 UNK         0.5000 
     21 O           0.4222  -25.6643  -46.3493 O.2       10 UNK        -0.5000 
     22 CA          2.5066  -24.7515  -45.6005 C.3       10 UNK         0.1400 
     23 CB          3.6462  -25.5775  -46.2142 C.3       10 UNK        -0.1800 
     24 N           2.9903  -23.3980  -45.3116 N.am      10 UNK        -0.5000 
     25 C           2.2633  -22.4142  -44.7641 C.2       9 UNK         0.5000 
     26 O           1.0786  -22.5371  -44.4374 O.2       9 UNK        -0.5000 
     27 CA          2.9689  -21.0505  -44.6601 C.3       9 UNK         0.1400 
     28 CB          3.0701  -20.4118  -46.0531 C.3       9 UNK        -0.1800 
     29 N           2.2764  -20.1159  -43.7765 N.am      9 UNK        -0.5000 
     30 C           2.1734  -20.2222  -42.4483 C.2       8 UNK         0.5000 
     31 O           2.6966  -21.1272  -41.7963 O.2       8 UNK        -0.5000 
     32 CA          1.3591  -19.1386  -41.7096 C.3       8 UNK         0.1400 
     33 CB          2.2769  -17.9910  -41.2449 C.3       8 UNK        -0.1800 
     34 N           0.1841  -18.6169  -42.4286 N.am      8 UNK        -0.5000 
     35 C           0.1378  -17.8701  -43.5404 C.2       7 UNK         0.5000 
     36 O           1.1287  -17.5533  -44.2031 O.2       7 UNK        -0.5000 
     37 CA         -1.2566  -17.4004  -43.9785 C.3       7 UNK         0.1400 
     38 CB         -1.7866  -16.2987  -43.0480 C.3       7 UNK        -0.1800 
     39 N          -1.1804  -16.8727  -45.3340 N.am      7 UNK        -0.5000 
     40 C          -2.1224  -16.9709  -46.2745 C.2       6 UNK         0.5000 
     41 O          -3.2012  -17.5418  -46.1071 O.2       6 UNK        -0.5000 
     42 CA         -1.8005  -16.2802  -47.6145 C.3       6 UNK         0.1400 
     43 CB         -2.8017  -16.6261  -48.7302 C.3       6 UNK        -0.1800 
     44 N          -1.7490  -14.8270  -47.4589 N.am      6 UNK        -0.5000 
     45 C          -0.7289  -14.1300  -46.9442 C.2       5 UNK         0.5000 
     46 O           0.3289  -14.6406  -46.5676 O.2       5 UNK        -0.5000 
     47 CA         -0.8977  -12.6045  -46.8438 C.3       5 UNK         0.1400 
     48 CB         -1.8440  -12.0004  -47.9048 C.3       5 UNK        -0.1800 
     49 N          -1.2596  -12.1857  -45.4899 N.am      5 UNK        -0.5000 
     50 C          -2.3991  -12.4193  -44.8207 C.2       4 UNK         0.5000 
     51 O          -3.3436  -13.0548  -45.2904 O.2       4 UNK        -0.5000 
     52 CA         -2.5147  -11.8369  -43.3917 C.3       4 UNK         0.1400 
     53 CB         -3.1287  -12.8402  -42.4004 C.3       4 UNK        -0.1800 
     54 N          -1.2301  -11.3794  -42.8559 N.am      4 UNK        -0.5000 
     55 C          -0.7253  -10.1451  -42.9857 C.2       3 UNK         0.5000 
     56 O          -1.3271   -9.2116  -43.5167 O.2       3 UNK        -0.5000 
     57 CA          0.7134   -9.9283  -42.4684 C.3       3 UNK         0.1400 
     58 CB          0.6901   -9.3450  -41.0473 C.3       3 UNK        -0.1800 
     59 N           1.5426  -11.1416  -42.4746 N.am      3 UNK        -0.5000 
     60 C           1.8676  -11.8430  -43.5691 C.2       2 UNK         0.5000 
     61 O           1.4927  -11.5376  -44.7048 O.2       2 UNK        -0.5000 
     62 CA          2.7147  -13.1076  -43.3545 C.3       2 UNK         0.1400 
     63 CB          1.9873  -14.1380  -42.4706 C.3       2 UNK        -0.1800 
     64 N           2.9860  -13.7099  -44.6526 N.am      2 UNK        -0.5000 
     65 C           4.0707  -14.4093  -45.0012 C.2       1 UNK         0.5000 
     66 O           5.0124  -14.6338  -44.2396 O.2       1 UNK        -0.5000 
     67 C          -1.3029  -23.3492  -47.5074 C.2       11 UNK         0.5000 
     68 O          -2.3540  -23.8513  -47.9032 O.2       11 UNK        -0.5000 
     69 N          -1.2110  -22.5891  -46.4084 N.am      12 UNK        -0.5000 
     70 CA         -2.3368  -22.2873  -45.5297 C.3       12 UNK         0.1400 
     71 CB         -2.0308  -21.0134  -44.7296 C.3       12 UNK        -0.1800 
     72 C          -2.6537  -23.4688  -44.6003 C.2       12 UNK         0.5000 
     73 O          -3.8279  -23.7607  -44.3760 O.2       12 UNK        -0.5000 
     74 N          -1.6062  -24.1488  -44.1114 N.am      13 UNK        -0.5000 
     75 CA         -1.7084  -25.3299  -43.2510 C.3       13 UNK         0.1400 
     76 CB         -0.3166  -25.6912  -42.7113 C.3       13 UNK        -0.1800 
     77 C          -2.3501  -26.5375  -43.9618 C.2       13 UNK         0.5000 
     78 O          -3.1970  -27.2105  -43.3735 O.2       13 UNK        -0.5000 
     79 N          -1.9567  -26.7721  -45.2212 N.am      14 UNK        -0.5000 
     80 CA         -2.4988  -27.8251  -46.0839 C.3       14 UNK         0.1400 
     81 CB         -1.4653  -28.1458  -47.1761 C.3       14 UNK        -0.1800 
     82 C          -3.8479  -27.4511  -46.7302 C.2       14 UNK         0.5000 
     83 O          -4.4948  -28.3235  -47.3101 O.2       14 UNK        -0.5000 
     84 N          -4.2242  -26.1652  -46.6546 N.am      15 UNK        -0.5000 
     85 CA         -5.3856  -25.5258  -47.2866 C.3       15 UNK         0.1400 
     86 CB         -6.7111  -26.1273  -46.7768 C.3       15 UNK        -0.1800 
     87 C          -5.3033  -25.4786  -48.8288 C.2       15 UNK         0.5000 
     88 O          -6.3149  -25.2523  -49.4941 O.2       15 UNK        -0.5000 
     89 N          -4.0883  -25.6332  -49.3729 N.am      16 UNK        -0.5000 
     90 CA         -3.7613  -25.4770  -50.7901 C.3       16 UNK         0.1400 
     91 CB         -2.3396  -25.9989  -51.0402 C.3       16 UNK        -0.1800 
     92 C          -3.8911  -24.0187  -51.2653 C.2       16 UNK         0.5000 
     93 O          -4.1639  -23.7899  -52.4430 O.2       16 UNK        -0.5000 
     94 N          -3.7542  -23.0620  -50.3344 N.am      17 UNK        -0.5000 
     95 CA         -3.9493  -21.6215  -50.5283 C.3       17 UNK         0.1400 
     96 CB         -3.6104  -20.8931  -49.2183 C.3       17 UNK        -0.1800 
     97 C          -5.3578  -21.2192  -51.0190 C.2       17 UNK         0.5000 
     98 O          -5.5246  -20.1081  -51.5195 O.2       17 UNK        -0.5000 
     99 N          -6.3437  -22.1200  -50.8920 N.am      18 UNK        -0.5000 
    100 CA        -7.6760  -21.9706  -51.4791 C.3       18 UNK         0.1400 
    101 CB        -8.6078  -23.0400  -50.8900 C.3       18 UNK        -0.1800 
    102 C         -7.6600  -22.0553  -53.0199 C.2       18 UNK         0.5000 
    103 O         -8.4871  -21.4118  -53.6667 O.2       18 UNK        -0.5000 
    104 N         -6.7199  -22.8331  -53.5751 N.am      19 UNK        -0.5000 
    105 CA        -6.4696  -22.9475  -55.0106 C.3       19 UNK         0.1400 
    106 CB        -6.1487  -24.4100  -55.3588 C.3       19 UNK        -0.1800 
    107 C         -5.3163  -22.0189  -55.4206 C.2       19 UNK         0.5000 
    108 O         -5.4602  -21.2408  -56.3648 O.2       19 UNK        -0.5000 
    109 N         -4.2039  -22.0820  -54.6766 N.am      20 UNK        -0.5000 
    110 CA        -3.0231  -21.2330  -54.8268 C.3       20 UNK         0.1400 
    111 CB        -1.8006  -21.9794  -54.2602 C.3       20 UNK        -0.1800 
    112 C         -3.2504  -19.8675  -54.1500 C.2       20 UNK         0.5000 
    113 O         -2.5717  -19.5346  -53.1803 O.2       20 UNK        -0.5000 
    114 N         -4.2369  -19.1185  -54.6548 N.am      21 UNK        -0.5000 
    115 CA        -4.7007  -17.8509  -54.0877 C.3       21 UNK         0.1400 
    116 CB        -6.1367  -17.5999  -54.5743 C.3       21 UNK        -0.1800 
    117 C         -3.7949  -16.6468  -54.4148 C.2       21 UNK         0.5000 
    118 O         -3.9657  -15.5909  -53.8047 O.2       21 UNK        -0.5000 
    119 N         -2.8670  -16.8144  -55.3686 N.am      22 UNK        -0.5000 
    120 CA        -1.9318  -15.7887  -55.8737 C.3       22 UNK         0.1400 
    121 C         -2.6086  -14.6408  -56.6886 C.2       22 UNK         0.5000 
    122 N         -3.8455  -14.7920  -57.1466 N.am      22 UNK        -0.7600 
    123 O         -1.9961  -13.6071  -56.9439 O.2       22 UNK        -0.5000 
    124 C124       -0.9539  -15.2481  -54.7886 C.3       23 UNK        -0.0398 
    125 S125        0.1231  -16.5379  -54.0743 S.3       23 UNK        -0.2404 
    126 C126       -0.6218  -16.7591  -52.4278 C.3       23 UNK        -0.0205 
    127 H127        2.6594  -12.4377  -49.9016 H         1 UNK         0.0600 
    128 H128        1.9734  -11.6403  -48.4833 H         1 UNK         0.0600 
    129 H129        1.4482  -13.2709  -48.9316 H         1 UNK         0.0600 
    130 H130        2.1964  -14.6219  -47.2879 H         1 UNK         0.3000 
    131 H131        5.1150  -14.7941  -46.8251 H         1 UNK         0.0600 
    132 H132        4.6918  -16.9875  -45.8951 H         1 UNK         0.0800 
    133 H133        2.9720  -16.7351  -45.8552 H         1 UNK         0.0800 
    134 H134        1.4757  -16.5426  -47.9241 H         1 UNK         0.0800 
    135 H135        1.6479  -18.1803  -47.3627 H         1 UNK         0.0800 
    136 H136        0.5446  -16.1546  -50.0451 H         1 UNK         0.1150 
    137 H137        0.0459  -19.3721  -52.8220 H         1 UNK         0.1150 
    138 H138        2.3149  -19.9619  -49.2228 H         1 UNK         0.1150 
    139 H139        0.6099  -21.6283  -52.1290 H         1 UNK         0.0800 
    140 H140        2.3178  -21.2741  -52.2086 H         1 UNK         0.0800 
    141 H141       -0.6173  -22.3677  -49.9978 H         1 UNK         0.0800 
    142 H142        0.1923  -21.4532  -48.7481 H         1 UNK         0.0800 
    143 H143       -0.1299  -24.4982  -48.8799 H         1 UNK         0.0600 
    144 H144        1.9048  -23.1351  -47.4991 H         1 UNK         0.3000 
    145 H145        2.2287  -25.2081  -44.6496 H         1 UNK         0.0600 
    146 H146        4.4988  -25.6387  -45.5376 H         1 UNK         0.0600 
    147 H147        3.3218  -26.5989  -46.4183 H         1 UNK         0.0600 
    148 H148        3.9928  -25.1488  -47.1554 H         1 UNK         0.0600 
    149 H149        3.9492  -23.2079  -45.5652 H         1 UNK         0.3000 
    150 H150        3.9750  -21.2090  -44.2666 H         1 UNK         0.0600 
    151 H151        2.0859  -20.2869  -46.5055 H         1 UNK         0.0600 
    152 H152        3.6671  -21.0221  -46.7316 H         1 UNK         0.0600 
    153 H153        3.5467  -19.4338  -46.0003 H         1 UNK         0.0600 
    154 H154        1.8415  -19.3061  -44.2070 H         1 UNK         0.3000 
    155 H155        0.9596  -19.6165  -40.8137 H         1 UNK         0.0600 
    156 H156        2.7624  -17.4937  -42.0849 H         1 UNK         0.0600 
    157 H157        3.0658  -18.3652  -40.5914 H         1 UNK         0.0600 
    158 H158        1.7198  -17.2395  -40.6853 H         1 UNK         0.0600 
    159 H159       -0.6970  -18.8436  -41.9890 H         1 UNK         0.3000 
    160 H160       -1.9324  -18.2559  -43.9456 H         1 UNK         0.0600 
    161 H161       -1.1261  -15.4319  -43.0484 H         1 UNK         0.0600 
    162 H162       -1.8716  -16.6504  -42.0193 H         1 UNK         0.0600 
    163 H163       -2.7765  -15.9642  -43.3595 H         1 UNK         0.0600 
    164 H164       -0.3141  -16.3910  -45.5540 H         1 UNK         0.3000 
    165 H165       -0.8236  -16.6391  -47.9351 H         1 UNK         0.0600 
    166 H166       -2.5147  -16.1633  -49.6747 H         1 UNK         0.0600 
    167 H167       -2.8361  -17.7024  -48.8981 H         1 UNK         0.0600 
    168 H168       -3.8119  -16.2954  -48.4864 H         1 UNK         0.0600 
    169 H169       -2.5996  -14.3268  -47.6733 H         1 UNK         0.3000 
    170 H170        0.0901  -12.1811  -47.0242 H         1 UNK         0.0600 
    171 H171       -1.5338  -12.2874  -48.9105 H         1 UNK         0.0600 
    172 H172       -2.8794  -12.3159  -47.7779 H         1 UNK         0.0600 
    173 H173       -1.8262  -10.9113  -47.8627 H         1 UNK         0.0600 
    174 H174       -0.5155  -11.7022  -44.9994 H         1 UNK         0.3000 
    175 H175       -3.1992  -10.9893  -43.4626 H         1 UNK         0.0600 
    176 H176       -4.0803  -13.2315  -42.7623 H         1 UNK         0.0600 
    177 H177       -2.4679  -13.6865  -42.2224 H         1 UNK         0.0600 
    178 H178       -3.3232  -12.3661  -41.4383 H         1 UNK         0.0600 
    179 H179       -0.6577  -12.0788  -42.4066 H         1 UNK         0.3000 
    180 H180        1.1884   -9.1997  -43.1287 H         1 UNK         0.0600 
    181 H181        0.2507  -10.0426  -40.3332 H         1 UNK         0.0600 
    182 H182        0.1039   -8.4257  -41.0114 H         1 UNK         0.0600 
    183 H183        1.6955   -9.1002  -40.7041 H         1 UNK         0.0600 
    184 H184        1.8870  -11.4501  -41.5766 H         1 UNK         0.3000 
    185 H185        3.6517  -12.8074  -42.8811 H         1 UNK         0.0600 
    186 H186        1.7767  -13.7413  -41.4773 H         1 UNK         0.0600 
    187 H187        1.0404  -14.4453  -42.9150 H         1 UNK         0.0600 
    188 H188        2.5931  -15.0338  -42.3353 H         1 UNK         0.0600 
    189 H189        2.2866  -13.5127  -45.3576 H         1 UNK         0.3000 
    190 H190       -0.2997  -22.2839  -46.0913 H         1 UNK         0.3000 
    191 H191       -3.2204  -22.0943  -46.1422 H         1 UNK         0.0600 
    192 H192       -1.8266  -20.1775  -45.3986 H         1 UNK         0.0600 
    193 H193       -2.8803  -20.7327  -44.1058 H         1 UNK         0.0600 
    194 H194       -1.1683  -21.1381  -44.0743 H         1 UNK         0.0600 
    195 H195       -0.6737  -23.8176  -44.3290 H         1 UNK         0.3000 
    196 H196       -2.3426  -25.0666  -42.4019 H         1 UNK         0.0600 
    197 H197       -0.3804  -26.5049  -41.9879 H         1 UNK         0.0600 
    198 H198        0.1473  -24.8424  -42.2082 H         1 UNK         0.0600 
    199 H199        0.3511  -26.0164  -43.5085 H         1 UNK         0.0600 
    200 H200       -1.2030  -26.2126  -45.6151 H         1 UNK         0.3000 
    201 H201       -2.6563  -28.7259  -45.4873 H         1 UNK         0.0600 
    202 H202       -1.8029  -28.9683  -47.8080 H         1 UNK         0.0600 
    203 H203       -0.5106  -28.4419  -46.7411 H         1 UNK         0.0600 
    204 H204       -1.2855  -27.2867  -47.8240 H         1 UNK         0.0600 
    205 H205       -3.6134  -25.5375  -46.1502 H         1 UNK         0.3000 
    206 H206       -5.3562  -24.4850  -46.9609 H         1 UNK         0.0600 
    207 H207       -6.7412  -26.1471  -45.6874 H         1 UNK         0.0600 
    208 H208       -7.5629  -25.5351  -47.1130 H         1 UNK         0.0600 
    209 H209       -6.8622  -27.1451  -47.1369 H         1 UNK         0.0600 
    210 H210       -3.3071  -25.7177  -48.7373 H         1 UNK         0.3000 
    211 H211       -4.4608  -26.0808  -51.3717 H         1 UNK         0.0600 
    212 H212       -1.5970  -25.4245  -50.4869 H         1 UNK         0.0600 
    213 H213       -2.0816  -25.9352  -52.0982 H         1 UNK         0.0600 
    214 H214       -2.2449  -27.0440  -50.7446 H         1 UNK         0.0600 
    215 H215       -3.4915  -23.3568  -49.3986 H         1 UNK         0.3000 
    216 H216       -3.2410  -21.2957  -51.2908 H         1 UNK         0.0600 
    217 H217       -3.7956  -19.8225  -49.3071 H         1 UNK         0.0600 
    218 H218       -2.5602  -21.0142  -48.9564 H         1 UNK         0.0600 
    219 H219       -4.2118  -21.2614  -48.3866 H         1 UNK         0.0600 
    220 H220       -6.1397  -23.0078  -50.4534 H         1 UNK         0.3000 
    221 H221       -8.0644  -20.9881  -51.2022 H         1 UNK         0.0600 
    222 H222       -8.2711  -24.0475  -51.1379 H         1 UNK         0.0600 
    223 H223       -8.6614  -22.9630  -49.8038 H         1 UNK         0.0600 
    224 H224       -9.6223  -22.9287  -51.2749 H         1 UNK         0.0600 
    225 H225       -6.0454  -23.2866  -52.9697 H         1 UNK         0.3000 
    226 H226       -7.3576  -22.6551  -55.5750 H         1 UNK         0.0600 
    227 H227       -5.9512  -24.5221  -56.4256 H         1 UNK         0.0600 
    228 H228       -5.2724  -24.7754  -54.8220 H         1 UNK         0.0600 
    229 H229       -6.9858  -25.0634  -55.1128 H         1 UNK         0.0600 
    230 H230       -4.1796  -22.7351  -53.8962 H         1 UNK         0.3000 
    231 H231       -2.8420  -21.0518  -55.8882 H         1 UNK         0.0600 
    232 H232       -1.9134  -22.1957  -53.1974 H         1 UNK         0.0600 
    233 H233       -0.8920  -21.3882  -54.3808 H         1 UNK         0.0600 
    234 H234       -1.6434  -22.9260  -54.7772 H         1 UNK         0.0600 
    235 H235       -4.7692  -19.4985  -55.4295 H         1 UNK         0.3000 
    236 H236       -4.7243  -17.9460  -53.0001 H         1 UNK         0.0600 
    237 H237       -6.7998  -18.4115  -54.2722 H         1 UNK         0.0600 
    238 H238       -6.5400  -16.6790  -54.1511 H         1 UNK         0.0600 
    239 H239       -6.1850  -17.5129  -55.6603 H         1 UNK         0.0600 
    240 H240       -2.8081  -17.7188  -55.8121 H         1 UNK         0.3000 
    241 H241       -1.3211  -16.3061  -56.6142 H         1 UNK         0.0600 
    242 H242       -4.2699  -14.0505  -57.6819 H         1 UNK         0.3800 
    243 H243       -4.3616  -15.6371  -56.9638 H         1 UNK         0.3800 
    244 H244       -0.2839  -14.5038  -55.2214 H         1 UNK         0.0800 
    245 H245       -1.4958  -14.7273  -53.9988 H         1 UNK         0.0800 
    246 H246       -0.7522  -15.7815  -51.9613 H         1 UNK         0.0800 
    247 H247       -1.6186  -17.1861  -52.5297 H         1 UNK         0.0800 
@<TRIPOS>BOND
     1    1    2 1    
     2    1  127 1    
     3    1  128 1    
     4    1  129 1    
     5    2    3 2    
     6    2    4 am   BACKBONE|DICT|INTERRES
     7    4    5 1    
     8    4  130 1    
     9    5    6 1    
    10    5   65 1    
    11    5  131 1    
    12    6    7 1    
    13    6  132 1    
    14    6  133 1    
    15    7    8 1    
    16    8    9 1    
    17    8  134 1    
    18    8  135 1    
    19    9   10 ar   
    20    9   14 ar   
    21   10   11 ar   
    22   10  136 1    
    23   11   12 ar   
    24   11  126 1    
    25   12   13 ar   
    26   12  137 1    
    27   13   14 ar   
    28   13   15 1    
    29   14  138 1    
    30   15   16 1    
    31   15  139 1    
    32   15  140 1    
    33   16   17 1    
    34   17   18 1    
    35   17  141 1    
    36   17  142 1    
    37   18   19 1    
    38   18   67 1    
    39   18  143 1    
    40   19   20 am   BACKBONE|DICT|INTERRES
    41   19  144 1    
    42   20   21 2    
    43   20   22 1    
    44   22   23 1    
    45   22   24 1    
    46   22  145 1    
    47   23  146 1    
    48   23  147 1    
    49   23  148 1    
    50   24   25 am   BACKBONE|DICT|INTERRES
    51   24  149 1    
    52   25   26 2    
    53   25   27 1    
    54   27   28 1    
    55   27   29 1    
    56   27  150 1    
    57   28  151 1    
    58   28  152 1    
    59   28  153 1    
    60   29   30 am   BACKBONE|DICT|INTERRES
    61   29  154 1    
    62   30   31 2    
    63   30   32 1    
    64   32   33 1    
    65   32   34 1    
    66   32  155 1    
    67   33  156 1    
    68   33  157 1    
    69   33  158 1    
    70   34   35 am   BACKBONE|DICT|INTERRES
    71   34  159 1    
    72   35   36 2    
    73   35   37 1    
    74   37   38 1    
    75   37   39 1    
    76   37  160 1    
    77   38  161 1    
    78   38  162 1    
    79   38  163 1    
    80   39   40 am   BACKBONE|DICT|INTERRES
    81   39  164 1    
    82   40   41 2    
    83   40   42 1    
    84   42   43 1    
    85   42   44 1    
    86   42  165 1    
    87   43  166 1    
    88   43  167 1    
    89   43  168 1    
    90   44   45 am   BACKBONE|DICT|INTERRES
    91   44  169 1    
    92   45   46 2    
    93   45   47 1    
    94   47   48 1    
    95   47   49 1    
    96   47  170 1    
    97   48  171 1    
    98   48  172 1    
    99   48  173 1    
   100   49   50 am   BACKBONE|DICT|INTERRES
   101   49  174 1    
   102   50   51 2    
   103   50   52 1    
   104   52   53 1    
   105   52   54 1    
   106   52  175 1    
   107   53  176 1    
   108   53  177 1    
   109   53  178 1    
   110   54   55 am   BACKBONE|DICT|INTERRES
   111   54  179 1    
   112   55   56 2    
   113   55   57 1    
   114   57   58 1    
   115   57   59 1    
   116   57  180 1    
   117   58  181 1    
   118   58  182 1    
   119   58  183 1    
   120   59   60 am   BACKBONE|DICT|INTERRES
   121   59  184 1    
   122   60   61 2    
   123   60   62 1    
   124   62   63 1    
   125   62   64 1    
   126   62  185 1    
   127   63  186 1    
   128   63  187 1    
   129   63  188 1    
   130   64   65 am   BACKBONE|DICT|INTERRES
   131   64  189 1    
   132   65   66 2    
   133   67   68 2    
   134   67   69 am   BACKBONE|DICT|INTERRES
   135   69   70 1    
   136   69  190 1    
   137   70   71 1    
   138   70   72 1    
   139   70  191 1    
   140   71  192 1    
   141   71  193 1    
   142   71  194 1    
   143   72   73 2    
   144   72   74 am   BACKBONE|DICT|INTERRES
   145   74   75 1    
   146   74  195 1    
   147   75   76 1    
   148   75   77 1    
   149   75  196 1    
   150   76  197 1    
   151   76  198 1    
   152   76  199 1    
   153   77   78 2    
   154   77   79 am   BACKBONE|DICT|INTERRES
   155   79   80 1    
   156   79  200 1    
   157   80   81 1    
   158   80   82 1    
   159   80  201 1    
   160   81  202 1    
   161   81  203 1    
   162   81  204 1    
   163   82   83 2    
   164   82   84 am   BACKBONE|DICT|INTERRES
   165   84   85 1    
   166   84  205 1    
   167   85   86 1    
   168   85   87 1    
   169   85  206 1    
   170   86  207 1    
   171   86  208 1    
   172   86  209 1    
   173   87   88 2    
   174   87   89 am   BACKBONE|DICT|INTERRES
   175   89   90 1    
   176   89  210 1    
   177   90   91 1    
   178   90   92 1    
   179   90  211 1    
   180   91  212 1    
   181   91  213 1    
   182   91  214 1    
   183   92   93 2    
   184   92   94 am   BACKBONE|DICT|INTERRES
   185   94   95 1    
   186   94  215 1    
   187   95   96 1    
   188   95   97 1    
   189   95  216 1    
   190   96  217 1    
   191   96  218 1    
   192   96  219 1    
   193   97   98 2    
   194   97   99 am   BACKBONE|DICT|INTERRES
   195   99  100 1    
   196   99  220 1    
   197  100  101 1    
   198  100  102 1    
   199  100  221 1    
   200  101  222 1    
   201  101  223 1    
   202  101  224 1    
   203  102  103 2    
   204  102  104 am   BACKBONE|DICT|INTERRES
   205  104  105 1    
   206  104  225 1    
   207  105  106 1    
   208  105  107 1    
   209  105  226 1    
   210  106  227 1    
   211  106  228 1    
   212  106  229 1    
   213  107  108 2    
   214  107  109 am   BACKBONE|DICT|INTERRES
   215  109  110 1    
   216  109  230 1    
   217  110  111 1    
   218  110  112 1    
   219  110  231 1    
   220  111  232 1    
   221  111  233 1    
   222  111  234 1    
   223  112  113 2    
   224  112  114 am   BACKBONE|DICT|INTERRES
   225  114  115 1    
   226  114  235 1    
   227  115  116 1    
   228  115  117 1    
   229  115  236 1    
   230  116  237 1    
   231  116  238 1    
   232  116  239 1    
   233  117  118 2    
   234  117  119 am   BACKBONE|DICT|INTERRES
   235  119  120 1    
   236  119  240 1    
   237  120  121 1    
   238  120  124 1    
   239  120  241 1    
   240  121  122 am   BACKBONE|DICT|INTERRES
   241  121  123 2    
   242  122  242 1    
   243  122  243 1    
   244  124  125 1    
   245  124  244 1    
   246  124  245 1    
   247  125  126 1    
   248  126  246 1    
   249  126  247 1    
@<TRIPOS>SUBSTRUCTURE
     1 UNK         1 GROUP             0       ****    0 ROOT    
