@<TRIPOS>MOLECULE
3R540
247   249    1
SMALL
USER_CHARGES


@<TRIPOS>ATOM
      1 CA          3.1146  -14.4016  -44.1158 C.3       0 UNK        -0.1800 
      2 C           2.3238  -15.2953  -45.0595 C.2       0 UNK         0.5000 
      3 O           1.9528  -16.4031  -44.6710 O.2       0 UNK        -0.5000 
      4 N           2.0665  -14.8200  -46.2820 N.am      1 UNK        -0.5000 
      5 CA          1.2522  -15.4943  -47.2965 C.3       1 UNK         0.1400 
      6 C6          2.0945  -16.2436  -48.3689 C.3       23 UNK        -0.0398 
      7 S7          3.2403  -17.5069  -47.7176 S.3       23 UNK        -0.2404 
      8 C8          4.0204  -18.1232  -49.2449 C.3       23 UNK        -0.0205 
      9 C9          3.2418  -19.2794  -49.8574 C.ar      23 UNK        -0.0193 
     10 C10         2.1162  -19.0304  -50.6443 C.ar      23 UNK        -0.1150 
     11 C11         1.3794  -20.0861  -51.1820 C.ar      23 UNK        -0.0193 
     12 C12         1.7968  -21.4006  -50.9622 C.ar      23 UNK        -0.1150 
     13 C13         2.9375  -21.6737  -50.2012 C.ar      23 UNK        -0.0193 
     14 C14         3.6521  -20.6003  -49.6462 C.ar      23 UNK        -0.1150 
     15 C15         3.3518  -23.1393  -50.0337 C.3       23 UNK        -0.0205 
     16 S16         4.6632  -23.4731  -48.8076 S.3       23 UNK        -0.2404 
     17 C17         3.7770  -23.1164  -47.2556 C.3       23 UNK        -0.0398 
     18 CA          3.6899  -24.3343  -46.2994 C.3       11 UNK         0.1400 
     19 N           3.6533  -23.8726  -44.9095 N.am      11 UNK        -0.5000 
     20 C           4.0245  -24.5652  -43.8267 C.2       10 UNK         0.5000 
     21 O           4.5227  -25.6899  -43.8688 O.2       10 UNK        -0.5000 
     22 CA          3.7472  -23.8961  -42.4650 C.3       10 UNK         0.1400 
     23 CB          4.9619  -23.0805  -41.9969 C.3       10 UNK        -0.1800 
     24 N           2.5641  -23.0297  -42.4973 N.am      10 UNK        -0.5000 
     25 C           1.3042  -23.4742  -42.6146 C.2       9 UNK         0.5000 
     26 O           1.0044  -24.6675  -42.6557 O.2       9 UNK        -0.5000 
     27 CA          0.2012  -22.4111  -42.7703 C.3       9 UNK         0.1400 
     28 CB         -0.2200  -21.8642  -41.3984 C.3       9 UNK        -0.1800 
     29 N           0.5883  -21.2995  -43.6408 N.am      9 UNK        -0.5000 
     30 C           0.9181  -21.4176  -44.9344 C.2       8 UNK         0.5000 
     31 O           0.9410  -22.4870  -45.5377 O.2       8 UNK        -0.5000 
     32 CA          1.3707  -20.1442  -45.6660 C.3       8 UNK         0.1400 
     33 CB          0.1609  -19.3149  -46.1184 C.3       8 UNK        -0.1800 
     34 N           2.2805  -19.3247  -44.8643 N.am      8 UNK        -0.5000 
     35 C           3.4626  -19.7433  -44.3869 C.2       7 UNK         0.5000 
     36 O           3.9180  -20.8700  -44.5829 O.2       7 UNK        -0.5000 
     37 CA          4.2477  -18.7627  -43.5032 C.3       7 UNK         0.1400 
     38 CB          5.1306  -17.8354  -44.3511 C.3       7 UNK        -0.1800 
     39 N           3.3435  -17.9703  -42.6705 N.am      7 UNK        -0.5000 
     40 C           2.9155  -18.3555  -41.4617 C.2       6 UNK         0.5000 
     41 O           3.2915  -19.3846  -40.8987 O.2       6 UNK        -0.5000 
     42 CA          1.8834  -17.4491  -40.7631 C.3       6 UNK         0.1400 
     43 CB          2.5904  -16.3119  -40.0097 C.3       6 UNK        -0.1800 
     44 N           0.8750  -16.8720  -41.6549 N.am      6 UNK        -0.5000 
     45 C           0.0065  -17.5671  -42.4035 C.2       5 UNK         0.5000 
     46 O           0.0131  -18.7946  -42.4782 O.2       5 UNK        -0.5000 
     47 CA         -1.0551  -16.7622  -43.1792 C.3       5 UNK         0.1400 
     48 CB         -2.3975  -17.5124  -43.2560 C.3       5 UNK        -0.1800 
     49 N          -1.2806  -15.4508  -42.5647 N.am      5 UNK        -0.5000 
     50 C          -1.0224  -14.2778  -43.1492 C.2       4 UNK         0.5000 
     51 O          -0.5396  -14.1569  -44.2778 O.2       4 UNK        -0.5000 
     52 CA         -1.3215  -13.0190  -42.3218 C.3       4 UNK         0.1400 
     53 CB         -0.0526  -12.5445  -41.5962 C.3       4 UNK        -0.1800 
     54 N          -1.7654  -11.9765  -43.2390 N.am      4 UNK        -0.5000 
     55 C          -3.0428  -11.6528  -43.4709 C.2       3 UNK         0.5000 
     56 O          -3.9857  -12.0049  -42.7609 O.2       3 UNK        -0.5000 
     57 CA         -3.3107  -10.8305  -44.7471 C.3       3 UNK         0.1400 
     58 CB         -3.2306   -9.3251  -44.4509 C.3       3 UNK        -0.1800 
     59 N          -2.3840  -11.1602  -45.8363 N.am      3 UNK        -0.5000 
     60 C          -2.3285  -12.3460  -46.4622 C.2       2 UNK         0.5000 
     61 O          -3.1070  -13.2717  -46.2314 O.2       2 UNK        -0.5000 
     62 CA         -1.2234  -12.5445  -47.5129 C.3       2 UNK         0.1400 
     63 CB         -0.3652  -11.2894  -47.7874 C.3       2 UNK        -0.1800 
     64 N          -0.3628  -13.6499  -47.0962 N.am      2 UNK        -0.5000 
     65 C           0.3120  -14.4477  -47.9327 C.2       1 UNK         0.5000 
     66 O           0.2443  -14.3443  -49.1591 O.2       1 UNK        -0.5000 
     67 C           2.5034  -25.2713  -46.6525 C.2       11 UNK         0.5000 
     68 O           2.4661  -25.8041  -47.7618 O.2       11 UNK        -0.5000 
     69 N           1.5602  -25.4581  -45.7143 N.am      12 UNK        -0.5000 
     70 CA          0.3150  -26.2272  -45.8234 C.3       12 UNK         0.1400 
     71 CB          0.5959  -27.7209  -46.0914 C.3       12 UNK        -0.1800 
     72 C          -0.7071  -25.6102  -46.8045 C.2       12 UNK         0.5000 
     73 O          -1.5094  -26.3341  -47.3975 O.2       12 UNK        -0.5000 
     74 N          -0.6769  -24.2803  -46.9325 N.am      13 UNK        -0.5000 
     75 CA         -1.6374  -23.4546  -47.6575 C.3       13 UNK         0.1400 
     76 CB         -0.8559  -22.5604  -48.6315 C.3       13 UNK        -0.1800 
     77 C          -2.4627  -22.6225  -46.6540 C.2       13 UNK         0.5000 
     78 O          -2.2494  -22.7251  -45.4432 O.2       13 UNK        -0.5000 
     79 N          -3.4111  -21.8276  -47.1632 N.am      14 UNK        -0.5000 
     80 CA         -4.3429  -21.0316  -46.3578 C.3       14 UNK         0.1400 
     81 CB         -5.7741  -21.4596  -46.7247 C.3       14 UNK        -0.1800 
     82 C          -4.1736  -19.5137  -46.5588 C.2       14 UNK         0.5000 
     83 O          -4.8087  -18.7490  -45.8323 O.2       14 UNK        -0.5000 
     84 N          -3.3649  -19.1043  -47.5496 N.am      15 UNK        -0.5000 
     85 CA         -3.2473  -17.7395  -48.0822 C.3       15 UNK         0.1400 
     86 CB         -2.6855  -16.7609  -47.0287 C.3       15 UNK        -0.1800 
     87 C          -4.5660  -17.2558  -48.7309 C.2       15 UNK         0.5000 
     88 O          -4.9128  -16.0770  -48.6377 O.2       15 UNK        -0.5000 
     89 N          -5.2854  -18.1933  -49.3642 N.am      16 UNK        -0.5000 
     90 CA         -6.5611  -17.9789  -50.0481 C.3       16 UNK         0.1400 
     91 CB         -7.3477  -19.3048  -50.0286 C.3       16 UNK        -0.1800 
     92 C          -6.3721  -17.4239  -51.4786 C.2       16 UNK         0.5000 
     93 O          -5.3090  -16.8944  -51.8102 O.2       16 UNK        -0.5000 
     94 N          -7.4106  -17.5597  -52.3129 N.am      17 UNK        -0.5000 
     95 CA         -7.4125  -17.1686  -53.7226 C.3       17 UNK         0.1400 
     96 CB         -8.8457  -17.2864  -54.2640 C.3       17 UNK        -0.1800 
     97 C          -6.4605  -18.0270  -54.5764 C.2       17 UNK         0.5000 
     98 O          -6.2995  -19.2229  -54.3146 O.2       17 UNK        -0.5000 
     99 N          -5.9001  -17.4179  -55.6295 N.am      18 UNK        -0.5000 
    100 CA        -5.0009  -18.0609  -56.5945 C.3       18 UNK         0.1400 
    101 CB        -4.4495  -16.9991  -57.5571 C.3       18 UNK        -0.1800 
    102 C         -5.6570  -19.2135  -57.3802 C.2       18 UNK         0.5000 
    103 O         -4.9648  -20.1569  -57.7614 O.2       18 UNK        -0.5000 
    104 N         -6.9856  -19.1525  -57.5515 N.am      19 UNK        -0.5000 
    105 CA        -7.8136  -20.2079  -58.1431 C.3       19 UNK         0.1400 
    106 CB        -9.2424  -19.6731  -58.3243 C.3       19 UNK        -0.1800 
    107 C         -7.8291  -21.5153  -57.3222 C.2       19 UNK         0.5000 
    108 O         -8.0553  -22.5833  -57.8914 O.2       19 UNK        -0.5000 
    109 N         -7.5647  -21.4104  -56.0129 N.am      20 UNK        -0.5000 
    110 CA        -7.4155  -22.5282  -55.0807 C.3       20 UNK         0.1400 
    111 CB        -8.1719  -22.1782  -53.7862 C.3       20 UNK        -0.1800 
    112 C         -5.9302  -22.8301  -54.7887 C.2       20 UNK         0.5000 
    113 O         -5.6389  -23.5465  -53.8293 O.2       20 UNK        -0.5000 
    114 N         -5.0101  -22.2381  -55.5709 N.am      21 UNK        -0.5000 
    115 CA        -3.5498  -22.2567  -55.3998 C.3       21 UNK         0.1400 
    116 CB        -2.9881  -23.6677  -55.6700 C.3       21 UNK        -0.1800 
    117 C         -3.0973  -21.6807  -54.0387 C.2       21 UNK         0.5000 
    118 O         -2.0682  -22.0914  -53.5036 O.2       21 UNK        -0.5000 
    119 N         -3.9075  -20.7625  -53.4976 N.am      22 UNK        -0.5000 
    120 CA        -3.8372  -20.2014  -52.1450 C.3       22 UNK         0.1400 
    121 C         -4.1366  -21.2063  -50.9864 C.2       22 UNK         0.5000 
    122 N         -4.5898  -22.4254  -51.2529 N.am      22 UNK        -0.7600 
    123 O         -4.0407  -20.8521  -49.8150 O.2       22 UNK        -0.5000 
    124 C124       -2.6551  -19.1941  -51.9578 C.3       23 UNK        -0.0398 
    125 S125       -1.2896  -19.6400  -50.8324 S.3       23 UNK        -0.2404 
    126 C126        0.1144  -19.8013  -51.9703 C.3       23 UNK        -0.0205 
    127 H127        4.0394  -14.8947  -43.8171 H         1 UNK         0.0600 
    128 H128        2.5292  -14.1985  -43.2191 H         1 UNK         0.0600 
    129 H129        3.3695  -13.4482  -44.5788 H         1 UNK         0.0600 
    130 H130        2.3838  -13.8944  -46.5335 H         1 UNK         0.3000 
    131 H131        0.5956  -16.2170  -46.8102 H         1 UNK         0.0600 
    132 H132        1.4190  -16.7377  -49.0662 H         1 UNK         0.0800 
    133 H133        2.6801  -15.5320  -48.9534 H         1 UNK         0.0800 
    134 H134        4.1235  -17.3133  -49.9685 H         1 UNK         0.0800 
    135 H135        5.0355  -18.4443  -49.0070 H         1 UNK         0.0800 
    136 H136        1.7973  -18.0152  -50.8273 H         1 UNK         0.1150 
    137 H137        1.2246  -22.2159  -51.3830 H         1 UNK         0.1150 
    138 H138        4.5350  -20.7779  -49.0508 H         1 UNK         0.1150 
    139 H139        2.4760  -23.7361  -49.7729 H         1 UNK         0.0800 
    140 H140        3.6955  -23.5068  -51.0014 H         1 UNK         0.0800 
    141 H141        4.3346  -22.3067  -46.7831 H         1 UNK         0.0800 
    142 H142        2.7885  -22.7032  -47.4627 H         1 UNK         0.0800 
    143 H143        4.6004  -24.9261  -46.4148 H         1 UNK         0.0600 
    144 H144        3.2922  -22.9360  -44.7690 H         1 UNK         0.3000 
    145 H145        3.5689  -24.6892  -41.7358 H         1 UNK         0.0600 
    146 H146        4.7870  -22.6399  -41.0152 H         1 UNK         0.0600 
    147 H147        5.1987  -22.2721  -42.6889 H         1 UNK         0.0600 
    148 H148        5.8473  -23.7125  -41.9170 H         1 UNK         0.0600 
    149 H149        2.7285  -22.0329  -42.5018 H         1 UNK         0.3000 
    150 H150       -0.6640  -22.8991  -43.2228 H         1 UNK         0.0600 
    151 H151       -0.5059  -22.6722  -40.7239 H         1 UNK         0.0600 
    152 H152       -1.0782  -21.1980  -41.4890 H         1 UNK         0.0600 
    153 H153        0.5876  -21.3054  -40.9233 H         1 UNK         0.0600 
    154 H154        0.5519  -20.3690  -43.2281 H         1 UNK         0.3000 
    155 H155        1.9146  -20.4550  -46.5606 H         1 UNK         0.0600 
    156 H156       -0.5573  -19.9284  -46.6629 H         1 UNK         0.0600 
    157 H157        0.4670  -18.5132  -46.7876 H         1 UNK         0.0600 
    158 H158       -0.3637  -18.8728  -45.2731 H         1 UNK         0.0600 
    159 H159        2.0067  -18.3613  -44.6984 H         1 UNK         0.3000 
    160 H160        4.9114  -19.3507  -42.8654 H         1 UNK         0.0600 
    161 H161        4.5431  -17.2285  -45.0379 H         1 UNK         0.0600 
    162 H162        5.8351  -18.4130  -44.9508 H         1 UNK         0.0600 
    163 H163        5.7126  -17.1618  -43.7222 H         1 UNK         0.0600 
    164 H164        2.9103  -17.1663  -43.1119 H         1 UNK         0.3000 
    165 H165        1.3552  -18.0645  -40.0317 H         1 UNK         0.0600 
    166 H166        1.8826  -15.7264  -39.4227 H         1 UNK         0.0600 
    167 H167        3.3365  -16.7056  -39.3179 H         1 UNK         0.0600 
    168 H168        3.1023  -15.6337  -40.6938 H         1 UNK         0.0600 
    169 H169        0.8116  -15.8661  -41.6744 H         1 UNK         0.3000 
    170 H170       -0.6791  -16.6497  -44.1975 H         1 UNK         0.0600 
    171 H171       -2.2925  -18.4625  -43.7815 H         1 UNK         0.0600 
    172 H172       -2.7955  -17.7274  -42.2638 H         1 UNK         0.0600 
    173 H173       -3.1436  -16.9298  -43.7964 H         1 UNK         0.0600 
    174 H174       -1.6575  -15.4621  -41.6269 H         1 UNK         0.3000 
    175 H175       -2.0936  -13.2407  -41.5820 H         1 UNK         0.0600 
    176 H176        0.7596  -12.3375  -42.2946 H         1 UNK         0.0600 
    177 H177       -0.2435  -11.6346  -41.0270 H         1 UNK         0.0600 
    178 H178        0.3022  -13.2990  -40.8931 H         1 UNK         0.0600 
    179 H179       -1.0815  -11.6869  -43.9227 H         1 UNK         0.3000 
    180 H180       -4.3239  -11.0604  -45.0833 H         1 UNK         0.0600 
    181 H181       -3.9263   -9.0464  -43.6583 H         1 UNK         0.0600 
    182 H182       -3.4893   -8.7355  -45.3307 H         1 UNK         0.0600 
    183 H183       -2.2312   -9.0296  -44.1294 H         1 UNK         0.0600 
    184 H184       -1.7186  -10.4464  -46.0952 H         1 UNK         0.3000 
    185 H185       -1.7368  -12.8171  -48.4374 H         1 UNK         0.0600 
    186 H186       -0.9820  -10.4463  -48.1012 H         1 UNK         0.0600 
    187 H187        0.2049  -10.9863  -46.9083 H         1 UNK         0.0600 
    188 H188        0.3476  -11.4728  -48.5915 H         1 UNK         0.0600 
    189 H189       -0.3272  -13.8315  -46.0927 H         1 UNK         0.3000 
    190 H190        1.6710  -24.9548  -44.8437 H         1 UNK         0.3000 
    191 H191       -0.1520  -26.1616  -44.8398 H         1 UNK         0.0600 
    192 H192       -0.3147  -28.3126  -45.9913 H         1 UNK         0.0600 
    193 H193        1.3198  -28.1198  -45.3809 H         1 UNK         0.0600 
    194 H194        0.9825  -27.8890  -47.0967 H         1 UNK         0.0600 
    195 H195       -0.0224  -23.7516  -46.3568 H         1 UNK         0.3000 
    196 H196       -2.3289  -24.0778  -48.2278 H         1 UNK         0.0600 
    197 H197       -0.2136  -21.8490  -48.1119 H         1 UNK         0.0600 
    198 H198       -0.2244  -23.1555  -49.2912 H         1 UNK         0.0600 
    199 H199       -1.5364  -21.9973  -49.2668 H         1 UNK         0.0600 
    200 H200       -3.5387  -21.7624  -48.1697 H         1 UNK         0.3000 
    201 H201       -4.1997  -21.2198  -45.2920 H         1 UNK         0.0600 
    202 H202       -6.5148  -20.8957  -46.1563 H         1 UNK         0.0600 
    203 H203       -5.9353  -22.5156  -46.5076 H         1 UNK         0.0600 
    204 H204       -5.9806  -21.3013  -47.7837 H         1 UNK         0.0600 
    205 H205       -2.9360  -19.8223  -48.1181 H         1 UNK         0.3000 
    206 H206       -2.5178  -17.7906  -48.8900 H         1 UNK         0.0600 
    207 H207       -1.7728  -17.1435  -46.5746 H         1 UNK         0.0600 
    208 H208       -2.4448  -15.8003  -47.4843 H         1 UNK         0.0600 
    209 H209       -3.4011  -16.5637  -46.2308 H         1 UNK         0.0600 
    210 H210       -4.9052  -19.1333  -49.4044 H         1 UNK         0.3000 
    211 H211       -7.1354  -17.2383  -49.4881 H         1 UNK         0.0600 
    212 H212       -6.8883  -20.0600  -50.6670 H         1 UNK         0.0600 
    213 H213       -8.3752  -19.1677  -50.3663 H         1 UNK         0.0600 
    214 H214       -7.4039  -19.7120  -49.0191 H         1 UNK         0.0600 
    215 H215       -8.2383  -18.0327  -51.9822 H         1 UNK         0.3000 
    216 H216       -7.0972  -16.1250  -53.7852 H         1 UNK         0.0600 
    217 H217       -9.5347  -16.6597  -53.6974 H         1 UNK         0.0600 
    218 H218       -9.2106  -18.3137  -54.2174 H         1 UNK         0.0600 
    219 H219       -8.9012  -16.9660  -55.3052 H         1 UNK         0.0600 
    220 H220       -6.0924  -16.4386  -55.7854 H         1 UNK         0.3000 
    221 H221       -4.1635  -18.4842  -56.0357 H         1 UNK         0.0600 
    222 H222       -3.7563  -17.4428  -58.2731 H         1 UNK         0.0600 
    223 H223       -5.2463  -16.5184  -58.1261 H         1 UNK         0.0600 
    224 H224       -3.9049  -16.2231  -57.0188 H         1 UNK         0.0600 
    225 H225       -7.4715  -18.3369  -57.2095 H         1 UNK         0.3000 
    226 H226       -7.4056  -20.4433  -59.1283 H         1 UNK         0.0600 
    227 H227       -9.2564  -18.7937  -58.9683 H         1 UNK         0.0600 
    228 H228       -9.8850  -20.4232  -58.7874 H         1 UNK         0.0600 
    229 H229       -9.6932  -19.3988  -57.3695 H         1 UNK         0.0600 
    230 H230       -7.3553  -20.4965  -55.6281 H         1 UNK         0.3000 
    231 H231       -7.8555  -23.4354  -55.4991 H         1 UNK         0.0600 
    232 H232       -8.1582  -23.0123  -53.0837 H         1 UNK         0.0600 
    233 H233       -9.2172  -21.9468  -53.9908 H         1 UNK         0.0600 
    234 H234       -7.7312  -21.3176  -53.2810 H         1 UNK         0.0600 
    235 H235       -5.3375  -21.6608  -56.3365 H         1 UNK         0.3000 
    236 H236       -3.1433  -21.5885  -56.1600 H         1 UNK         0.0600 
    237 H237       -3.2972  -24.3807  -54.9052 H         1 UNK         0.0600 
    238 H238       -3.3216  -24.0459  -56.6363 H         1 UNK         0.0600 
    239 H239       -1.8976  -23.6585  -55.6856 H         1 UNK         0.0600 
    240 H240       -4.7372  -20.4905  -54.0139 H         1 UNK         0.3000 
    241 H241       -4.7339  -19.5876  -52.1274 H         1 UNK         0.0600 
    242 H242       -4.8145  -23.0440  -50.4921 H         1 UNK         0.3800 
    243 H243       -4.7499  -22.7348  -52.2050 H         1 UNK         0.3800 
    244 H244       -3.0595  -18.2658  -51.5545 H         1 UNK         0.0800 
    245 H245       -2.2426  -18.9079  -52.9260 H         1 UNK         0.0800 
    246 H246       -0.0771  -20.6013  -52.6857 H         1 UNK         0.0800 
    247 H247        0.2307  -18.8828  -52.5474 H         1 UNK         0.0800 
@<TRIPOS>BOND
     1    1    2 1    
     2    1  127 1    
     3    1  128 1    
     4    1  129 1    
     5    2    3 2    
     6    2    4 am   BACKBONE|DICT|INTERRES
     7    4    5 1    
     8    4  130 1    
     9    5    6 1    
    10    5   65 1    
    11    5  131 1    
    12    6    7 1    
    13    6  132 1    
    14    6  133 1    
    15    7    8 1    
    16    8    9 1    
    17    8  134 1    
    18    8  135 1    
    19    9   10 ar   
    20    9   14 ar   
    21   10   11 ar   
    22   10  136 1    
    23   11   12 ar   
    24   11  126 1    
    25   12   13 ar   
    26   12  137 1    
    27   13   14 ar   
    28   13   15 1    
    29   14  138 1    
    30   15   16 1    
    31   15  139 1    
    32   15  140 1    
    33   16   17 1    
    34   17   18 1    
    35   17  141 1    
    36   17  142 1    
    37   18   19 1    
    38   18   67 1    
    39   18  143 1    
    40   19   20 am   BACKBONE|DICT|INTERRES
    41   19  144 1    
    42   20   21 2    
    43   20   22 1    
    44   22   23 1    
    45   22   24 1    
    46   22  145 1    
    47   23  146 1    
    48   23  147 1    
    49   23  148 1    
    50   24   25 am   BACKBONE|DICT|INTERRES
    51   24  149 1    
    52   25   26 2    
    53   25   27 1    
    54   27   28 1    
    55   27   29 1    
    56   27  150 1    
    57   28  151 1    
    58   28  152 1    
    59   28  153 1    
    60   29   30 am   BACKBONE|DICT|INTERRES
    61   29  154 1    
    62   30   31 2    
    63   30   32 1    
    64   32   33 1    
    65   32   34 1    
    66   32  155 1    
    67   33  156 1    
    68   33  157 1    
    69   33  158 1    
    70   34   35 am   BACKBONE|DICT|INTERRES
    71   34  159 1    
    72   35   36 2    
    73   35   37 1    
    74   37   38 1    
    75   37   39 1    
    76   37  160 1    
    77   38  161 1    
    78   38  162 1    
    79   38  163 1    
    80   39   40 am   BACKBONE|DICT|INTERRES
    81   39  164 1    
    82   40   41 2    
    83   40   42 1    
    84   42   43 1    
    85   42   44 1    
    86   42  165 1    
    87   43  166 1    
    88   43  167 1    
    89   43  168 1    
    90   44   45 am   BACKBONE|DICT|INTERRES
    91   44  169 1    
    92   45   46 2    
    93   45   47 1    
    94   47   48 1    
    95   47   49 1    
    96   47  170 1    
    97   48  171 1    
    98   48  172 1    
    99   48  173 1    
   100   49   50 am   BACKBONE|DICT|INTERRES
   101   49  174 1    
   102   50   51 2    
   103   50   52 1    
   104   52   53 1    
   105   52   54 1    
   106   52  175 1    
   107   53  176 1    
   108   53  177 1    
   109   53  178 1    
   110   54   55 am   BACKBONE|DICT|INTERRES
   111   54  179 1    
   112   55   56 2    
   113   55   57 1    
   114   57   58 1    
   115   57   59 1    
   116   57  180 1    
   117   58  181 1    
   118   58  182 1    
   119   58  183 1    
   120   59   60 am   BACKBONE|DICT|INTERRES
   121   59  184 1    
   122   60   61 2    
   123   60   62 1    
   124   62   63 1    
   125   62   64 1    
   126   62  185 1    
   127   63  186 1    
   128   63  187 1    
   129   63  188 1    
   130   64   65 am   BACKBONE|DICT|INTERRES
   131   64  189 1    
   132   65   66 2    
   133   67   68 2    
   134   67   69 am   BACKBONE|DICT|INTERRES
   135   69   70 1    
   136   69  190 1    
   137   70   71 1    
   138   70   72 1    
   139   70  191 1    
   140   71  192 1    
   141   71  193 1    
   142   71  194 1    
   143   72   73 2    
   144   72   74 am   BACKBONE|DICT|INTERRES
   145   74   75 1    
   146   74  195 1    
   147   75   76 1    
   148   75   77 1    
   149   75  196 1    
   150   76  197 1    
   151   76  198 1    
   152   76  199 1    
   153   77   78 2    
   154   77   79 am   BACKBONE|DICT|INTERRES
   155   79   80 1    
   156   79  200 1    
   157   80   81 1    
   158   80   82 1    
   159   80  201 1    
   160   81  202 1    
   161   81  203 1    
   162   81  204 1    
   163   82   83 2    
   164   82   84 am   BACKBONE|DICT|INTERRES
   165   84   85 1    
   166   84  205 1    
   167   85   86 1    
   168   85   87 1    
   169   85  206 1    
   170   86  207 1    
   171   86  208 1    
   172   86  209 1    
   173   87   88 2    
   174   87   89 am   BACKBONE|DICT|INTERRES
   175   89   90 1    
   176   89  210 1    
   177   90   91 1    
   178   90   92 1    
   179   90  211 1    
   180   91  212 1    
   181   91  213 1    
   182   91  214 1    
   183   92   93 2    
   184   92   94 am   BACKBONE|DICT|INTERRES
   185   94   95 1    
   186   94  215 1    
   187   95   96 1    
   188   95   97 1    
   189   95  216 1    
   190   96  217 1    
   191   96  218 1    
   192   96  219 1    
   193   97   98 2    
   194   97   99 am   BACKBONE|DICT|INTERRES
   195   99  100 1    
   196   99  220 1    
   197  100  101 1    
   198  100  102 1    
   199  100  221 1    
   200  101  222 1    
   201  101  223 1    
   202  101  224 1    
   203  102  103 2    
   204  102  104 am   BACKBONE|DICT|INTERRES
   205  104  105 1    
   206  104  225 1    
   207  105  106 1    
   208  105  107 1    
   209  105  226 1    
   210  106  227 1    
   211  106  228 1    
   212  106  229 1    
   213  107  108 2    
   214  107  109 am   BACKBONE|DICT|INTERRES
   215  109  110 1    
   216  109  230 1    
   217  110  111 1    
   218  110  112 1    
   219  110  231 1    
   220  111  232 1    
   221  111  233 1    
   222  111  234 1    
   223  112  113 2    
   224  112  114 am   BACKBONE|DICT|INTERRES
   225  114  115 1    
   226  114  235 1    
   227  115  116 1    
   228  115  117 1    
   229  115  236 1    
   230  116  237 1    
   231  116  238 1    
   232  116  239 1    
   233  117  118 2    
   234  117  119 am   BACKBONE|DICT|INTERRES
   235  119  120 1    
   236  119  240 1    
   237  120  121 1    
   238  120  124 1    
   239  120  241 1    
   240  121  122 am   BACKBONE|DICT|INTERRES
   241  121  123 2    
   242  122  242 1    
   243  122  243 1    
   244  124  125 1    
   245  124  244 1    
   246  124  245 1    
   247  125  126 1    
   248  126  246 1    
   249  126  247 1    
@<TRIPOS>SUBSTRUCTURE
     1 UNK         1 GROUP             0       ****    0 ROOT    
