@<TRIPOS>MOLECULE
3R540
247   249    1
SMALL
USER_CHARGES


@<TRIPOS>ATOM
      1 CA          1.3950  -16.4853  -48.1108 C.3       0 UNK        -0.1800 
      2 C           1.0533  -15.1434  -47.4826 C.2       0 UNK         0.5000 
      3 O           1.9480  -14.4537  -46.9930 O.2       0 UNK        -0.5000 
      4 N          -0.2272  -14.7488  -47.5158 N.am      1 UNK        -0.5000 
      5 CA         -0.7162  -13.4658  -46.9906 C.3       1 UNK         0.1400 
      6 C6         -2.2637  -13.3790  -46.9847 C.3       23 UNK        -0.0398 
      7 S7         -3.0309  -13.5040  -48.6421 S.3       23 UNK        -0.2404 
      8 C8         -4.3071  -14.7785  -48.3874 C.3       23 UNK        -0.0205 
      9 C9         -3.7324  -16.1708  -48.1624 C.ar      23 UNK        -0.0193 
     10 C10        -2.8321  -16.7234  -49.0792 C.ar      23 UNK        -0.1150 
     11 C11        -2.3479  -18.0210  -48.9012 C.ar      23 UNK        -0.0193 
     12 C12        -2.7716  -18.7668  -47.8003 C.ar      23 UNK        -0.1150 
     13 C13        -3.6725  -18.2320  -46.8748 C.ar      23 UNK        -0.0193 
     14 C14        -4.1437  -16.9287  -47.0604 C.ar      23 UNK        -0.1150 
     15 C15        -4.1334  -19.0563  -45.6772 C.3       23 UNK        -0.0205 
     16 S16        -4.8542  -20.6553  -46.1778 S.3       23 UNK        -0.2404 
     17 C17        -3.9049  -21.8748  -45.2025 C.3       23 UNK        -0.0398 
     18 CA         -2.4898  -22.1282  -45.7862 C.3       11 UNK         0.1400 
     19 N          -1.5025  -21.1596  -45.2950 N.am      11 UNK        -0.5000 
     20 C          -0.4029  -20.8077  -45.9739 C.2       10 UNK         0.5000 
     21 O          -0.0891  -21.2971  -47.0571 O.2       10 UNK        -0.5000 
     22 CA          0.5142  -19.7574  -45.3278 C.3       10 UNK         0.1400 
     23 CB         -0.0987  -18.3545  -45.4445 C.3       10 UNK        -0.1800 
     24 N           0.8203  -20.0354  -43.9267 N.am      10 UNK        -0.5000 
     25 C           1.4366  -21.1338  -43.4702 C.2       9 UNK         0.5000 
     26 O           1.7512  -22.0877  -44.1812 O.2       9 UNK        -0.5000 
     27 CA          1.7258  -21.1796  -41.9624 C.3       9 UNK         0.1400 
     28 CB          2.9085  -20.2655  -41.6035 C.3       9 UNK        -0.1800 
     29 N           0.5471  -20.7746  -41.2005 N.am      9 UNK        -0.5000 
     30 C          -0.4193  -21.6141  -40.8053 C.2       8 UNK         0.5000 
     31 O          -0.3734  -22.8332  -40.9661 O.2       8 UNK        -0.5000 
     32 CA         -1.6559  -20.9937  -40.1248 C.3       8 UNK         0.1400 
     33 CB         -1.4846  -20.9939  -38.5982 C.3       8 UNK        -0.1800 
     34 N          -1.9562  -19.6316  -40.5698 N.am      8 UNK        -0.5000 
     35 C          -2.3006  -19.2925  -41.8195 C.2       7 UNK         0.5000 
     36 O          -2.3952  -20.0946  -42.7472 O.2       7 UNK        -0.5000 
     37 CA         -2.5072  -17.7912  -42.0912 C.3       7 UNK         0.1400 
     38 CB         -3.9379  -17.3685  -41.7287 C.3       7 UNK        -0.1800 
     39 N          -1.5461  -16.9237  -41.4005 N.am      7 UNK        -0.5000 
     40 C          -0.2142  -17.0122  -41.5160 C.2       6 UNK         0.5000 
     41 O           0.3633  -17.9040  -42.1420 O.2       6 UNK        -0.5000 
     42 CA          0.6219  -15.9528  -40.7798 C.3       6 UNK         0.1400 
     43 CB          1.0786  -16.4930  -39.4162 C.3       6 UNK        -0.1800 
     44 N           1.7993  -15.5824  -41.5653 N.am      6 UNK        -0.5000 
     45 C           1.7508  -14.9252  -42.7305 C.2       5 UNK         0.5000 
     46 O           0.7116  -14.4728  -43.2204 O.2       5 UNK        -0.5000 
     47 CA          3.0865  -14.7744  -43.4806 C.3       5 UNK         0.1400 
     48 CB          3.3634  -16.0150  -44.3445 C.3       5 UNK        -0.1800 
     49 N           3.0681  -13.5851  -44.3304 N.am      5 UNK        -0.5000 
     50 C           3.2162  -12.3359  -43.8663 C.2       4 UNK         0.5000 
     51 O           3.5123  -12.0825  -42.6964 O.2       4 UNK        -0.5000 
     52 CA          2.9680  -11.1794  -44.8577 C.3       4 UNK         0.1400 
     53 CB          3.7092   -9.8809  -44.4745 C.3       4 UNK        -0.1800 
     54 N           3.2195  -11.5399  -46.2549 N.am      4 UNK        -0.5000 
     55 C           4.3888  -11.8706  -46.8261 C.2       3 UNK         0.5000 
     56 O           5.4651  -11.8783  -46.2275 O.2       3 UNK        -0.5000 
     57 CA          4.3540  -12.2725  -48.3163 C.3       3 UNK         0.1400 
     58 CB          4.9632  -13.6697  -48.5262 C.3       3 UNK        -0.1800 
     59 N           2.9923  -12.2703  -48.8547 N.am      3 UNK        -0.5000 
     60 C           2.3998  -11.2314  -49.4594 C.2       2 UNK         0.5000 
     61 O           2.9723  -10.1714  -49.7129 O.2       2 UNK        -0.5000 
     62 CA          0.9088  -11.3915  -49.8204 C.3       2 UNK         0.1400 
     63 CB          0.7521  -11.7802  -51.2982 C.3       2 UNK        -0.1800 
     64 N           0.2143  -12.3826  -48.9953 N.am      2 UNK        -0.5000 
     65 C          -0.0707  -12.2462  -47.6914 C.2       1 UNK         0.5000 
     66 O           0.2105  -11.2429  -47.0358 O.2       1 UNK        -0.5000 
     67 C          -2.0226  -23.5870  -45.5905 C.2       11 UNK         0.5000 
     68 O          -2.5738  -24.4765  -46.2388 O.2       11 UNK        -0.5000 
     69 N          -1.0052  -23.8177  -44.7472 N.am      12 UNK        -0.5000 
     70 CA         -0.3159  -25.1053  -44.6457 C.3       12 UNK         0.1400 
     71 CB          0.3799  -25.2223  -43.2816 C.3       12 UNK        -0.1800 
     72 C           0.6876  -25.2954  -45.7986 C.2       12 UNK         0.5000 
     73 O           0.8022  -26.4018  -46.3268 O.2       12 UNK        -0.5000 
     74 N           1.3848  -24.2137  -46.1751 N.am      13 UNK        -0.5000 
     75 CA          2.3288  -24.1750  -47.2924 C.3       13 UNK         0.1400 
     76 CB          3.2086  -22.9222  -47.1598 C.3       13 UNK        -0.1800 
     77 C           1.6413  -24.2087  -48.6718 C.2       13 UNK         0.5000 
     78 O           2.2244  -24.7357  -49.6204 O.2       13 UNK        -0.5000 
     79 N           0.4331  -23.6355  -48.7608 N.am      14 UNK        -0.5000 
     80 CA         -0.3961  -23.5567  -49.9638 C.3       14 UNK         0.1400 
     81 CB         -1.6904  -22.7975  -49.6279 C.3       14 UNK        -0.1800 
     82 C          -0.7472  -24.9300  -50.5670 C.2       14 UNK         0.5000 
     83 O          -1.0279  -25.8796  -49.8310 O.2       14 UNK        -0.5000 
     84 N          -0.7684  -24.9868  -51.9029 N.am      15 UNK        -0.5000 
     85 CA         -1.2513  -26.1194  -52.6901 C.3       15 UNK         0.1400 
     86 CB         -0.7194  -25.9706  -54.1266 C.3       15 UNK        -0.1800 
     87 C          -2.7919  -26.2170  -52.6812 C.2       15 UNK         0.5000 
     88 O          -3.4776  -25.3477  -52.1345 O.2       15 UNK        -0.5000 
     89 N          -3.3117  -27.2597  -53.3452 N.am      16 UNK        -0.5000 
     90 CA         -4.7361  -27.5980  -53.4806 C.3       16 UNK         0.1400 
     91 CB         -4.8520  -28.9195  -54.2570 C.3       16 UNK        -0.1800 
     92 C          -5.6278  -26.5130  -54.1266 C.2       16 UNK         0.5000 
     93 O          -6.8524  -26.6114  -54.0393 O.2       16 UNK        -0.5000 
     94 N          -5.0115  -25.4887  -54.7331 N.am      17 UNK        -0.5000 
     95 CA         -5.6577  -24.2611  -55.2024 C.3       17 UNK         0.1400 
     96 CB         -4.6243  -23.4327  -55.9811 C.3       17 UNK        -0.1800 
     97 C          -6.2799  -23.4146  -54.0682 C.2       17 UNK         0.5000 
     98 O          -7.1868  -22.6286  -54.3445 O.2       17 UNK        -0.5000 
     99 N          -5.7981  -23.6075  -52.8289 N.am      18 UNK        -0.5000 
    100 CA        -6.2277  -22.9612  -51.5845 C.3       18 UNK         0.1400 
    101 CB        -7.7170  -23.2526  -51.2950 C.3       18 UNK        -0.1800 
    102 C         -5.8828  -21.4582  -51.5274 C.2       18 UNK         0.5000 
    103 O         -5.1399  -20.9641  -52.3782 O.2       18 UNK        -0.5000 
    104 N         -6.3824  -20.7813  -50.4826 N.am      19 UNK        -0.5000 
    105 CA        -6.0876  -19.3935  -50.1144 C.3       19 UNK         0.1400 
    106 CB        -6.9740  -18.9933  -48.9250 C.3       19 UNK        -0.1800 
    107 C         -6.2684  -18.3827  -51.2628 C.2       19 UNK         0.5000 
    108 O         -7.2618  -18.4495  -51.9903 O.2       19 UNK        -0.5000 
    109 N         -5.3053  -17.4576  -51.3719 N.am      20 UNK        -0.5000 
    110 CA        -5.2003  -16.3889  -52.3733 C.3       20 UNK         0.1400 
    111 CB        -6.3831  -15.4039  -52.2629 C.3       20 UNK        -0.1800 
    112 C         -4.9703  -16.8903  -53.8183 C.2       20 UNK         0.5000 
    113 O         -5.1870  -16.1336  -54.7665 O.2       20 UNK        -0.5000 
    114 N         -4.4993  -18.1336  -53.9646 N.am      21 UNK        -0.5000 
    115 CA        -4.0696  -18.7382  -55.2230 C.3       21 UNK         0.1400 
    116 CB        -5.2019  -19.5898  -55.8215 C.3       21 UNK        -0.1800 
    117 C         -2.8031  -19.5543  -54.9417 C.2       21 UNK         0.5000 
    118 O         -1.7361  -19.2283  -55.4606 O.2       21 UNK        -0.5000 
    119 N         -2.9413  -20.5428  -54.0509 N.am      22 UNK        -0.5000 
    120 CA        -1.8776  -21.2107  -53.2818 C.3       22 UNK         0.1400 
    121 C         -0.8553  -22.0729  -54.0743 C.2       22 UNK         0.5000 
    122 N         -0.9625  -22.2080  -55.3883 N.am      22 UNK        -0.7600 
    123 O          0.0203  -22.6841  -53.4685 O.2       22 UNK        -0.5000 
    124 C124       -1.1865  -20.2424  -52.2792 C.3       23 UNK        -0.0398 
    125 S125       -2.4237  -19.4358  -51.2100 S.3       23 UNK        -0.2404 
    126 C126       -1.4210  -18.6453  -49.9291 C.3       23 UNK        -0.0205 
    127 H127        2.0660  -16.3405  -48.9572 H         1 UNK         0.0600 
    128 H128        0.5052  -17.0025  -48.4659 H         1 UNK         0.0600 
    129 H129        1.8968  -17.1243  -47.3847 H         1 UNK         0.0600 
    130 H130       -0.9298  -15.3469  -47.9274 H         1 UNK         0.3000 
    131 H131       -0.3931  -13.4209  -45.9477 H         1 UNK         0.0600 
    132 H132       -2.6617  -14.1656  -46.3424 H         1 UNK         0.0800 
    133 H133       -2.5875  -12.4419  -46.5284 H         1 UNK         0.0800 
    134 H134       -4.9478  -14.8095  -49.2693 H         1 UNK         0.0800 
    135 H135       -4.9463  -14.4780  -47.5558 H         1 UNK         0.0800 
    136 H136       -2.5258  -16.1510  -49.9439 H         1 UNK         0.1150 
    137 H137       -2.4186  -19.7793  -47.6818 H         1 UNK         0.1150 
    138 H138       -4.8463  -16.5092  -46.3542 H         1 UNK         0.1150 
    139 H139       -3.2870  -19.2056  -45.0125 H         1 UNK         0.0800 
    140 H140       -4.8795  -18.5118  -45.0970 H         1 UNK         0.0800 
    141 H141       -4.5019  -22.7885  -45.2200 H         1 UNK         0.0800 
    142 H142       -3.8691  -21.5767  -44.1556 H         1 UNK         0.0800 
    143 H143       -2.5636  -22.0089  -46.8684 H         1 UNK         0.0600 
    144 H144       -1.6937  -20.7358  -44.3898 H         1 UNK         0.3000 
    145 H145        1.4580  -19.7619  -45.8769 H         1 UNK         0.0600 
    146 H146        0.5800  -17.5906  -45.0662 H         1 UNK         0.0600 
    147 H147       -0.3230  -18.1108  -46.4819 H         1 UNK         0.0600 
    148 H148       -1.0292  -18.2756  -44.8861 H         1 UNK         0.0600 
    149 H149        0.6073  -19.2903  -43.2663 H         1 UNK         0.3000 
    150 H150        2.0025  -22.2033  -41.7012 H         1 UNK         0.0600 
    151 H151        3.8055  -20.5581  -42.1507 H         1 UNK         0.0600 
    152 H152        3.1421  -20.3258  -40.5405 H         1 UNK         0.0600 
    153 H153        2.7062  -19.2208  -41.8416 H         1 UNK         0.0600 
    154 H154        0.4019  -19.7791  -41.0921 H         1 UNK         0.3000 
    155 H155       -2.5142  -21.6215  -40.3736 H         1 UNK         0.0600 
    156 H156       -0.6552  -20.3577  -38.2865 H         1 UNK         0.0600 
    157 H157       -1.2839  -22.0001  -38.2276 H         1 UNK         0.0600 
    158 H158       -2.3869  -20.6397  -38.0993 H         1 UNK         0.0600 
    159 H159       -1.8838  -18.9006  -39.8777 H         1 UNK         0.3000 
    160 H160       -2.3762  -17.6301  -43.1617 H         1 UNK         0.0600 
    161 H161       -4.1269  -17.4593  -40.6583 H         1 UNK         0.0600 
    162 H162       -4.6711  -17.9890  -42.2461 H         1 UNK         0.0600 
    163 H163       -4.1292  -16.3349  -42.0177 H         1 UNK         0.0600 
    164 H164       -1.9383  -16.1712  -40.8530 H         1 UNK         0.3000 
    165 H165        0.0138  -15.0595  -40.6226 H         1 UNK         0.0600 
    166 H166        1.6584  -15.7482  -38.8706 H         1 UNK         0.0600 
    167 H167        0.2231  -16.7571  -38.7932 H         1 UNK         0.0600 
    168 H168        1.6952  -17.3869  -39.5224 H         1 UNK         0.0600 
    169 H169        2.6826  -15.9526  -41.2474 H         1 UNK         0.3000 
    170 H170        3.8939  -14.6759  -42.7517 H         1 UNK         0.0600 
    171 H171        3.4586  -16.9087  -43.7265 H         1 UNK         0.0600 
    172 H172        2.5584  -16.1982  -45.0547 H         1 UNK         0.0600 
    173 H173        4.2899  -15.9065  -44.9086 H         1 UNK         0.0600 
    174 H174        2.7701  -13.7250  -45.2908 H         1 UNK         0.3000 
    175 H175        1.8994  -10.9692  -44.7969 H         1 UNK         0.0600 
    176 H176        4.7884  -10.0274  -44.4259 H         1 UNK         0.0600 
    177 H177        3.5094   -9.0861  -45.1932 H         1 UNK         0.0600 
    178 H178        3.3861   -9.5203  -43.4974 H         1 UNK         0.0600 
    179 H179        2.3912  -11.5741  -46.8351 H         1 UNK         0.3000 
    180 H180        4.9676  -11.5523  -48.8612 H         1 UNK         0.0600 
    181 H181        4.4320  -14.4334  -47.9576 H         1 UNK         0.0600 
    182 H182        6.0063  -13.6937  -48.2088 H         1 UNK         0.0600 
    183 H183        4.9391  -13.9565  -49.5775 H         1 UNK         0.0600 
    184 H184        2.4366  -13.0870  -48.6343 H         1 UNK         0.3000 
    185 H185        0.4269  -10.4237  -49.6668 H         1 UNK         0.0600 
    186 H186        1.2312  -11.0469  -51.9483 H         1 UNK         0.0600 
    187 H187        1.2034  -12.7506  -51.5092 H         1 UNK         0.0600 
    188 H188       -0.2988  -11.8284  -51.5841 H         1 UNK         0.0600 
    189 H189       -0.0571  -13.2414  -49.4515 H         1 UNK         0.3000 
    190 H190       -0.5906  -23.0373  -44.2583 H         1 UNK         0.3000 
    191 H191       -1.0526  -25.9093  -44.7092 H         1 UNK         0.0600 
    192 H192        1.1209  -24.4376  -43.1307 H         1 UNK         0.0600 
    193 H193        0.8937  -26.1797  -43.1877 H         1 UNK         0.0600 
    194 H194       -0.3421  -25.1613  -42.4674 H         1 UNK         0.0600 
    195 H195        1.2910  -23.3588  -45.6361 H         1 UNK         0.3000 
    196 H196        2.9758  -25.0521  -47.2236 H         1 UNK         0.0600 
    197 H197        3.9441  -22.8731  -47.9637 H         1 UNK         0.0600 
    198 H198        3.7559  -22.9232  -46.2169 H         1 UNK         0.0600 
    199 H199        2.6151  -22.0081  -47.1998 H         1 UNK         0.0600 
    200 H200        0.0821  -23.1486  -47.9448 H         1 UNK         0.3000 
    201 H201        0.1645  -22.9826  -50.7034 H         1 UNK         0.0600 
    202 H202       -1.4837  -21.7834  -49.2884 H         1 UNK         0.0600 
    203 H203       -2.2574  -23.3076  -48.8491 H         1 UNK         0.0600 
    204 H204       -2.3425  -22.7210  -50.4977 H         1 UNK         0.0600 
    205 H205       -0.5055  -24.1603  -52.4336 H         1 UNK         0.3000 
    206 H206       -0.8491  -27.0388  -52.2599 H         1 UNK         0.0600 
    207 H207       -1.1670  -25.1160  -54.6350 H         1 UNK         0.0600 
    208 H208        0.3621  -25.8330  -54.1346 H         1 UNK         0.0600 
    209 H209       -0.9320  -26.8563  -54.7260 H         1 UNK         0.0600 
    210 H210       -2.6728  -27.9091  -53.7810 H         1 UNK         0.3000 
    211 H211       -5.1243  -27.7605  -52.4732 H         1 UNK         0.0600 
    212 H212       -4.4490  -28.8278  -55.2664 H         1 UNK         0.0600 
    213 H213       -5.8928  -29.2336  -54.3467 H         1 UNK         0.0600 
    214 H214       -4.3165  -29.7236  -53.7520 H         1 UNK         0.0600 
    215 H215       -4.0034  -25.5020  -54.7596 H         1 UNK         0.3000 
    216 H216       -6.4618  -24.5437  -55.8848 H         1 UNK         0.0600 
    217 H217       -5.0837  -22.5412  -56.4078 H         1 UNK         0.0600 
    218 H218       -4.1987  -24.0029  -56.8069 H         1 UNK         0.0600 
    219 H219       -3.8056  -23.1074  -55.3384 H         1 UNK         0.0600 
    220 H220       -5.0199  -24.2513  -52.7207 H         1 UNK         0.3000 
    221 H221       -5.6390  -23.4353  -50.7978 H         1 UNK         0.0600 
    222 H222       -8.3769  -22.6840  -51.9509 H         1 UNK         0.0600 
    223 H223       -7.9435  -24.3105  -51.4297 H         1 UNK         0.0600 
    224 H224       -7.9805  -23.0005  -50.2676 H         1 UNK         0.0600 
    225 H225       -6.9964  -21.2740  -49.8522 H         1 UNK         0.3000 
    226 H226       -5.0482  -19.3709  -49.7827 H         1 UNK         0.0600 
    227 H227       -8.0304  -18.9863  -49.1963 H         1 UNK         0.0600 
    228 H228       -6.8503  -19.6767  -48.0864 H         1 UNK         0.0600 
    229 H229       -6.7184  -17.9946  -48.5682 H         1 UNK         0.0600 
    230 H230       -4.5303  -17.5124  -50.7244 H         1 UNK         0.3000 
    231 H231       -4.2976  -15.8352  -52.1113 H         1 UNK         0.0600 
    232 H232       -6.5241  -15.0675  -51.2359 H         1 UNK         0.0600 
    233 H233       -7.3176  -15.8522  -52.6007 H         1 UNK         0.0600 
    234 H234       -6.2106  -14.5160  -52.8720 H         1 UNK         0.0600 
    235 H235       -4.3396  -18.6889  -53.1331 H         1 UNK         0.3000 
    236 H236       -3.8027  -17.9600  -55.9413 H         1 UNK         0.0600 
    237 H237       -5.5462  -20.3572  -55.1275 H         1 UNK         0.0600 
    238 H238       -6.0609  -18.9698  -56.0782 H         1 UNK         0.0600 
    239 H239       -4.8748  -20.0870  -56.7351 H         1 UNK         0.0600 
    240 H240       -3.8703  -20.7137  -53.6695 H         1 UNK         0.3000 
    241 H241       -2.4176  -21.9484  -52.6884 H         1 UNK         0.0600 
    242 H242       -1.6465  -21.6697  -55.8956 H         1 UNK         0.3800 
    243 H243       -0.2985  -22.7791  -55.8859 H         1 UNK         0.3800 
    244 H244       -0.4778  -20.7754  -51.6441 H         1 UNK         0.0800 
    245 H245       -0.6181  -19.4765  -52.8087 H         1 UNK         0.0800 
    246 H246       -0.7664  -19.3801  -49.4571 H         1 UNK         0.0800 
    247 H247       -0.7795  -17.8879  -50.3816 H         1 UNK         0.0800 
@<TRIPOS>BOND
     1    1    2 1    
     2    1  127 1    
     3    1  128 1    
     4    1  129 1    
     5    2    3 2    
     6    2    4 am   BACKBONE|DICT|INTERRES
     7    4    5 1    
     8    4  130 1    
     9    5    6 1    
    10    5   65 1    
    11    5  131 1    
    12    6    7 1    
    13    6  132 1    
    14    6  133 1    
    15    7    8 1    
    16    8    9 1    
    17    8  134 1    
    18    8  135 1    
    19    9   10 ar   
    20    9   14 ar   
    21   10   11 ar   
    22   10  136 1    
    23   11   12 ar   
    24   11  126 1    
    25   12   13 ar   
    26   12  137 1    
    27   13   14 ar   
    28   13   15 1    
    29   14  138 1    
    30   15   16 1    
    31   15  139 1    
    32   15  140 1    
    33   16   17 1    
    34   17   18 1    
    35   17  141 1    
    36   17  142 1    
    37   18   19 1    
    38   18   67 1    
    39   18  143 1    
    40   19   20 am   BACKBONE|DICT|INTERRES
    41   19  144 1    
    42   20   21 2    
    43   20   22 1    
    44   22   23 1    
    45   22   24 1    
    46   22  145 1    
    47   23  146 1    
    48   23  147 1    
    49   23  148 1    
    50   24   25 am   BACKBONE|DICT|INTERRES
    51   24  149 1    
    52   25   26 2    
    53   25   27 1    
    54   27   28 1    
    55   27   29 1    
    56   27  150 1    
    57   28  151 1    
    58   28  152 1    
    59   28  153 1    
    60   29   30 am   BACKBONE|DICT|INTERRES
    61   29  154 1    
    62   30   31 2    
    63   30   32 1    
    64   32   33 1    
    65   32   34 1    
    66   32  155 1    
    67   33  156 1    
    68   33  157 1    
    69   33  158 1    
    70   34   35 am   BACKBONE|DICT|INTERRES
    71   34  159 1    
    72   35   36 2    
    73   35   37 1    
    74   37   38 1    
    75   37   39 1    
    76   37  160 1    
    77   38  161 1    
    78   38  162 1    
    79   38  163 1    
    80   39   40 am   BACKBONE|DICT|INTERRES
    81   39  164 1    
    82   40   41 2    
    83   40   42 1    
    84   42   43 1    
    85   42   44 1    
    86   42  165 1    
    87   43  166 1    
    88   43  167 1    
    89   43  168 1    
    90   44   45 am   BACKBONE|DICT|INTERRES
    91   44  169 1    
    92   45   46 2    
    93   45   47 1    
    94   47   48 1    
    95   47   49 1    
    96   47  170 1    
    97   48  171 1    
    98   48  172 1    
    99   48  173 1    
   100   49   50 am   BACKBONE|DICT|INTERRES
   101   49  174 1    
   102   50   51 2    
   103   50   52 1    
   104   52   53 1    
   105   52   54 1    
   106   52  175 1    
   107   53  176 1    
   108   53  177 1    
   109   53  178 1    
   110   54   55 am   BACKBONE|DICT|INTERRES
   111   54  179 1    
   112   55   56 2    
   113   55   57 1    
   114   57   58 1    
   115   57   59 1    
   116   57  180 1    
   117   58  181 1    
   118   58  182 1    
   119   58  183 1    
   120   59   60 am   BACKBONE|DICT|INTERRES
   121   59  184 1    
   122   60   61 2    
   123   60   62 1    
   124   62   63 1    
   125   62   64 1    
   126   62  185 1    
   127   63  186 1    
   128   63  187 1    
   129   63  188 1    
   130   64   65 am   BACKBONE|DICT|INTERRES
   131   64  189 1    
   132   65   66 2    
   133   67   68 2    
   134   67   69 am   BACKBONE|DICT|INTERRES
   135   69   70 1    
   136   69  190 1    
   137   70   71 1    
   138   70   72 1    
   139   70  191 1    
   140   71  192 1    
   141   71  193 1    
   142   71  194 1    
   143   72   73 2    
   144   72   74 am   BACKBONE|DICT|INTERRES
   145   74   75 1    
   146   74  195 1    
   147   75   76 1    
   148   75   77 1    
   149   75  196 1    
   150   76  197 1    
   151   76  198 1    
   152   76  199 1    
   153   77   78 2    
   154   77   79 am   BACKBONE|DICT|INTERRES
   155   79   80 1    
   156   79  200 1    
   157   80   81 1    
   158   80   82 1    
   159   80  201 1    
   160   81  202 1    
   161   81  203 1    
   162   81  204 1    
   163   82   83 2    
   164   82   84 am   BACKBONE|DICT|INTERRES
   165   84   85 1    
   166   84  205 1    
   167   85   86 1    
   168   85   87 1    
   169   85  206 1    
   170   86  207 1    
   171   86  208 1    
   172   86  209 1    
   173   87   88 2    
   174   87   89 am   BACKBONE|DICT|INTERRES
   175   89   90 1    
   176   89  210 1    
   177   90   91 1    
   178   90   92 1    
   179   90  211 1    
   180   91  212 1    
   181   91  213 1    
   182   91  214 1    
   183   92   93 2    
   184   92   94 am   BACKBONE|DICT|INTERRES
   185   94   95 1    
   186   94  215 1    
   187   95   96 1    
   188   95   97 1    
   189   95  216 1    
   190   96  217 1    
   191   96  218 1    
   192   96  219 1    
   193   97   98 2    
   194   97   99 am   BACKBONE|DICT|INTERRES
   195   99  100 1    
   196   99  220 1    
   197  100  101 1    
   198  100  102 1    
   199  100  221 1    
   200  101  222 1    
   201  101  223 1    
   202  101  224 1    
   203  102  103 2    
   204  102  104 am   BACKBONE|DICT|INTERRES
   205  104  105 1    
   206  104  225 1    
   207  105  106 1    
   208  105  107 1    
   209  105  226 1    
   210  106  227 1    
   211  106  228 1    
   212  106  229 1    
   213  107  108 2    
   214  107  109 am   BACKBONE|DICT|INTERRES
   215  109  110 1    
   216  109  230 1    
   217  110  111 1    
   218  110  112 1    
   219  110  231 1    
   220  111  232 1    
   221  111  233 1    
   222  111  234 1    
   223  112  113 2    
   224  112  114 am   BACKBONE|DICT|INTERRES
   225  114  115 1    
   226  114  235 1    
   227  115  116 1    
   228  115  117 1    
   229  115  236 1    
   230  116  237 1    
   231  116  238 1    
   232  116  239 1    
   233  117  118 2    
   234  117  119 am   BACKBONE|DICT|INTERRES
   235  119  120 1    
   236  119  240 1    
   237  120  121 1    
   238  120  124 1    
   239  120  241 1    
   240  121  122 am   BACKBONE|DICT|INTERRES
   241  121  123 2    
   242  122  242 1    
   243  122  243 1    
   244  124  125 1    
   245  124  244 1    
   246  124  245 1    
   247  125  126 1    
   248  126  246 1    
   249  126  247 1    
@<TRIPOS>SUBSTRUCTURE
     1 UNK         1 GROUP             0       ****    0 ROOT    
