@<TRIPOS>MOLECULE
3R540
247   249    1
SMALL
USER_CHARGES


@<TRIPOS>ATOM
      1 CA          0.0920  -12.8982  -47.9054 C.3       0 UNK        -0.1800 
      2 C           1.3463  -12.0384  -47.9467 C.2       0 UNK         0.5000 
      3 O           1.2540  -10.8245  -48.1281 O.2       0 UNK        -0.5000 
      4 N           2.5167  -12.6615  -47.7492 N.am      1 UNK        -0.5000 
      5 CA          3.8519  -12.0386  -47.8134 C.3       1 UNK         0.1400 
      6 C6          4.9889  -13.0891  -47.7264 C.3       23 UNK        -0.0398 
      7 S7          4.8685  -14.3563  -49.0368 S.3       23 UNK        -0.2404 
      8 C8          4.2778  -15.7963  -48.0920 C.3       23 UNK        -0.0205 
      9 C9          3.4944  -16.7626  -48.9684 C.ar      23 UNK        -0.0193 
     10 C10         2.2637  -16.3789  -49.5116 C.ar      23 UNK        -0.1150 
     11 C11         1.5064  -17.2639  -50.2858 C.ar      23 UNK        -0.0193 
     12 C12         2.0092  -18.5496  -50.5215 C.ar      23 UNK        -0.1150 
     13 C13         3.2337  -18.9510  -49.9775 C.ar      23 UNK        -0.0193 
     14 C14         3.9743  -18.0524  -49.2057 C.ar      23 UNK        -0.1150 
     15 C15         3.7440  -20.3666  -50.2052 C.3       23 UNK        -0.0205 
     16 S16         3.3145  -21.4708  -48.8208 S.3       23 UNK        -0.2404 
     17 C17         1.4953  -21.3774  -48.8738 C.3       23 UNK        -0.0398 
     18 CA          0.8021  -22.4848  -48.0540 C.3       11 UNK         0.1400 
     19 N           0.9683  -22.3022  -46.6102 N.am      11 UNK        -0.5000 
     20 C           0.5791  -23.1862  -45.6811 C.2       10 UNK         0.5000 
     21 O           0.0806  -24.2819  -45.9436 O.2       10 UNK        -0.5000 
     22 CA          0.7275  -22.7546  -44.2112 C.3       10 UNK         0.1400 
     23 CB          2.1863  -22.8782  -43.7465 C.3       10 UNK        -0.1800 
     24 N           0.2445  -21.3933  -43.9714 N.am      10 UNK        -0.5000 
     25 C          -1.0293  -21.0024  -44.1235 C.2       9 UNK         0.5000 
     26 O          -1.9414  -21.7599  -44.4536 O.2       9 UNK        -0.5000 
     27 CA         -1.3320  -19.5066  -43.9152 C.3       9 UNK         0.1400 
     28 CB         -1.4114  -19.1610  -42.4209 C.3       9 UNK        -0.1800 
     29 N          -0.3566  -18.6353  -44.5687 N.am      9 UNK        -0.5000 
     30 C          -0.1355  -18.5969  -45.8903 C.2       8 UNK         0.5000 
     31 O          -0.7568  -19.2638  -46.7148 O.2       8 UNK        -0.5000 
     32 CA          1.0140  -17.6997  -46.3684 C.3       8 UNK         0.1400 
     33 CB          0.5626  -16.2321  -46.4404 C.3       8 UNK        -0.1800 
     34 N           2.2017  -17.8282  -45.5228 N.am      8 UNK        -0.5000 
     35 C           2.9083  -18.9612  -45.3882 C.2       7 UNK         0.5000 
     36 O           2.6346  -20.0129  -45.9620 O.2       7 UNK        -0.5000 
     37 CA          4.0821  -18.9278  -44.3956 C.3       7 UNK         0.1400 
     38 CB          5.2913  -18.2076  -45.0121 C.3       7 UNK        -0.1800 
     39 N           3.7185  -18.2820  -43.1348 N.am      7 UNK        -0.5000 
     40 C           2.7864  -18.7363  -42.2833 C.2       6 UNK         0.5000 
     41 O           2.1808  -19.7973  -42.4300 O.2       6 UNK        -0.5000 
     42 CA          2.4311  -17.8137  -41.1018 C.3       6 UNK         0.1400 
     43 CB          3.3594  -18.0797  -39.9075 C.3       6 UNK        -0.1800 
     44 N           2.4896  -16.3930  -41.4608 N.am      6 UNK        -0.5000 
     45 C           1.6965  -15.8147  -42.3721 C.2       5 UNK         0.5000 
     46 O           0.8085  -16.4134  -42.9841 O.2       5 UNK        -0.5000 
     47 CA          2.0117  -14.3496  -42.7213 C.3       5 UNK         0.1400 
     48 CB          3.0262  -14.2969  -43.8768 C.3       5 UNK        -0.1800 
     49 N           0.8133  -13.6058  -43.1082 N.am      5 UNK        -0.5000 
     50 C          -0.1850  -13.2801  -42.2764 C.2       4 UNK         0.5000 
     51 O          -0.1722  -13.5150  -41.0665 O.2       4 UNK        -0.5000 
     52 CA         -1.3618  -12.5237  -42.9138 C.3       4 UNK         0.1400 
     53 CB         -2.4310  -12.0790  -41.8976 C.3       4 UNK        -0.1800 
     54 N          -0.8419  -11.3604  -43.6256 N.am      4 UNK        -0.5000 
     55 C          -1.3395  -10.8324  -44.7464 C.2       3 UNK         0.5000 
     56 O          -2.3271  -11.2802  -45.3293 O.2       3 UNK        -0.5000 
     57 CA         -0.6011   -9.6140  -45.3375 C.3       3 UNK         0.1400 
     58 CB         -1.0760   -8.3028  -44.6831 C.3       3 UNK        -0.1800 
     59 N           0.8660   -9.7245  -45.3310 N.am      3 UNK        -0.5000 
     60 C           1.7188   -9.7281  -44.2936 C.2       2 UNK         0.5000 
     61 O           1.3643   -9.6369  -43.1175 O.2       2 UNK        -0.5000 
     62 CA          3.2042   -9.9408  -44.6397 C.3       2 UNK         0.1400 
     63 CB          4.0618  -10.3296  -43.4207 C.3       2 UNK        -0.1800 
     64 N           3.3065  -10.9757  -45.6662 N.am      2 UNK        -0.5000 
     65 C           4.0687  -10.9223  -46.7643 C.2       1 UNK         0.5000 
     66 O           4.8928  -10.0337  -46.9835 O.2       1 UNK        -0.5000 
     67 C          -0.6846  -22.5908  -48.4453 C.2       11 UNK         0.5000 
     68 O          -1.0443  -23.5086  -49.1796 O.2       11 UNK        -0.5000 
     69 N          -1.5296  -21.6918  -47.9179 N.am      12 UNK        -0.5000 
     70 CA         -2.9776  -21.7024  -48.1223 C.3       12 UNK         0.1400 
     71 CB         -3.6187  -20.4677  -47.4738 C.3       12 UNK        -0.1800 
     72 C          -3.6414  -22.9905  -47.6121 C.2       12 UNK         0.5000 
     73 O          -4.4653  -23.5560  -48.3281 O.2       12 UNK        -0.5000 
     74 N          -3.2496  -23.4560  -46.4178 N.am      13 UNK        -0.5000 
     75 CA         -3.7093  -24.7157  -45.8302 C.3       13 UNK         0.1400 
     76 CB         -3.1675  -24.8532  -44.3997 C.3       13 UNK        -0.1800 
     77 C          -3.3348  -25.9415  -46.6835 C.2       13 UNK         0.5000 
     78 O          -4.1920  -26.7920  -46.9279 O.2       13 UNK        -0.5000 
     79 N          -2.0846  -25.9823  -47.1680 N.am      14 UNK        -0.5000 
     80 CA         -1.5856  -27.0043  -48.0932 C.3       14 UNK         0.1400 
     81 CB         -0.0680  -26.8410  -48.2656 C.3       14 UNK        -0.1800 
     82 C          -2.3007  -26.9787  -49.4598 C.2       14 UNK         0.5000 
     83 O          -2.5493  -28.0361  -50.0389 O.2       14 UNK        -0.5000 
     84 N          -2.6625  -25.7757  -49.9214 N.am      15 UNK        -0.5000 
     85 CA         -3.4310  -25.5069  -51.1368 C.3       15 UNK         0.1400 
     86 CB         -3.0202  -24.1276  -51.6809 C.3       15 UNK        -0.1800 
     87 C          -4.9605  -25.6120  -50.9388 C.2       15 UNK         0.5000 
     88 O          -5.7046  -25.0722  -51.7574 O.2       15 UNK        -0.5000 
     89 N          -5.4114  -26.2936  -49.8736 N.am      16 UNK        -0.5000 
     90 CA         -6.8077  -26.6018  -49.5416 C.3       16 UNK         0.1400 
     91 CB         -7.4077  -27.5739  -50.5796 C.3       16 UNK        -0.1800 
     92 C          -7.6682  -25.3393  -49.3277 C.2       16 UNK         0.5000 
     93 O          -8.7225  -25.1890  -49.9478 O.2       16 UNK        -0.5000 
     94 N          -7.1748  -24.4524  -48.4531 N.am      17 UNK        -0.5000 
     95 CA         -7.7012  -23.1204  -48.1342 C.3       17 UNK         0.1400 
     96 CB         -9.1277  -23.1915  -47.5490 C.3       17 UNK        -0.1800 
     97 C          -7.5647  -22.1510  -49.3262 C.2       17 UNK         0.5000 
     98 O          -8.4796  -21.3742  -49.6046 O.2       17 UNK        -0.5000 
     99 N          -6.4033  -22.2270  -49.9938 N.am      18 UNK        -0.5000 
    100 CA        -5.9886  -21.4656  -51.1742 C.3       18 UNK         0.1400 
    101 CB        -5.7012  -19.9968  -50.7997 C.3       18 UNK        -0.1800 
    102 C         -6.9754  -21.6109  -52.3492 C.2       18 UNK         0.5000 
    103 O         -7.5127  -20.6139  -52.8371 O.2       18 UNK        -0.5000 
    104 N         -7.2107  -22.8618  -52.7687 N.am      19 UNK        -0.5000 
    105 CA        -8.0399  -23.2196  -53.9177 C.3       19 UNK         0.1400 
    106 CB        -8.2090  -24.7466  -53.9655 C.3       19 UNK        -0.1800 
    107 C         -7.4201  -22.6749  -55.2180 C.2       19 UNK         0.5000 
    108 O         -6.3604  -23.1459  -55.6341 O.2       19 UNK        -0.5000 
    109 N         -8.0618  -21.6461  -55.7869 N.am      20 UNK        -0.5000 
    110 CA        -7.6428  -20.8059  -56.9179 C.3       20 UNK         0.1400 
    111 CB        -7.3636  -21.6335  -58.1877 C.3       20 UNK        -0.1800 
    112 C         -6.4733  -19.8514  -56.5951 C.2       20 UNK         0.5000 
    113 O         -6.5149  -18.6951  -57.0179 O.2       20 UNK        -0.5000 
    114 N         -5.4729  -20.3215  -55.8436 N.am      21 UNK        -0.5000 
    115 CA        -4.3186  -19.5629  -55.3728 C.3       21 UNK         0.1400 
    116 CB        -3.3021  -19.3860  -56.5176 C.3       21 UNK        -0.1800 
    117 C         -3.6814  -20.2956  -54.1827 C.2       21 UNK         0.5000 
    118 O         -3.9747  -21.4704  -53.9540 O.2       21 UNK        -0.5000 
    119 N         -2.7998  -19.5962  -53.4595 N.am      22 UNK        -0.5000 
    120 CA        -1.9744  -20.1496  -52.3704 C.3       22 UNK         0.1400 
    121 C         -0.8059  -21.0714  -52.8361 C.2       22 UNK         0.5000 
    122 N         -0.5074  -21.1813  -54.1250 N.am      22 UNK        -0.7600 
    123 O         -0.1612  -21.7070  -52.0106 O.2       22 UNK        -0.5000 
    124 C124       -1.4849  -19.0376  -51.4024 C.3       23 UNK        -0.0398 
    125 S125       -0.5320  -17.7132  -52.2323 S.3       23 UNK        -0.2404 
    126 C126        0.1468  -16.7909  -50.8080 C.3       23 UNK        -0.0205 
    127 H127       -0.2226  -13.0613  -46.8747 H         1 UNK         0.0600 
    128 H128        0.2613  -13.8660  -48.3760 H         1 UNK         0.0600 
    129 H129       -0.7242  -12.4075  -48.4359 H         1 UNK         0.0600 
    130 H130        2.5202  -13.6614  -47.6262 H         1 UNK         0.3000 
    131 H131        3.9228  -11.5554  -48.7903 H         1 UNK         0.0600 
    132 H132        5.9598  -12.6025  -47.8371 H         1 UNK         0.0800 
    133 H133        5.0041  -13.5672  -46.7453 H         1 UNK         0.0800 
    134 H134        3.6421  -15.4761  -47.2678 H         1 UNK         0.0800 
    135 H135        5.1368  -16.2922  -47.6377 H         1 UNK         0.0800 
    136 H136        1.8895  -15.3836  -49.3222 H         1 UNK         0.1150 
    137 H137        1.4461  -19.2574  -51.1111 H         1 UNK         0.1150 
    138 H138        4.9153  -18.3668  -48.7766 H         1 UNK         0.1150 
    139 H139        3.3401  -20.7737  -51.1336 H         1 UNK         0.0800 
    140 H140        4.8282  -20.3527  -50.3247 H         1 UNK         0.0800 
    141 H141        1.2056  -21.4438  -49.9214 H         1 UNK         0.0800 
    142 H142        1.1788  -20.3933  -48.5244 H         1 UNK         0.0800 
    143 H143        1.2654  -23.4386  -48.3159 H         1 UNK         0.0600 
    144 H144        1.4193  -21.4391  -46.3155 H         1 UNK         0.3000 
    145 H145        0.1222  -23.4324  -43.6058 H         1 UNK         0.0600 
    146 H146        2.2798  -22.6595  -42.6827 H         1 UNK         0.0600 
    147 H147        2.5629  -23.8892  -43.9058 H         1 UNK         0.0600 
    148 H148        2.8416  -22.1939  -44.2861 H         1 UNK         0.0600 
    149 H149        0.9332  -20.7155  -43.6590 H         1 UNK         0.3000 
    150 H150       -2.3070  -19.3009  -44.3615 H         1 UNK         0.0600 
    151 H151       -2.1710  -19.7638  -41.9217 H         1 UNK         0.0600 
    152 H152       -1.6753  -18.1137  -42.2718 H         1 UNK         0.0600 
    153 H153       -0.4640  -19.3415  -41.9134 H         1 UNK         0.0600 
    154 H154        0.1798  -18.0150  -43.9697 H         1 UNK         0.3000 
    155 H155        1.2874  -18.0258  -47.3733 H         1 UNK         0.0600 
    156 H156        0.2297  -15.8569  -45.4731 H         1 UNK         0.0600 
    157 H157       -0.2710  -16.1213  -47.1349 H         1 UNK         0.0600 
    158 H158        1.3628  -15.5851  -46.7918 H         1 UNK         0.0600 
    159 H159        2.4446  -17.0347  -44.9520 H         1 UNK         0.3000 
    160 H160        4.3682  -19.9593  -44.1795 H         1 UNK         0.0600 
    161 H161        5.0834  -17.1537  -45.2000 H         1 UNK         0.0600 
    162 H162        5.5723  -18.6619  -45.9634 H         1 UNK         0.0600 
    163 H163        6.1600  -18.2658  -44.3561 H         1 UNK         0.0600 
    164 H164        4.1744  -17.4077  -42.9223 H         1 UNK         0.3000 
    165 H165        1.4077  -18.0429  -40.7977 H         1 UNK         0.0600 
    166 H166        3.0677  -17.4853  -39.0415 H         1 UNK         0.0600 
    167 H167        3.3191  -19.1281  -39.6089 H         1 UNK         0.0600 
    168 H168        4.3982  -17.8449  -40.1426 H         1 UNK         0.0600 
    169 H169        3.1998  -15.8407  -41.0017 H         1 UNK         0.3000 
    170 H170        2.4494  -13.8652  -41.8458 H         1 UNK         0.0600 
    171 H171        3.9294  -14.8589  -43.6355 H         1 UNK         0.0600 
    172 H172        2.6166  -14.7131  -44.7969 H         1 UNK         0.0600 
    173 H173        3.3369  -13.2747  -44.0821 H         1 UNK         0.0600 
    174 H174        0.7002  -13.4024  -44.0885 H         1 UNK         0.3000 
    175 H175       -1.8258  -13.2116  -43.6238 H         1 UNK         0.0600 
    176 H176       -2.0211  -11.3850  -41.1629 H         1 UNK         0.0600 
    177 H177       -3.2659  -11.5850  -42.3948 H         1 UNK         0.0600 
    178 H178       -2.8369  -12.9342  -41.3560 H         1 UNK         0.0600 
    179 H179       -0.0269  -10.9086  -43.2162 H         1 UNK         0.3000 
    180 H180       -0.8800   -9.5680  -46.3916 H         1 UNK         0.0600 
    181 H181       -0.8636   -8.2770  -43.6141 H         1 UNK         0.0600 
    182 H182       -2.1531   -8.1793  -44.8015 H         1 UNK         0.0600 
    183 H183       -0.5975   -7.4376  -45.1419 H         1 UNK         0.0600 
    184 H184        1.2650   -9.8540  -46.2551 H         1 UNK         0.3000 
    185 H185        3.5701   -8.9889  -45.0298 H         1 UNK         0.0600 
    186 H186        4.0645   -9.5323  -42.6766 H         1 UNK         0.0600 
    187 H187        3.6882  -11.2303  -42.9332 H         1 UNK         0.0600 
    188 H188        5.0980  -10.5078  -43.7081 H         1 UNK         0.0600 
    189 H189        2.6452  -11.7340  -45.5923 H         1 UNK         0.3000 
    190 H190       -1.1629  -20.9370  -47.3411 H         1 UNK         0.3000 
    191 H191       -3.1552  -21.6454  -49.1977 H         1 UNK         0.0600 
    192 H192       -3.4174  -20.4246  -46.4034 H         1 UNK         0.0600 
    193 H193       -4.7017  -20.4736  -47.6039 H         1 UNK         0.0600 
    194 H194       -3.2423  -19.5482  -47.9224 H         1 UNK         0.0600 
    195 H195       -2.5981  -22.9064  -45.8638 H         1 UNK         0.3000 
    196 H196       -4.7989  -24.6739  -45.7743 H         1 UNK         0.0600 
    197 H197       -3.5072  -25.7822  -43.9402 H         1 UNK         0.0600 
    198 H198       -3.5119  -24.0336  -43.7689 H         1 UNK         0.0600 
    199 H199       -2.0777  -24.8545  -44.3783 H         1 UNK         0.0600 
    200 H200       -1.4314  -25.2525  -46.8990 H         1 UNK         0.3000 
    201 H201       -1.7722  -27.9808  -47.6417 H         1 UNK         0.0600 
    202 H202        0.4483  -26.9246  -47.3091 H         1 UNK         0.0600 
    203 H203        0.1872  -25.8734  -48.6982 H         1 UNK         0.0600 
    204 H204        0.3358  -27.6118  -48.9231 H         1 UNK         0.0600 
    205 H205       -2.3558  -24.9563  -49.4050 H         1 UNK         0.3000 
    206 H206       -3.1644  -26.2504  -51.8901 H         1 UNK         0.0600 
    207 H207       -1.9491  -24.0865  -51.8794 H         1 UNK         0.0600 
    208 H208       -3.5284  -23.8968  -52.6179 H         1 UNK         0.0600 
    209 H209       -3.2539  -23.3347  -50.9717 H         1 UNK         0.0600 
    210 H210       -4.7240  -26.6480  -49.2216 H         1 UNK         0.3000 
    211 H211       -6.7851  -27.1216  -48.5827 H         1 UNK         0.0600 
    212 H212       -7.4920  -27.1156  -51.5656 H         1 UNK         0.0600 
    213 H213       -8.4070  -27.8937  -50.2822 H         1 UNK         0.0600 
    214 H214       -6.7964  -28.4708  -50.6783 H         1 UNK         0.0600 
    215 H215       -6.2460  -24.6329  -48.0895 H         1 UNK         0.3000 
    216 H216       -7.0532  -22.7233  -47.3514 H         1 UNK         0.0600 
    217 H217       -9.4391  -22.2179  -47.1691 H         1 UNK         0.0600 
    218 H218       -9.1787  -23.8950  -46.7180 H         1 UNK         0.0600 
    219 H219       -9.8620  -23.4971  -48.2944 H         1 UNK         0.0600 
    220 H220       -5.7287  -22.9025  -49.6475 H         1 UNK         0.3000 
    221 H221       -5.0502  -21.9053  -51.5104 H         1 UNK         0.0600 
    222 H222       -6.5912  -19.4927  -50.4221 H         1 UNK         0.0600 
    223 H223       -4.9267  -19.9274  -50.0377 H         1 UNK         0.0600 
    224 H224       -5.3499  -19.4345  -51.6653 H         1 UNK         0.0600 
    225 H225       -6.7037  -23.6300  -52.3325 H         1 UNK         0.3000 
    226 H226       -9.0271  -22.7756  -53.7743 H         1 UNK         0.0600 
    227 H227       -8.6680  -25.1202  -53.0497 H         1 UNK         0.0600 
    228 H228       -8.8484  -25.0426  -54.7978 H         1 UNK         0.0600 
    229 H229       -7.2518  -25.2551  -54.0881 H         1 UNK         0.0600 
    230 H230       -8.8898  -21.3108  -55.3135 H         1 UNK         0.3000 
    231 H231       -8.5041  -20.1719  -57.1343 H         1 UNK         0.0600 
    232 H232       -8.2037  -22.2851  -58.4278 H         1 UNK         0.0600 
    233 H233       -6.4732  -22.2542  -58.0868 H         1 UNK         0.0600 
    234 H234       -7.2034  -20.9796  -59.0457 H         1 UNK         0.0600 
    235 H235       -5.5088  -21.2851  -55.5202 H         1 UNK         0.3000 
    236 H236       -4.6560  -18.5842  -55.0254 H         1 UNK         0.0600 
    237 H237       -2.4279  -18.8232  -56.1885 H         1 UNK         0.0600 
    238 H238       -2.9532  -20.3486  -56.8937 H         1 UNK         0.0600 
    239 H239       -3.7354  -18.8391  -57.3549 H         1 UNK         0.0600 
    240 H240       -2.5954  -18.6398  -53.7128 H         1 UNK         0.3000 
    241 H241       -2.6236  -20.8025  -51.7835 H         1 UNK         0.0600 
    242 H242        0.2479  -21.7866  -54.4046 H         1 UNK         0.3800 
    243 H243       -1.0216  -20.6662  -54.8195 H         1 UNK         0.3800 
    244 H244       -2.3481  -18.5761  -50.9207 H         1 UNK         0.0800 
    245 H245       -0.8927  -19.4641  -50.5905 H         1 UNK         0.0800 
    246 H246       -0.5724  -16.8073  -49.9879 H         1 UNK         0.0800 
    247 H247        0.2347  -15.7474  -51.1142 H         1 UNK         0.0800 
@<TRIPOS>BOND
     1    1    2 1    
     2    1  127 1    
     3    1  128 1    
     4    1  129 1    
     5    2    3 2    
     6    2    4 am   BACKBONE|DICT|INTERRES
     7    4    5 1    
     8    4  130 1    
     9    5    6 1    
    10    5   65 1    
    11    5  131 1    
    12    6    7 1    
    13    6  132 1    
    14    6  133 1    
    15    7    8 1    
    16    8    9 1    
    17    8  134 1    
    18    8  135 1    
    19    9   10 ar   
    20    9   14 ar   
    21   10   11 ar   
    22   10  136 1    
    23   11   12 ar   
    24   11  126 1    
    25   12   13 ar   
    26   12  137 1    
    27   13   14 ar   
    28   13   15 1    
    29   14  138 1    
    30   15   16 1    
    31   15  139 1    
    32   15  140 1    
    33   16   17 1    
    34   17   18 1    
    35   17  141 1    
    36   17  142 1    
    37   18   19 1    
    38   18   67 1    
    39   18  143 1    
    40   19   20 am   BACKBONE|DICT|INTERRES
    41   19  144 1    
    42   20   21 2    
    43   20   22 1    
    44   22   23 1    
    45   22   24 1    
    46   22  145 1    
    47   23  146 1    
    48   23  147 1    
    49   23  148 1    
    50   24   25 am   BACKBONE|DICT|INTERRES
    51   24  149 1    
    52   25   26 2    
    53   25   27 1    
    54   27   28 1    
    55   27   29 1    
    56   27  150 1    
    57   28  151 1    
    58   28  152 1    
    59   28  153 1    
    60   29   30 am   BACKBONE|DICT|INTERRES
    61   29  154 1    
    62   30   31 2    
    63   30   32 1    
    64   32   33 1    
    65   32   34 1    
    66   32  155 1    
    67   33  156 1    
    68   33  157 1    
    69   33  158 1    
    70   34   35 am   BACKBONE|DICT|INTERRES
    71   34  159 1    
    72   35   36 2    
    73   35   37 1    
    74   37   38 1    
    75   37   39 1    
    76   37  160 1    
    77   38  161 1    
    78   38  162 1    
    79   38  163 1    
    80   39   40 am   BACKBONE|DICT|INTERRES
    81   39  164 1    
    82   40   41 2    
    83   40   42 1    
    84   42   43 1    
    85   42   44 1    
    86   42  165 1    
    87   43  166 1    
    88   43  167 1    
    89   43  168 1    
    90   44   45 am   BACKBONE|DICT|INTERRES
    91   44  169 1    
    92   45   46 2    
    93   45   47 1    
    94   47   48 1    
    95   47   49 1    
    96   47  170 1    
    97   48  171 1    
    98   48  172 1    
    99   48  173 1    
   100   49   50 am   BACKBONE|DICT|INTERRES
   101   49  174 1    
   102   50   51 2    
   103   50   52 1    
   104   52   53 1    
   105   52   54 1    
   106   52  175 1    
   107   53  176 1    
   108   53  177 1    
   109   53  178 1    
   110   54   55 am   BACKBONE|DICT|INTERRES
   111   54  179 1    
   112   55   56 2    
   113   55   57 1    
   114   57   58 1    
   115   57   59 1    
   116   57  180 1    
   117   58  181 1    
   118   58  182 1    
   119   58  183 1    
   120   59   60 am   BACKBONE|DICT|INTERRES
   121   59  184 1    
   122   60   61 2    
   123   60   62 1    
   124   62   63 1    
   125   62   64 1    
   126   62  185 1    
   127   63  186 1    
   128   63  187 1    
   129   63  188 1    
   130   64   65 am   BACKBONE|DICT|INTERRES
   131   64  189 1    
   132   65   66 2    
   133   67   68 2    
   134   67   69 am   BACKBONE|DICT|INTERRES
   135   69   70 1    
   136   69  190 1    
   137   70   71 1    
   138   70   72 1    
   139   70  191 1    
   140   71  192 1    
   141   71  193 1    
   142   71  194 1    
   143   72   73 2    
   144   72   74 am   BACKBONE|DICT|INTERRES
   145   74   75 1    
   146   74  195 1    
   147   75   76 1    
   148   75   77 1    
   149   75  196 1    
   150   76  197 1    
   151   76  198 1    
   152   76  199 1    
   153   77   78 2    
   154   77   79 am   BACKBONE|DICT|INTERRES
   155   79   80 1    
   156   79  200 1    
   157   80   81 1    
   158   80   82 1    
   159   80  201 1    
   160   81  202 1    
   161   81  203 1    
   162   81  204 1    
   163   82   83 2    
   164   82   84 am   BACKBONE|DICT|INTERRES
   165   84   85 1    
   166   84  205 1    
   167   85   86 1    
   168   85   87 1    
   169   85  206 1    
   170   86  207 1    
   171   86  208 1    
   172   86  209 1    
   173   87   88 2    
   174   87   89 am   BACKBONE|DICT|INTERRES
   175   89   90 1    
   176   89  210 1    
   177   90   91 1    
   178   90   92 1    
   179   90  211 1    
   180   91  212 1    
   181   91  213 1    
   182   91  214 1    
   183   92   93 2    
   184   92   94 am   BACKBONE|DICT|INTERRES
   185   94   95 1    
   186   94  215 1    
   187   95   96 1    
   188   95   97 1    
   189   95  216 1    
   190   96  217 1    
   191   96  218 1    
   192   96  219 1    
   193   97   98 2    
   194   97   99 am   BACKBONE|DICT|INTERRES
   195   99  100 1    
   196   99  220 1    
   197  100  101 1    
   198  100  102 1    
   199  100  221 1    
   200  101  222 1    
   201  101  223 1    
   202  101  224 1    
   203  102  103 2    
   204  102  104 am   BACKBONE|DICT|INTERRES
   205  104  105 1    
   206  104  225 1    
   207  105  106 1    
   208  105  107 1    
   209  105  226 1    
   210  106  227 1    
   211  106  228 1    
   212  106  229 1    
   213  107  108 2    
   214  107  109 am   BACKBONE|DICT|INTERRES
   215  109  110 1    
   216  109  230 1    
   217  110  111 1    
   218  110  112 1    
   219  110  231 1    
   220  111  232 1    
   221  111  233 1    
   222  111  234 1    
   223  112  113 2    
   224  112  114 am   BACKBONE|DICT|INTERRES
   225  114  115 1    
   226  114  235 1    
   227  115  116 1    
   228  115  117 1    
   229  115  236 1    
   230  116  237 1    
   231  116  238 1    
   232  116  239 1    
   233  117  118 2    
   234  117  119 am   BACKBONE|DICT|INTERRES
   235  119  120 1    
   236  119  240 1    
   237  120  121 1    
   238  120  124 1    
   239  120  241 1    
   240  121  122 am   BACKBONE|DICT|INTERRES
   241  121  123 2    
   242  122  242 1    
   243  122  243 1    
   244  124  125 1    
   245  124  244 1    
   246  124  245 1    
   247  125  126 1    
   248  126  246 1    
   249  126  247 1    
@<TRIPOS>SUBSTRUCTURE
     1 UNK         1 GROUP             0       ****    0 ROOT    
