@<TRIPOS>MOLECULE
3R540
247   249    1
SMALL
USER_CHARGES


@<TRIPOS>ATOM
      1 CA         -2.3730  -17.1489  -42.6899 C.3       0 UNK        -0.1800 
      2 C          -2.5682  -17.4693  -44.1641 C.2       0 UNK         0.5000 
      3 O          -3.4430  -18.2615  -44.5076 O.2       0 UNK        -0.5000 
      4 N          -1.7546  -16.8643  -45.0354 N.am      1 UNK        -0.5000 
      5 CA         -1.7290  -17.1395  -46.4713 C.3       1 UNK         0.1400 
      6 C6         -0.3452  -16.8124  -47.0858 C.3       23 UNK        -0.0398 
      7 S7          0.0699  -17.9758  -48.4144 S.3       23 UNK        -0.2404 
      8 C8          1.7340  -17.4089  -48.8762 C.3       23 UNK        -0.0205 
      9 C9          2.3870  -18.4642  -49.7470 C.ar      23 UNK        -0.0193 
     10 C10         2.2882  -18.3932  -51.1370 C.ar      23 UNK        -0.1150 
     11 C11         2.7690  -19.4351  -51.9358 C.ar      23 UNK        -0.0193 
     12 C12         3.3593  -20.5506  -51.3309 C.ar      23 UNK        -0.1150 
     13 C13         3.4794  -20.6214  -49.9392 C.ar      23 UNK        -0.0193 
     14 C14         3.0172  -19.5606  -49.1562 C.ar      23 UNK        -0.1150 
     15 C15         4.0710  -21.8561  -49.2726 C.3       23 UNK        -0.0205 
     16 S16         2.8028  -23.1243  -48.9332 S.3       23 UNK        -0.2404 
     17 C17         1.7383  -22.2518  -47.7375 C.3       23 UNK        -0.0398 
     18 CA          0.6060  -23.1321  -47.1692 C.3       11 UNK         0.1400 
     19 N           1.1096  -24.2425  -46.3578 N.am      11 UNK        -0.5000 
     20 C           0.3831  -25.3081  -45.9991 C.2       10 UNK         0.5000 
     21 O          -0.7971  -25.4677  -46.3128 O.2       10 UNK        -0.5000 
     22 CA          1.0884  -26.3489  -45.1099 C.3       10 UNK         0.1400 
     23 CB          2.0229  -27.2357  -45.9466 C.3       10 UNK        -0.1800 
     24 N           1.8464  -25.7379  -44.0151 N.am      10 UNK        -0.5000 
     25 C           1.2847  -25.0812  -42.9910 C.2       9 UNK         0.5000 
     26 O           0.0710  -24.9237  -42.8661 O.2       9 UNK        -0.5000 
     27 CA          2.2340  -24.4570  -41.9494 C.3       9 UNK         0.1400 
     28 CB          2.6927  -25.5180  -40.9375 C.3       9 UNK        -0.1800 
     29 N           3.4098  -23.7644  -42.4928 N.am      9 UNK        -0.5000 
     30 C           3.3944  -22.8384  -43.4603 C.2       8 UNK         0.5000 
     31 O           2.4062  -22.5835  -44.1509 O.2       8 UNK        -0.5000 
     32 CA          4.7079  -22.0768  -43.7203 C.3       8 UNK         0.1400 
     33 CB          5.6084  -22.8802  -44.6712 C.3       8 UNK        -0.1800 
     34 N           4.4272  -20.7753  -44.3278 N.am      8 UNK        -0.5000 
     35 C           3.8287  -19.7545  -43.7002 C.2       7 UNK         0.5000 
     36 O           3.6691  -19.6826  -42.4786 O.2       7 UNK        -0.5000 
     37 CA          3.2578  -18.6645  -44.6143 C.3       7 UNK         0.1400 
     38 CB          1.9503  -19.1465  -45.2708 C.3       7 UNK        -0.1800 
     39 N           3.0045  -17.4447  -43.8559 N.am      7 UNK        -0.5000 
     40 C           2.8906  -16.2223  -44.3835 C.2       6 UNK         0.5000 
     41 O           3.0321  -15.9797  -45.5848 O.2       6 UNK        -0.5000 
     42 CA          2.5952  -15.0799  -43.3916 C.3       6 UNK         0.1400 
     43 CB          3.8774  -14.6597  -42.6551 C.3       6 UNK        -0.1800 
     44 N           2.0305  -13.9031  -44.0545 N.am      6 UNK        -0.5000 
     45 C           0.7911  -13.8276  -44.5524 C.2       5 UNK         0.5000 
     46 O          -0.0428  -14.7323  -44.4680 O.2       5 UNK        -0.5000 
     47 CA          0.4381  -12.5355  -45.3099 C.3       5 UNK         0.1400 
     48 CB          0.6591  -12.7212  -46.8187 C.3       5 UNK        -0.1800 
     49 N          -0.9513  -12.1425  -45.0794 N.am      5 UNK        -0.5000 
     50 C          -1.4043  -11.5728  -43.9558 C.2       4 UNK         0.5000 
     51 O          -0.6830  -11.2621  -43.0068 O.2       4 UNK        -0.5000 
     52 CA         -2.9197  -11.2927  -43.8829 C.3       4 UNK         0.1400 
     53 CB         -3.2487   -9.9469  -44.5475 C.3       4 UNK        -0.1800 
     54 N          -3.7676  -12.3363  -44.4721 N.am      4 UNK        -0.5000 
     55 C          -3.8330  -13.6046  -44.0419 C.2       3 UNK         0.5000 
     56 O          -3.1172  -14.0527  -43.1492 O.2       3 UNK        -0.5000 
     57 CA         -4.8910  -14.5295  -44.6796 C.3       3 UNK         0.1400 
     58 CB         -5.9667  -14.8769  -43.6380 C.3       3 UNK        -0.1800 
     59 N          -5.5681  -13.9649  -45.8499 N.am      3 UNK        -0.5000 
     60 C          -5.1912  -13.7747  -47.1272 C.2       2 UNK         0.5000 
     61 O          -5.9848  -13.2462  -47.9028 O.2       2 UNK        -0.5000 
     62 CA         -3.8113  -14.1658  -47.7138 C.3       2 UNK         0.1400 
     63 CB         -2.9858  -12.9040  -48.0148 C.3       2 UNK        -0.1800 
     64 N          -2.9837  -15.0958  -46.9453 N.am      2 UNK        -0.5000 
     65 C          -2.8431  -16.3980  -47.2309 C.2       1 UNK         0.5000 
     66 O          -3.5029  -16.9966  -48.0806 O.2       1 UNK        -0.5000 
     67 C          -0.4023  -22.2657  -46.3895 C.2       11 UNK         0.5000 
     68 O          -1.3536  -21.7697  -46.9907 O.2       11 UNK        -0.5000 
     69 N          -0.1928  -22.1135  -45.0751 N.am      12 UNK        -0.5000 
     70 CA         -1.0927  -21.4167  -44.1582 C.3       12 UNK         0.1400 
     71 CB         -0.3742  -21.1725  -42.8224 C.3       12 UNK        -0.1800 
     72 C          -2.4066  -22.1876  -43.9388 C.2       12 UNK         0.5000 
     73 O          -3.4695  -21.5704  -43.9044 O.2       12 UNK        -0.5000 
     74 N          -2.3215  -23.5220  -43.8269 N.am      13 UNK        -0.5000 
     75 CA         -3.4767  -24.4170  -43.7243 C.3       13 UNK         0.1400 
     76 CB         -3.0090  -25.8325  -43.3538 C.3       13 UNK        -0.1800 
     77 C          -4.3175  -24.4408  -45.0134 C.2       13 UNK         0.5000 
     78 O          -5.5467  -24.4418  -44.9375 O.2       13 UNK        -0.5000 
     79 N          -3.6412  -24.4318  -46.1704 N.am      14 UNK        -0.5000 
     80 CA         -4.2658  -24.3246  -47.4896 C.3       14 UNK         0.1400 
     81 CB         -3.2357  -24.7171  -48.5607 C.3       14 UNK        -0.1800 
     82 C          -4.8211  -22.9172  -47.7864 C.2       14 UNK         0.5000 
     83 O          -5.7518  -22.7982  -48.5833 O.2       14 UNK        -0.5000 
     84 N          -4.2151  -21.8921  -47.1669 N.am      15 UNK        -0.5000 
     85 CA         -4.3568  -20.4591  -47.4421 C.3       15 UNK         0.1400 
     86 CB         -5.7596  -19.9506  -47.0561 C.3       15 UNK        -0.1800 
     87 C          -3.9695  -20.1609  -48.9032 C.2       15 UNK         0.5000 
     88 O          -4.7909  -19.6698  -49.6764 O.2       15 UNK        -0.5000 
     89 N          -2.7394  -20.5558  -49.2647 N.am      16 UNK        -0.5000 
     90 CA         -2.2464  -20.6797  -50.6396 C.3       16 UNK         0.1400 
     91 CB         -0.7799  -21.1392  -50.6211 C.3       16 UNK        -0.1800 
     92 C          -2.4174  -19.4310  -51.5241 C.2       16 UNK         0.5000 
     93 O          -2.8211  -19.5686  -52.6803 O.2       16 UNK        -0.5000 
     94 N          -2.1395  -18.2444  -50.9683 N.am      17 UNK        -0.5000 
     95 CA         -2.2850  -16.9667  -51.6652 C.3       17 UNK         0.1400 
     96 CB         -1.5091  -15.8676  -50.9235 C.3       17 UNK        -0.1800 
     97 C          -3.7583  -16.5684  -51.8642 C.2       17 UNK         0.5000 
     98 O          -4.1105  -16.0961  -52.9451 O.2       17 UNK        -0.5000 
     99 N          -4.5971  -16.7892  -50.8413 N.am      18 UNK        -0.5000 
    100 CA        -6.0413  -16.5424  -50.8852 C.3       18 UNK         0.1400 
    101 CB        -6.6275  -16.6497  -49.4696 C.3       18 UNK        -0.1800 
    102 C         -6.7740  -17.5045  -51.8377 C.2       18 UNK         0.5000 
    103 O         -7.6618  -17.0782  -52.5771 O.2       18 UNK        -0.5000 
    104 N         -6.3712  -18.7811  -51.8120 N.am      19 UNK        -0.5000 
    105 CA        -6.8826  -19.8506  -52.6688 C.3       19 UNK         0.1400 
    106 CB        -6.4526  -21.2011  -52.0729 C.3       19 UNK        -0.1800 
    107 C         -6.4082  -19.7457  -54.1312 C.2       19 UNK         0.5000 
    108 O         -7.0078  -20.3797  -55.0003 O.2       19 UNK        -0.5000 
    109 N         -5.3331  -18.9776  -54.3664 N.am      20 UNK        -0.5000 
    110 CA        -4.5974  -18.8318  -55.6265 C.3       20 UNK         0.1400 
    111 CB        -5.4659  -18.1539  -56.7061 C.3       20 UNK        -0.1800 
    112 C         -3.9725  -20.1655  -56.0894 C.2       20 UNK         0.5000 
    113 O         -3.9427  -20.4656  -57.2844 O.2       20 UNK        -0.5000 
    114 N         -3.4722  -20.9421  -55.1186 N.am      21 UNK        -0.5000 
    115 CA        -2.8413  -22.2492  -55.3161 C.3       21 UNK         0.1400 
    116 CB        -2.7767  -22.9703  -53.9605 C.3       21 UNK        -0.1800 
    117 C         -1.4359  -22.1505  -55.9409 C.2       21 UNK         0.5000 
    118 O         -0.9278  -23.1441  -56.4614 O.2       21 UNK        -0.5000 
    119 N         -0.8384  -20.9563  -55.8692 N.am      22 UNK        -0.5000 
    120 CA         0.4996  -20.6171  -56.3742 C.3       22 UNK         0.1400 
    121 C          0.6262  -20.5807  -57.9264 C.2       22 UNK         0.5000 
    122 N         -0.4619  -20.6086  -58.6874 N.am      22 UNK        -0.7600 
    123 O          1.7357  -20.5281  -58.4499 O.2       22 UNK        -0.5000 
    124 C124        1.0063  -19.2873  -55.7581 C.3       23 UNK        -0.0398 
    125 S125        0.8755  -19.2562  -53.9370 S.3       23 UNK        -0.2404 
    126 C126        2.6242  -19.3598  -53.4478 C.3       23 UNK        -0.0205 
    127 H127       -3.2984  -16.7618  -42.2636 H         1 UNK         0.0600 
    128 H128       -1.5918  -16.4028  -42.5399 H         1 UNK         0.0600 
    129 H129       -2.0941  -18.0502  -42.1442 H         1 UNK         0.0600 
    130 H130       -1.0875  -16.1674  -44.7028 H         1 UNK         0.3000 
    131 H131       -1.9128  -18.2101  -46.5902 H         1 UNK         0.0600 
    132 H132        0.4329  -16.8810  -46.3265 H         1 UNK         0.0800 
    133 H133       -0.2832  -15.7926  -47.4675 H         1 UNK         0.0800 
    134 H134        2.3398  -17.2293  -47.9873 H         1 UNK         0.0800 
    135 H135        1.6650  -16.4569  -49.4043 H         1 UNK         0.0800 
    136 H136        1.7958  -17.5484  -51.5978 H         1 UNK         0.1150 
    137 H137        3.7110  -21.3718  -51.9395 H         1 UNK         0.1150 
    138 H138        3.0891  -19.6168  -48.0799 H         1 UNK         0.1150 
    139 H139        4.5715  -21.5831  -48.3424 H         1 UNK         0.0800 
    140 H140        4.8394  -22.2890  -49.9147 H         1 UNK         0.0800 
    141 H141        1.3058  -21.3885  -48.2449 H         1 UNK         0.0800 
    142 H142        2.3682  -21.8700  -46.9344 H         1 UNK         0.0800 
    143 H143        0.0630  -23.5598  -48.0149 H         1 UNK         0.0600 
    144 H144        2.0504  -24.1513  -46.0033 H         1 UNK         0.3000 
    145 H145        0.3171  -26.9870  -44.6730 H         1 UNK         0.0600 
    146 H146        1.4792  -27.7135  -46.7627 H         1 UNK         0.0600 
    147 H147        2.4600  -28.0293  -45.3404 H         1 UNK         0.0600 
    148 H148        2.8388  -26.6616  -46.3876 H         1 UNK         0.0600 
    149 H149        2.8526  -25.8069  -44.0531 H         1 UNK         0.3000 
    150 H150        1.6556  -23.7075  -41.4056 H         1 UNK         0.0600 
    151 H151        3.3333  -26.2679  -41.4032 H         1 UNK         0.0600 
    152 H152        1.8389  -26.0397  -40.5026 H         1 UNK         0.0600 
    153 H153        3.2472  -25.0662  -40.1149 H         1 UNK         0.0600 
    154 H154        4.2777  -23.9288  -42.0036 H         1 UNK         0.3000 
    155 H155        5.2271  -21.9222  -42.7722 H         1 UNK         0.0600 
    156 H156        5.1206  -23.0648  -45.6296 H         1 UNK         0.0600 
    157 H157        5.8664  -23.8494  -44.2425 H         1 UNK         0.0600 
    158 H158        6.5432  -22.3545  -44.8668 H         1 UNK         0.0600 
    159 H159        4.4956  -20.7439  -45.3334 H         1 UNK         0.3000 
    160 H160        4.0025  -18.4642  -45.3879 H         1 UNK         0.0600 
    161 H161        1.0788  -18.9496  -44.6462 H         1 UNK         0.0600 
    162 H162        1.9609  -20.2144  -45.4765 H         1 UNK         0.0600 
    163 H163        1.8011  -18.6497  -46.2227 H         1 UNK         0.0600 
    164 H164        2.9405  -17.5835  -42.8550 H         1 UNK         0.3000 
    165 H165        1.8713  -15.4409  -42.6576 H         1 UNK         0.0600 
    166 H166        4.3122  -15.4988  -42.1104 H         1 UNK         0.0600 
    167 H167        4.6356  -14.2899  -43.3467 H         1 UNK         0.0600 
    168 H168        3.6747  -13.8738  -41.9271 H         1 UNK         0.0600 
    169 H169        2.6663  -13.1348  -44.2096 H         1 UNK         0.3000 
    170 H170        1.0904  -11.7312  -44.9625 H         1 UNK         0.0600 
    171 H171        0.0105  -13.4937  -47.2295 H         1 UNK         0.0600 
    172 H172        1.6888  -13.0126  -47.0305 H         1 UNK         0.0600 
    173 H173        0.4645  -11.7968  -47.3628 H         1 UNK         0.0600 
    174 H174       -1.6130  -12.3646  -45.8040 H         1 UNK         0.3000 
    175 H175       -3.1826  -11.2188  -42.8255 H         1 UNK         0.0600 
    176 H176       -2.6494   -9.1422  -44.1193 H         1 UNK         0.0600 
    177 H177       -3.0515   -9.9678  -45.6200 H         1 UNK         0.0600 
    178 H178       -4.2960   -9.6808  -44.4034 H         1 UNK         0.0600 
    179 H179       -4.4243  -12.0386  -45.1785 H         1 UNK         0.3000 
    180 H180       -4.4234  -15.4720  -44.9488 H         1 UNK         0.0600 
    181 H181       -6.5020  -13.9894  -43.2977 H         1 UNK         0.0600 
    182 H182       -5.5259  -15.3508  -42.7597 H         1 UNK         0.0600 
    183 H183       -6.6982  -15.5760  -44.0442 H         1 UNK         0.0600 
    184 H184       -6.5043  -13.6528  -45.6390 H         1 UNK         0.3000 
    185 H185       -4.0281  -14.6182  -48.6841 H         1 UNK         0.0600 
    186 H186       -3.5295  -12.2316  -48.6800 H         1 UNK         0.0600 
    187 H187       -2.7522  -12.3418  -47.1138 H         1 UNK         0.0600 
    188 H188       -2.0504  -13.1541  -48.5154 H         1 UNK         0.0600 
    189 H189       -2.4082  -14.7080  -46.2134 H         1 UNK         0.3000 
    190 H190        0.6634  -22.4913  -44.6740 H         1 UNK         0.3000 
    191 H191       -1.3390  -20.4471  -44.5967 H         1 UNK         0.0600 
    192 H192        0.5465  -20.6064  -42.9622 H         1 UNK         0.0600 
    193 H193       -1.0061  -20.6045  -42.1387 H         1 UNK         0.0600 
    194 H194       -0.1140  -22.1095  -42.3294 H         1 UNK         0.0600 
    195 H195       -1.4057  -23.9590  -43.7911 H         1 UNK         0.3000 
    196 H196       -4.1158  -24.0508  -42.9181 H         1 UNK         0.0600 
    197 H197       -3.8543  -26.5179  -43.2810 H         1 UNK         0.0600 
    198 H198       -2.5027  -25.8390  -42.3886 H         1 UNK         0.0600 
    199 H199       -2.3198  -26.2371  -44.0957 H         1 UNK         0.0600 
    200 H200       -2.6300  -24.5118  -46.1473 H         1 UNK         0.3000 
    201 H201       -5.0977  -25.0304  -47.5380 H         1 UNK         0.0600 
    202 H202       -3.6756  -24.6830  -49.5582 H         1 UNK         0.0600 
    203 H203       -2.8667  -25.7305  -48.4015 H         1 UNK         0.0600 
    204 H204       -2.3775  -24.0440  -48.5578 H         1 UNK         0.0600 
    205 H205       -3.4276  -22.1222  -46.5746 H         1 UNK         0.3000 
    206 H206       -3.6327  -19.9465  -46.8076 H         1 UNK         0.0600 
    207 H207       -5.9986  -20.2084  -46.0244 H         1 UNK         0.0600 
    208 H208       -5.8064  -18.8644  -47.1370 H         1 UNK         0.0600 
    209 H209       -6.5381  -20.3644  -47.6976 H         1 UNK         0.0600 
    210 H210       -2.1503  -20.9553  -48.5390 H         1 UNK         0.3000 
    211 H211       -2.8364  -21.4734  -51.1011 H         1 UNK         0.0600 
    212 H212       -0.3957  -21.2675  -51.6341 H         1 UNK         0.0600 
    213 H213       -0.6701  -22.0951  -50.1091 H         1 UNK         0.0600 
    214 H214       -0.1357  -20.4156  -50.1218 H         1 UNK         0.0600 
    215 H215       -1.8294  -18.2164  -50.0066 H         1 UNK         0.3000 
    216 H216       -1.8370  -17.0729  -52.6559 H         1 UNK         0.0600 
    217 H217       -0.4475  -16.1074  -50.8676 H         1 UNK         0.0600 
    218 H218       -1.8757  -15.7241  -49.9084 H         1 UNK         0.0600 
    219 H219       -1.5977  -14.9115  -51.4406 H         1 UNK         0.0600 
    220 H220       -4.2307  -17.1860  -49.9808 H         1 UNK         0.3000 
    221 H221       -6.1994  -15.5233  -51.2441 H         1 UNK         0.0600 
    222 H222       -6.5320  -17.6593  -49.0708 H         1 UNK         0.0600 
    223 H223       -6.1273  -15.9736  -48.7798 H         1 UNK         0.0600 
    224 H224       -7.6877  -16.3943  -49.4659 H         1 UNK         0.0600 
    225 H225       -5.6770  -19.0524  -51.1155 H         1 UNK         0.3000 
    226 H226       -7.9733  -19.8025  -52.6680 H         1 UNK         0.0600 
    227 H227       -6.8206  -21.3189  -51.0532 H         1 UNK         0.0600 
    228 H228       -6.8446  -22.0334  -52.6588 H         1 UNK         0.0600 
    229 H229       -5.3664  -21.2995  -52.0469 H         1 UNK         0.0600 
    230 H230       -4.9100  -18.5258  -53.5667 H         1 UNK         0.3000 
    231 H231       -3.7618  -18.1644  -55.4105 H         1 UNK         0.0600 
    232 H232       -6.2886  -18.7926  -57.0284 H         1 UNK         0.0600 
    233 H233       -4.8729  -17.9165  -57.5900 H         1 UNK         0.0600 
    234 H234       -5.8898  -17.2190  -56.3395 H         1 UNK         0.0600 
    235 H235       -3.4628  -20.5714  -54.1716 H         1 UNK         0.3000 
    236 H236       -3.4668  -22.8359  -55.9919 H         1 UNK         0.0600 
    237 H237       -2.1309  -22.4424  -53.2585 H         1 UNK         0.0600 
    238 H238       -3.7655  -23.0573  -53.5096 H         1 UNK         0.0600 
    239 H239       -2.3804  -23.9801  -54.0740 H         1 UNK         0.0600 
    240 H240       -1.3278  -20.2149  -55.3906 H         1 UNK         0.3000 
    241 H241        1.1723  -21.4090  -56.0394 H         1 UNK         0.0600 
    242 H242       -1.3795  -20.6572  -58.2710 H         1 UNK         0.3800 
    243 H243       -0.3671  -20.5879  -59.6908 H         1 UNK         0.3800 
    244 H244        2.0409  -19.0990  -56.0505 H         1 UNK         0.0800 
    245 H245        0.4266  -18.4475  -56.1451 H         1 UNK         0.0800 
    246 H246        3.0785  -20.2303  -53.9235 H         1 UNK         0.0800 
    247 H247        3.1587  -18.4829  -53.8157 H         1 UNK         0.0800 
@<TRIPOS>BOND
     1    1    2 1    
     2    1  127 1    
     3    1  128 1    
     4    1  129 1    
     5    2    3 2    
     6    2    4 am   BACKBONE|DICT|INTERRES
     7    4    5 1    
     8    4  130 1    
     9    5    6 1    
    10    5   65 1    
    11    5  131 1    
    12    6    7 1    
    13    6  132 1    
    14    6  133 1    
    15    7    8 1    
    16    8    9 1    
    17    8  134 1    
    18    8  135 1    
    19    9   10 ar   
    20    9   14 ar   
    21   10   11 ar   
    22   10  136 1    
    23   11   12 ar   
    24   11  126 1    
    25   12   13 ar   
    26   12  137 1    
    27   13   14 ar   
    28   13   15 1    
    29   14  138 1    
    30   15   16 1    
    31   15  139 1    
    32   15  140 1    
    33   16   17 1    
    34   17   18 1    
    35   17  141 1    
    36   17  142 1    
    37   18   19 1    
    38   18   67 1    
    39   18  143 1    
    40   19   20 am   BACKBONE|DICT|INTERRES
    41   19  144 1    
    42   20   21 2    
    43   20   22 1    
    44   22   23 1    
    45   22   24 1    
    46   22  145 1    
    47   23  146 1    
    48   23  147 1    
    49   23  148 1    
    50   24   25 am   BACKBONE|DICT|INTERRES
    51   24  149 1    
    52   25   26 2    
    53   25   27 1    
    54   27   28 1    
    55   27   29 1    
    56   27  150 1    
    57   28  151 1    
    58   28  152 1    
    59   28  153 1    
    60   29   30 am   BACKBONE|DICT|INTERRES
    61   29  154 1    
    62   30   31 2    
    63   30   32 1    
    64   32   33 1    
    65   32   34 1    
    66   32  155 1    
    67   33  156 1    
    68   33  157 1    
    69   33  158 1    
    70   34   35 am   BACKBONE|DICT|INTERRES
    71   34  159 1    
    72   35   36 2    
    73   35   37 1    
    74   37   38 1    
    75   37   39 1    
    76   37  160 1    
    77   38  161 1    
    78   38  162 1    
    79   38  163 1    
    80   39   40 am   BACKBONE|DICT|INTERRES
    81   39  164 1    
    82   40   41 2    
    83   40   42 1    
    84   42   43 1    
    85   42   44 1    
    86   42  165 1    
    87   43  166 1    
    88   43  167 1    
    89   43  168 1    
    90   44   45 am   BACKBONE|DICT|INTERRES
    91   44  169 1    
    92   45   46 2    
    93   45   47 1    
    94   47   48 1    
    95   47   49 1    
    96   47  170 1    
    97   48  171 1    
    98   48  172 1    
    99   48  173 1    
   100   49   50 am   BACKBONE|DICT|INTERRES
   101   49  174 1    
   102   50   51 2    
   103   50   52 1    
   104   52   53 1    
   105   52   54 1    
   106   52  175 1    
   107   53  176 1    
   108   53  177 1    
   109   53  178 1    
   110   54   55 am   BACKBONE|DICT|INTERRES
   111   54  179 1    
   112   55   56 2    
   113   55   57 1    
   114   57   58 1    
   115   57   59 1    
   116   57  180 1    
   117   58  181 1    
   118   58  182 1    
   119   58  183 1    
   120   59   60 am   BACKBONE|DICT|INTERRES
   121   59  184 1    
   122   60   61 2    
   123   60   62 1    
   124   62   63 1    
   125   62   64 1    
   126   62  185 1    
   127   63  186 1    
   128   63  187 1    
   129   63  188 1    
   130   64   65 am   BACKBONE|DICT|INTERRES
   131   64  189 1    
   132   65   66 2    
   133   67   68 2    
   134   67   69 am   BACKBONE|DICT|INTERRES
   135   69   70 1    
   136   69  190 1    
   137   70   71 1    
   138   70   72 1    
   139   70  191 1    
   140   71  192 1    
   141   71  193 1    
   142   71  194 1    
   143   72   73 2    
   144   72   74 am   BACKBONE|DICT|INTERRES
   145   74   75 1    
   146   74  195 1    
   147   75   76 1    
   148   75   77 1    
   149   75  196 1    
   150   76  197 1    
   151   76  198 1    
   152   76  199 1    
   153   77   78 2    
   154   77   79 am   BACKBONE|DICT|INTERRES
   155   79   80 1    
   156   79  200 1    
   157   80   81 1    
   158   80   82 1    
   159   80  201 1    
   160   81  202 1    
   161   81  203 1    
   162   81  204 1    
   163   82   83 2    
   164   82   84 am   BACKBONE|DICT|INTERRES
   165   84   85 1    
   166   84  205 1    
   167   85   86 1    
   168   85   87 1    
   169   85  206 1    
   170   86  207 1    
   171   86  208 1    
   172   86  209 1    
   173   87   88 2    
   174   87   89 am   BACKBONE|DICT|INTERRES
   175   89   90 1    
   176   89  210 1    
   177   90   91 1    
   178   90   92 1    
   179   90  211 1    
   180   91  212 1    
   181   91  213 1    
   182   91  214 1    
   183   92   93 2    
   184   92   94 am   BACKBONE|DICT|INTERRES
   185   94   95 1    
   186   94  215 1    
   187   95   96 1    
   188   95   97 1    
   189   95  216 1    
   190   96  217 1    
   191   96  218 1    
   192   96  219 1    
   193   97   98 2    
   194   97   99 am   BACKBONE|DICT|INTERRES
   195   99  100 1    
   196   99  220 1    
   197  100  101 1    
   198  100  102 1    
   199  100  221 1    
   200  101  222 1    
   201  101  223 1    
   202  101  224 1    
   203  102  103 2    
   204  102  104 am   BACKBONE|DICT|INTERRES
   205  104  105 1    
   206  104  225 1    
   207  105  106 1    
   208  105  107 1    
   209  105  226 1    
   210  106  227 1    
   211  106  228 1    
   212  106  229 1    
   213  107  108 2    
   214  107  109 am   BACKBONE|DICT|INTERRES
   215  109  110 1    
   216  109  230 1    
   217  110  111 1    
   218  110  112 1    
   219  110  231 1    
   220  111  232 1    
   221  111  233 1    
   222  111  234 1    
   223  112  113 2    
   224  112  114 am   BACKBONE|DICT|INTERRES
   225  114  115 1    
   226  114  235 1    
   227  115  116 1    
   228  115  117 1    
   229  115  236 1    
   230  116  237 1    
   231  116  238 1    
   232  116  239 1    
   233  117  118 2    
   234  117  119 am   BACKBONE|DICT|INTERRES
   235  119  120 1    
   236  119  240 1    
   237  120  121 1    
   238  120  124 1    
   239  120  241 1    
   240  121  122 am   BACKBONE|DICT|INTERRES
   241  121  123 2    
   242  122  242 1    
   243  122  243 1    
   244  124  125 1    
   245  124  244 1    
   246  124  245 1    
   247  125  126 1    
   248  126  246 1    
   249  126  247 1    
@<TRIPOS>SUBSTRUCTURE
     1 UNK         1 GROUP             0       ****    0 ROOT    
