@<TRIPOS>MOLECULE
3R540
247   249    1
SMALL
USER_CHARGES


@<TRIPOS>ATOM
      1 CA          5.0041   -9.8584  -48.8252 C.3       0 UNK        -0.1800 
      2 C           4.1968  -11.1475  -48.8860 C.2       0 UNK         0.5000 
      3 O           4.7432  -12.1979  -49.2227 O.2       0 UNK        -0.5000 
      4 N           2.9019  -11.0724  -48.5625 N.am      1 UNK        -0.5000 
      5 CA          1.9738  -12.2029  -48.5474 C.3       1 UNK         0.1400 
      6 C6          1.4605  -12.5766  -49.9651 C.3       23 UNK        -0.0398 
      7 S7          0.8801  -14.3056  -50.0534 S.3       23 UNK        -0.2404 
      8 C8          2.1706  -15.0574  -51.0909 C.3       23 UNK        -0.0205 
      9 C9          1.9453  -16.5528  -51.2435 C.ar      23 UNK        -0.0193 
     10 C10         1.0096  -17.0326  -52.1661 C.ar      23 UNK        -0.1150 
     11 C11         0.7867  -18.4060  -52.2982 C.ar      23 UNK        -0.0193 
     12 C12         1.5159  -19.3001  -51.5110 C.ar      23 UNK        -0.1150 
     13 C13         2.4527  -18.8334  -50.5857 C.ar      23 UNK        -0.0193 
     14 C14         2.6655  -17.4579  -50.4575 C.ar      23 UNK        -0.1150 
     15 C15         3.2258  -19.8188  -49.7214 C.3       23 UNK        -0.0205 
     16 S16         2.6659  -19.8060  -47.9888 S.3       23 UNK        -0.2404 
     17 C17         0.9288  -20.3485  -48.1278 C.3       23 UNK        -0.0398 
     18 CA          0.7213  -21.8351  -47.7619 C.3       11 UNK         0.1400 
     19 N           1.1022  -22.1085  -46.3768 N.am      11 UNK        -0.5000 
     20 C           1.2258  -23.3237  -45.8305 C.2       10 UNK         0.5000 
     21 O           1.1090  -24.3721  -46.4683 O.2       10 UNK        -0.5000 
     22 CA          1.5263  -23.3575  -44.3174 C.3       10 UNK         0.1400 
     23 CB          1.9608  -24.7475  -43.8087 C.3       10 UNK        -0.1800 
     24 N           2.4793  -22.3231  -43.9063 N.am      10 UNK        -0.5000 
     25 C           3.7565  -22.1785  -44.2907 C.2       9 UNK         0.5000 
     26 O           4.3430  -22.9657  -45.0347 O.2       9 UNK        -0.5000 
     27 CA          4.5164  -20.9429  -43.7619 C.3       9 UNK         0.1400 
     28 CB          4.7882  -19.9481  -44.9001 C.3       9 UNK        -0.1800 
     29 N           3.8158  -20.2379  -42.6867 N.am      9 UNK        -0.5000 
     30 C           3.7279  -20.6580  -41.4181 C.2       8 UNK         0.5000 
     31 O           4.2913  -21.6658  -40.9902 O.2       8 UNK        -0.5000 
     32 CA          2.8264  -19.8321  -40.4804 C.3       8 UNK         0.1400 
     33 CB          3.5992  -18.6421  -39.8921 C.3       8 UNK        -0.1800 
     34 N           1.6054  -19.3511  -41.1342 N.am      8 UNK        -0.5000 
     35 C           0.6292  -20.1440  -41.6013 C.2       7 UNK         0.5000 
     36 O           0.6461  -21.3715  -41.5144 O.2       7 UNK        -0.5000 
     37 CA         -0.5437  -19.4601  -42.3257 C.3       7 UNK         0.1400 
     38 CB         -1.5358  -18.8642  -41.3160 C.3       7 UNK        -0.1800 
     39 N          -0.1001  -18.4258  -43.2604 N.am      7 UNK        -0.5000 
     40 C           0.6227  -18.6647  -44.3643 C.2       6 UNK         0.5000 
     41 O           0.9433  -19.7932  -44.7352 O.2       6 UNK        -0.5000 
     42 CA          1.1052  -17.4414  -45.1650 C.3       6 UNK         0.1400 
     43 CB         -0.0025  -16.8998  -46.0816 C.3       6 UNK        -0.1800 
     44 N           1.5874  -16.3631  -44.3049 N.am      6 UNK        -0.5000 
     45 C           2.6275  -16.4554  -43.4656 C.2       5 UNK         0.5000 
     46 O           3.3324  -17.4569  -43.3511 O.2       5 UNK        -0.5000 
     47 CA          2.8854  -15.2403  -42.5607 C.3       5 UNK         0.1400 
     48 CB          3.6185  -14.1270  -43.3251 C.3       5 UNK        -0.1800 
     49 N           1.6434  -14.7178  -41.9907 N.am      5 UNK        -0.5000 
     50 C           0.9008  -15.3629  -41.0797 C.2       4 UNK         0.5000 
     51 O           1.2009  -16.4566  -40.6017 O.2       4 UNK        -0.5000 
     52 CA         -0.4177  -14.6877  -40.6614 C.3       4 UNK         0.1400 
     53 CB         -0.1643  -13.6222  -39.5846 C.3       4 UNK        -0.1800 
     54 N          -1.1206  -14.0795  -41.7919 N.am      4 UNK        -0.5000 
     55 C          -1.6708  -14.7726  -42.7985 C.2       3 UNK         0.5000 
     56 O          -1.6618  -16.0005  -42.8699 O.2       3 UNK        -0.5000 
     57 CA         -2.2927  -13.9523  -43.9429 C.3       3 UNK         0.1400 
     58 CB         -3.7319  -13.5436  -43.5957 C.3       3 UNK        -0.1800 
     59 N          -1.5176  -12.7597  -44.3012 N.am      3 UNK        -0.5000 
     60 C          -0.2526  -12.7831  -44.7402 C.2       2 UNK         0.5000 
     61 O           0.4295  -13.8078  -44.8078 O.2       2 UNK        -0.5000 
     62 CA          0.3722  -11.4355  -45.1410 C.3       2 UNK         0.1400 
     63 CB          1.1606  -10.8404  -43.9642 C.3       2 UNK        -0.1800 
     64 N           1.2700  -11.6022  -46.2846 N.am      2 UNK        -0.5000 
     65 C           0.8608  -11.9041  -47.5249 C.2       1 UNK         0.5000 
     66 O          -0.3244  -11.9087  -47.8632 O.2       1 UNK        -0.5000 
     67 C          -0.7564  -22.2086  -47.9771 C.2       11 UNK         0.5000 
     68 O          -1.5876  -21.8640  -47.1337 O.2       11 UNK        -0.5000 
     69 N          -1.0714  -22.8508  -49.1122 N.am      12 UNK        -0.5000 
     70 CA         -2.4134  -23.3312  -49.4733 C.3       12 UNK         0.1400 
     71 CB         -2.3684  -23.9744  -50.8673 C.3       12 UNK        -0.1800 
     72 C          -3.5072  -22.2487  -49.4251 C.2       12 UNK         0.5000 
     73 O          -4.6150  -22.5265  -48.9706 O.2       12 UNK        -0.5000 
     74 N          -3.1437  -21.0200  -49.8163 N.am      13 UNK        -0.5000 
     75 CA         -3.9880  -19.8244  -49.7785 C.3       13 UNK         0.1400 
     76 CB         -3.2055  -18.6615  -50.4099 C.3       13 UNK        -0.1800 
     77 C          -4.4861  -19.4277  -48.3712 C.2       13 UNK         0.5000 
     78 O          -5.4830  -18.7125  -48.2741 O.2       13 UNK        -0.5000 
     79 N          -3.7982  -19.8861  -47.3170 N.am      14 UNK        -0.5000 
     80 CA         -4.1646  -19.6581  -45.9207 C.3       14 UNK         0.1400 
     81 CB         -2.9829  -19.0006  -45.1936 C.3       14 UNK        -0.1800 
     82 C          -4.5607  -20.9718  -45.2293 C.2       14 UNK         0.5000 
     83 O          -5.5631  -21.0002  -44.5159 O.2       14 UNK        -0.5000 
     84 N          -3.7731  -22.0341  -45.4466 N.am      15 UNK        -0.5000 
     85 CA         -3.9182  -23.3302  -44.7843 C.3       15 UNK         0.1400 
     86 CB         -2.6274  -24.1411  -44.9796 C.3       15 UNK        -0.1800 
     87 C          -5.1395  -24.1344  -45.2623 C.2       15 UNK         0.5000 
     88 O          -5.7735  -24.8036  -44.4454 O.2       15 UNK        -0.5000 
     89 N          -5.4457  -24.0573  -46.5636 N.am      16 UNK        -0.5000 
     90 CA         -6.5707  -24.7499  -47.1980 C.3       16 UNK         0.1400 
     91 CB         -6.0259  -25.6252  -48.3404 C.3       16 UNK        -0.1800 
     92 C          -7.6292  -23.7668  -47.7304 C.2       16 UNK         0.5000 
     93 O          -8.6585  -24.2141  -48.2379 O.2       16 UNK        -0.5000 
     94 N          -7.3486  -22.4572  -47.6478 N.am      17 UNK        -0.5000 
     95 CA         -8.0810  -21.3058  -48.1928 C.3       17 UNK         0.1400 
     96 CB         -9.5107  -21.2167  -47.6269 C.3       17 UNK        -0.1800 
     97 C          -8.0780  -21.2385  -49.7342 C.2       17 UNK         0.5000 
     98 O          -7.8455  -20.1678  -50.2957 O.2       17 UNK        -0.5000 
     99 N          -8.3219  -22.3758  -50.3937 N.am      18 UNK        -0.5000 
    100 CA        -8.2326  -22.5607  -51.8360 C.3       18 UNK         0.1400 
    101 CB        -8.9487  -23.8667  -52.2177 C.3       18 UNK        -0.1800 
    102 C         -6.7606  -22.5720  -52.2841 C.2       18 UNK         0.5000 
    103 O         -6.0637  -23.5674  -52.0794 O.2       18 UNK        -0.5000 
    104 N         -6.3167  -21.4605  -52.8830 N.am      19 UNK        -0.5000 
    105 CA        -4.9680  -21.2939  -53.4291 C.3       19 UNK         0.1400 
    106 CB        -4.7232  -19.7984  -53.6809 C.3       19 UNK        -0.1800 
    107 C         -4.7370  -22.1004  -54.7236 C.2       19 UNK         0.5000 
    108 O         -3.5899  -22.4189  -55.0391 O.2       19 UNK        -0.5000 
    109 N         -5.8246  -22.4066  -55.4499 N.am      20 UNK        -0.5000 
    110 CA        -5.8628  -23.1281  -56.7256 C.3       20 UNK         0.1400 
    111 CB        -5.5078  -24.6172  -56.5114 C.3       20 UNK        -0.1800 
    112 C         -5.0080  -22.4137  -57.7939 C.2       20 UNK         0.5000 
    113 O         -5.2490  -21.2343  -58.0608 O.2       20 UNK        -0.5000 
    114 N         -4.0039  -23.1047  -58.3511 N.am      21 UNK        -0.5000 
    115 CA        -3.0453  -22.5745  -59.3270 C.3       21 UNK         0.1400 
    116 CB        -2.1558  -23.7247  -59.8235 C.3       21 UNK        -0.1800 
    117 C         -2.1788  -21.4120  -58.7957 C.2       21 UNK         0.5000 
    118 O         -1.6663  -20.6282  -59.5956 O.2       21 UNK        -0.5000 
    119 N         -2.0470  -21.3089  -57.4669 N.am      22 UNK        -0.5000 
    120 CA        -1.4176  -20.1820  -56.7648 C.3       22 UNK         0.1400 
    121 C         -2.3319  -18.9208  -56.6559 C.2       22 UNK         0.5000 
    122 N         -3.6093  -18.9780  -57.0192 N.am      22 UNK        -0.7600 
    123 O         -1.8728  -17.8566  -56.2531 O.2       22 UNK        -0.5000 
    124 C124       -0.8838  -20.6507  -55.3863 C.3       23 UNK        -0.0398 
    125 S125        0.5121  -19.6708  -54.7404 S.3       23 UNK        -0.2404 
    126 C126       -0.2581  -18.9373  -53.2641 C.3       23 UNK        -0.0205 
    127 H127        4.3932   -9.0110  -48.5129 H         1 UNK         0.0600 
    128 H128        5.4235   -9.6320  -49.8055 H         1 UNK         0.0600 
    129 H129        5.8264   -9.9637  -48.1174 H         1 UNK         0.0600 
    130 H130        2.5042  -10.1856  -48.2819 H         1 UNK         0.3000 
    131 H131        2.5152  -13.0635  -48.1469 H         1 UNK         0.0600 
    132 H132        0.6609  -11.9090  -50.2900 H         1 UNK         0.0800 
    133 H133        2.2575  -12.4462  -50.6980 H         1 UNK         0.0800 
    134 H134        3.1498  -14.8629  -50.6496 H         1 UNK         0.0800 
    135 H135        2.1719  -14.5831  -52.0735 H         1 UNK         0.0800 
    136 H136        0.4456  -16.3347  -52.7691 H         1 UNK         0.1150 
    137 H137        1.3444  -20.3623  -51.6154 H         1 UNK         0.1150 
    138 H138        3.3839  -17.0940  -49.7362 H         1 UNK         0.1150 
    139 H139        3.1438  -20.8323  -50.1170 H         1 UNK         0.0800 
    140 H140        4.2864  -19.5654  -49.7502 H         1 UNK         0.0800 
    141 H141        0.5583  -20.1456  -49.1315 H         1 UNK         0.0800 
    142 H142        0.3358  -19.7173  -47.4661 H         1 UNK         0.0800 
    143 H143        1.3425  -22.4500  -48.4163 H         1 UNK         0.0600 
    144 H144        1.1717  -21.2938  -45.7700 H         1 UNK         0.3000 
    145 H145        0.5874  -23.1088  -43.8212 H         1 UNK         0.0600 
    146 H146        2.1485  -24.7319  -42.7350 H         1 UNK         0.0600 
    147 H147        1.1825  -25.4894  -43.9907 H         1 UNK         0.0600 
    148 H148        2.8671  -25.0971  -44.3036 H         1 UNK         0.0600 
    149 H149        2.0943  -21.6044  -43.3073 H         1 UNK         0.3000 
    150 H150        5.4774  -21.2929  -43.3797 H         1 UNK         0.0600 
    151 H151        5.2950  -20.4292  -45.7375 H         1 UNK         0.0600 
    152 H152        5.4216  -19.1275  -44.5632 H         1 UNK         0.0600 
    153 H153        3.8608  -19.5179  -45.2786 H         1 UNK         0.0600 
    154 H154        3.3806  -19.3542  -42.9382 H         1 UNK         0.3000 
    155 H155        2.5270  -20.4816  -39.6553 H         1 UNK         0.0600 
    156 H156        4.5066  -18.9757  -39.3871 H         1 UNK         0.0600 
    157 H157        2.9973  -18.1059  -39.1583 H         1 UNK         0.0600 
    158 H158        3.8948  -17.9321  -40.6649 H         1 UNK         0.0600 
    159 H159        1.4987  -18.3440  -41.2086 H         1 UNK         0.3000 
    160 H160       -1.0685  -20.2259  -42.9010 H         1 UNK         0.0600 
    161 H161       -1.0855  -18.0589  -40.7353 H         1 UNK         0.0600 
    162 H162       -1.8820  -19.6232  -40.6135 H         1 UNK         0.0600 
    163 H163       -2.4156  -18.4614  -41.8174 H         1 UNK         0.0600 
    164 H164       -0.3864  -17.4735  -43.0537 H         1 UNK         0.3000 
    165 H165        1.9386  -17.7649  -45.7913 H         1 UNK         0.0600 
    166 H166        0.3776  -16.1114  -46.7319 H         1 UNK         0.0600 
    167 H167       -0.4097  -17.6808  -46.7227 H         1 UNK         0.0600 
    168 H168       -0.8296  -16.4846  -45.5062 H         1 UNK         0.0600 
    169 H169        1.0868  -15.4788  -44.3630 H         1 UNK         0.3000 
    170 H170        3.5264  -15.5648  -41.7382 H         1 UNK         0.0600 
    171 H171        3.8329  -13.2778  -42.6763 H         1 UNK         0.0600 
    172 H172        4.5716  -14.4877  -43.7138 H         1 UNK         0.0600 
    173 H173        3.0378  -13.7643  -44.1734 H         1 UNK         0.0600 
    174 H174        1.2938  -13.8541  -42.3768 H         1 UNK         0.3000 
    175 H175       -1.0639  -15.4574  -40.2339 H         1 UNK         0.0600 
    176 H176        0.3463  -14.0534  -38.7224 H         1 UNK         0.0600 
    177 H177        0.4559  -12.8071  -39.9597 H         1 UNK         0.0600 
    178 H178       -1.1005  -13.1944  -39.2257 H         1 UNK         0.0600 
    179 H179       -1.1697  -13.0718  -41.8156 H         1 UNK         0.3000 
    180 H180       -2.3282  -14.5969  -44.8235 H         1 UNK         0.0600 
    181 H181       -4.3348  -14.4167  -43.3418 H         1 UNK         0.0600 
    182 H182       -3.7644  -12.8631  -42.7441 H         1 UNK         0.0600 
    183 H183       -4.2164  -13.0509  -44.4388 H         1 UNK         0.0600 
    184 H184       -2.0072  -11.8774  -44.2620 H         1 UNK         0.3000 
    185 H185       -0.4230  -10.7406  -45.4193 H         1 UNK         0.0600 
    186 H186        0.5151  -10.6854  -43.0988 H         1 UNK         0.0600 
    187 H187        1.9769  -11.4926  -43.6522 H         1 UNK         0.0600 
    188 H188        1.5877   -9.8722  -44.2263 H         1 UNK         0.0600 
    189 H189        2.2585  -11.6273  -46.0817 H         1 UNK         0.3000 
    190 H190       -0.3305  -23.0938  -49.7539 H         1 UNK         0.3000 
    191 H191       -2.6883  -24.1018  -48.7501 H         1 UNK         0.0600 
    192 H192       -1.6802  -24.8194  -50.8912 H         1 UNK         0.0600 
    193 H193       -2.0545  -23.2621  -51.6316 H         1 UNK         0.0600 
    194 H194       -3.3516  -24.3501  -51.1556 H         1 UNK         0.0600 
    195 H195       -2.1995  -20.8912  -50.1459 H         1 UNK         0.3000 
    196 H196       -4.8708  -20.0250  -50.3892 H         1 UNK         0.0600 
    197 H197       -3.8172  -17.7597  -50.4590 H         1 UNK         0.0600 
    198 H198       -2.8945  -18.8958  -51.4275 H         1 UNK         0.0600 
    199 H199       -2.3104  -18.4199  -49.8348 H         1 UNK         0.0600 
    200 H200       -3.0020  -20.4924  -47.4793 H         1 UNK         0.3000 
    201 H201       -5.0188  -18.9819  -45.8471 H         1 UNK         0.0600 
    202 H202       -3.2049  -18.8495  -44.1369 H         1 UNK         0.0600 
    203 H203       -2.0815  -19.6108  -45.2599 H         1 UNK         0.0600 
    204 H204       -2.7595  -18.0230  -45.6191 H         1 UNK         0.0600 
    205 H205       -2.9557  -21.9320  -46.0460 H         1 UNK         0.3000 
    206 H206       -4.0415  -23.1485  -43.7145 H         1 UNK         0.0600 
    207 H207       -1.7651  -23.6073  -44.5810 H         1 UNK         0.0600 
    208 H208       -2.6844  -25.0997  -44.4626 H         1 UNK         0.0600 
    209 H209       -2.4347  -24.3465  -46.0333 H         1 UNK         0.0600 
    210 H210       -4.8821  -23.4804  -47.1784 H         1 UNK         0.3000 
    211 H211       -7.0777  -25.4027  -46.4849 H         1 UNK         0.0600 
    212 H212       -6.8235  -26.2096  -48.8007 H         1 UNK         0.0600 
    213 H213       -5.2782  -26.3293  -47.9754 H         1 UNK         0.0600 
    214 H214       -5.5666  -25.0259  -49.1274 H         1 UNK         0.0600 
    215 H215       -6.4486  -22.2271  -47.2534 H         1 UNK         0.3000 
    216 H216       -7.5409  -20.4263  -47.8409 H         1 UNK         0.0600 
    217 H217       -9.9950  -20.2931  -47.9460 H         1 UNK         0.0600 
    218 H218       -9.5034  -21.2203  -46.5369 H         1 UNK         0.0600 
    219 H219      -10.1382  -22.0428  -47.9618 H         1 UNK         0.0600 
    220 H220       -8.4929  -23.2064  -49.8346 H         1 UNK         0.3000 
    221 H221       -8.7516  -21.7361  -52.3293 H         1 UNK         0.0600 
    222 H222       -8.5133  -24.7298  -51.7119 H         1 UNK         0.0600 
    223 H223      -10.0062  -23.8260  -51.9561 H         1 UNK         0.0600 
    224 H224       -8.8851  -24.0475  -53.2914 H         1 UNK         0.0600 
    225 H225       -6.9396  -20.6694  -52.9662 H         1 UNK         0.3000 
    226 H226       -4.2489  -21.6410  -52.6838 H         1 UNK         0.0600 
    227 H227       -3.6862  -19.6117  -53.9585 H         1 UNK         0.0600 
    228 H228       -5.3516  -19.4179  -54.4872 H         1 UNK         0.0600 
    229 H229       -4.9315  -19.2048  -52.7913 H         1 UNK         0.0600 
    230 H230       -6.7138  -22.0625  -55.1190 H         1 UNK         0.3000 
    231 H231       -6.8933  -23.0815  -57.0803 H         1 UNK         0.0600 
    232 H232       -6.1736  -25.0705  -55.7767 H         1 UNK         0.0600 
    233 H233       -4.4869  -24.7530  -56.1530 H         1 UNK         0.0600 
    234 H234       -5.6189  -25.1871  -57.4348 H         1 UNK         0.0600 
    235 H235       -3.8604  -24.0595  -58.0556 H         1 UNK         0.3000 
    236 H236       -3.6149  -22.1909  -60.1759 H         1 UNK         0.0600 
    237 H237       -2.7506  -24.5150  -60.2819 H         1 UNK         0.0600 
    238 H238       -1.4479  -23.3752  -60.5763 H         1 UNK         0.0600 
    239 H239       -1.5785  -24.1659  -59.0099 H         1 UNK         0.0600 
    240 H240       -2.5308  -21.9754  -56.8763 H         1 UNK         0.3000 
    241 H241       -0.5565  -19.8757  -57.3618 H         1 UNK         0.0600 
    242 H242       -4.1704  -18.1442  -56.9543 H         1 UNK         0.3800 
    243 H243       -4.0248  -19.8282  -57.3844 H         1 UNK         0.3800 
    244 H244       -1.6891  -20.6947  -54.6541 H         1 UNK         0.0800 
    245 H245       -0.5140  -21.6742  -55.4645 H         1 UNK         0.0800 
    246 H246       -0.8575  -19.6876  -52.7468 H         1 UNK         0.0800 
    247 H247       -0.9457  -18.1467  -53.5691 H         1 UNK         0.0800 
@<TRIPOS>BOND
     1    1    2 1    
     2    1  127 1    
     3    1  128 1    
     4    1  129 1    
     5    2    3 2    
     6    2    4 am   BACKBONE|DICT|INTERRES
     7    4    5 1    
     8    4  130 1    
     9    5    6 1    
    10    5   65 1    
    11    5  131 1    
    12    6    7 1    
    13    6  132 1    
    14    6  133 1    
    15    7    8 1    
    16    8    9 1    
    17    8  134 1    
    18    8  135 1    
    19    9   10 ar   
    20    9   14 ar   
    21   10   11 ar   
    22   10  136 1    
    23   11   12 ar   
    24   11  126 1    
    25   12   13 ar   
    26   12  137 1    
    27   13   14 ar   
    28   13   15 1    
    29   14  138 1    
    30   15   16 1    
    31   15  139 1    
    32   15  140 1    
    33   16   17 1    
    34   17   18 1    
    35   17  141 1    
    36   17  142 1    
    37   18   19 1    
    38   18   67 1    
    39   18  143 1    
    40   19   20 am   BACKBONE|DICT|INTERRES
    41   19  144 1    
    42   20   21 2    
    43   20   22 1    
    44   22   23 1    
    45   22   24 1    
    46   22  145 1    
    47   23  146 1    
    48   23  147 1    
    49   23  148 1    
    50   24   25 am   BACKBONE|DICT|INTERRES
    51   24  149 1    
    52   25   26 2    
    53   25   27 1    
    54   27   28 1    
    55   27   29 1    
    56   27  150 1    
    57   28  151 1    
    58   28  152 1    
    59   28  153 1    
    60   29   30 am   BACKBONE|DICT|INTERRES
    61   29  154 1    
    62   30   31 2    
    63   30   32 1    
    64   32   33 1    
    65   32   34 1    
    66   32  155 1    
    67   33  156 1    
    68   33  157 1    
    69   33  158 1    
    70   34   35 am   BACKBONE|DICT|INTERRES
    71   34  159 1    
    72   35   36 2    
    73   35   37 1    
    74   37   38 1    
    75   37   39 1    
    76   37  160 1    
    77   38  161 1    
    78   38  162 1    
    79   38  163 1    
    80   39   40 am   BACKBONE|DICT|INTERRES
    81   39  164 1    
    82   40   41 2    
    83   40   42 1    
    84   42   43 1    
    85   42   44 1    
    86   42  165 1    
    87   43  166 1    
    88   43  167 1    
    89   43  168 1    
    90   44   45 am   BACKBONE|DICT|INTERRES
    91   44  169 1    
    92   45   46 2    
    93   45   47 1    
    94   47   48 1    
    95   47   49 1    
    96   47  170 1    
    97   48  171 1    
    98   48  172 1    
    99   48  173 1    
   100   49   50 am   BACKBONE|DICT|INTERRES
   101   49  174 1    
   102   50   51 2    
   103   50   52 1    
   104   52   53 1    
   105   52   54 1    
   106   52  175 1    
   107   53  176 1    
   108   53  177 1    
   109   53  178 1    
   110   54   55 am   BACKBONE|DICT|INTERRES
   111   54  179 1    
   112   55   56 2    
   113   55   57 1    
   114   57   58 1    
   115   57   59 1    
   116   57  180 1    
   117   58  181 1    
   118   58  182 1    
   119   58  183 1    
   120   59   60 am   BACKBONE|DICT|INTERRES
   121   59  184 1    
   122   60   61 2    
   123   60   62 1    
   124   62   63 1    
   125   62   64 1    
   126   62  185 1    
   127   63  186 1    
   128   63  187 1    
   129   63  188 1    
   130   64   65 am   BACKBONE|DICT|INTERRES
   131   64  189 1    
   132   65   66 2    
   133   67   68 2    
   134   67   69 am   BACKBONE|DICT|INTERRES
   135   69   70 1    
   136   69  190 1    
   137   70   71 1    
   138   70   72 1    
   139   70  191 1    
   140   71  192 1    
   141   71  193 1    
   142   71  194 1    
   143   72   73 2    
   144   72   74 am   BACKBONE|DICT|INTERRES
   145   74   75 1    
   146   74  195 1    
   147   75   76 1    
   148   75   77 1    
   149   75  196 1    
   150   76  197 1    
   151   76  198 1    
   152   76  199 1    
   153   77   78 2    
   154   77   79 am   BACKBONE|DICT|INTERRES
   155   79   80 1    
   156   79  200 1    
   157   80   81 1    
   158   80   82 1    
   159   80  201 1    
   160   81  202 1    
   161   81  203 1    
   162   81  204 1    
   163   82   83 2    
   164   82   84 am   BACKBONE|DICT|INTERRES
   165   84   85 1    
   166   84  205 1    
   167   85   86 1    
   168   85   87 1    
   169   85  206 1    
   170   86  207 1    
   171   86  208 1    
   172   86  209 1    
   173   87   88 2    
   174   87   89 am   BACKBONE|DICT|INTERRES
   175   89   90 1    
   176   89  210 1    
   177   90   91 1    
   178   90   92 1    
   179   90  211 1    
   180   91  212 1    
   181   91  213 1    
   182   91  214 1    
   183   92   93 2    
   184   92   94 am   BACKBONE|DICT|INTERRES
   185   94   95 1    
   186   94  215 1    
   187   95   96 1    
   188   95   97 1    
   189   95  216 1    
   190   96  217 1    
   191   96  218 1    
   192   96  219 1    
   193   97   98 2    
   194   97   99 am   BACKBONE|DICT|INTERRES
   195   99  100 1    
   196   99  220 1    
   197  100  101 1    
   198  100  102 1    
   199  100  221 1    
   200  101  222 1    
   201  101  223 1    
   202  101  224 1    
   203  102  103 2    
   204  102  104 am   BACKBONE|DICT|INTERRES
   205  104  105 1    
   206  104  225 1    
   207  105  106 1    
   208  105  107 1    
   209  105  226 1    
   210  106  227 1    
   211  106  228 1    
   212  106  229 1    
   213  107  108 2    
   214  107  109 am   BACKBONE|DICT|INTERRES
   215  109  110 1    
   216  109  230 1    
   217  110  111 1    
   218  110  112 1    
   219  110  231 1    
   220  111  232 1    
   221  111  233 1    
   222  111  234 1    
   223  112  113 2    
   224  112  114 am   BACKBONE|DICT|INTERRES
   225  114  115 1    
   226  114  235 1    
   227  115  116 1    
   228  115  117 1    
   229  115  236 1    
   230  116  237 1    
   231  116  238 1    
   232  116  239 1    
   233  117  118 2    
   234  117  119 am   BACKBONE|DICT|INTERRES
   235  119  120 1    
   236  119  240 1    
   237  120  121 1    
   238  120  124 1    
   239  120  241 1    
   240  121  122 am   BACKBONE|DICT|INTERRES
   241  121  123 2    
   242  122  242 1    
   243  122  243 1    
   244  124  125 1    
   245  124  244 1    
   246  124  245 1    
   247  125  126 1    
   248  126  246 1    
   249  126  247 1    
@<TRIPOS>SUBSTRUCTURE
     1 UNK         1 GROUP             0       ****    0 ROOT    
