@<TRIPOS>MOLECULE
3R540
247   249    1
SMALL
USER_CHARGES


@<TRIPOS>ATOM
      1 CA         -0.8201  -14.4703  -53.0260 C.3       0 UNK        -0.1800 
      2 C          -0.2740  -14.3908  -51.6079 C.2       0 UNK         0.5000 
      3 O          -0.8558  -13.7173  -50.7590 O.2       0 UNK        -0.5000 
      4 N           0.8496  -15.0733  -51.3519 N.am      1 UNK        -0.5000 
      5 CA          1.6166  -15.0488  -50.0959 C.3       1 UNK         0.1400 
      6 C6          2.9657  -15.8190  -50.1838 C.3       23 UNK        -0.0398 
      7 S7          3.7645  -15.7257  -51.8319 S.3       23 UNK        -0.2404 
      8 C8          3.8571  -17.4659  -52.3906 C.3       23 UNK        -0.0205 
      9 C9          2.6371  -18.3110  -52.0368 C.ar      23 UNK        -0.0193 
     10 C10         1.3932  -18.0706  -52.6299 C.ar      23 UNK        -0.1150 
     11 C11         0.2787  -18.8447  -52.2831 C.ar      23 UNK        -0.0193 
     12 C12         0.4246  -19.8779  -51.3530 C.ar      23 UNK        -0.1150 
     13 C13         1.6604  -20.1269  -50.7543 C.ar      23 UNK        -0.0193 
     14 C14         2.7617  -19.3424  -51.1016 C.ar      23 UNK        -0.1150 
     15 C15         1.8093  -21.2326  -49.7235 C.3       23 UNK        -0.0205 
     16 S16         1.4009  -20.6261  -48.0584 S.3       23 UNK        -0.2404 
     17 C17        -0.1915  -21.4546  -47.7088 C.3       23 UNK        -0.0398 
     18 CA          0.0150  -22.6877  -46.7982 C.3       11 UNK         0.1400 
     19 N           0.5146  -22.3220  -45.4705 N.am      11 UNK        -0.5000 
     20 C           1.0434  -23.1838  -44.5934 C.2       10 UNK         0.5000 
     21 O           1.1632  -24.3892  -44.8101 O.2       10 UNK        -0.5000 
     22 CA          1.4703  -22.6118  -43.2298 C.3       10 UNK         0.1400 
     23 CB          2.7941  -21.8418  -43.3466 C.3       10 UNK        -0.1800 
     24 N           0.4498  -21.7492  -42.6333 N.am      10 UNK        -0.5000 
     25 C          -0.7747  -22.1595  -42.2745 C.2       9 UNK         0.5000 
     26 O          -1.1746  -23.3161  -42.4011 O.2       9 UNK        -0.5000 
     27 CA         -1.7274  -21.0929  -41.7109 C.3       9 UNK         0.1400 
     28 CB         -1.4288  -20.8144  -40.2300 C.3       9 UNK        -0.1800 
     29 N          -1.6707  -19.8438  -42.4667 N.am      9 UNK        -0.5000 
     30 C          -2.1076  -19.6993  -43.7255 C.2       8 UNK         0.5000 
     31 O          -2.6076  -20.6063  -44.3904 O.2       8 UNK        -0.5000 
     32 CA         -1.9075  -18.3106  -44.3577 C.3       8 UNK         0.1400 
     33 CB         -2.9144  -17.3114  -43.7638 C.3       8 UNK        -0.1800 
     34 N          -0.5505  -17.7876  -44.1846 N.am      8 UNK        -0.5000 
     35 C           0.5758  -18.4300  -44.5292 C.2       7 UNK         0.5000 
     36 O           0.5962  -19.5257  -45.0830 O.2       7 UNK        -0.5000 
     37 CA          1.9048  -17.7778  -44.1151 C.3       7 UNK         0.1400 
     38 CB          2.3145  -16.6955  -45.1222 C.3       7 UNK        -0.1800 
     39 N           1.8480  -17.2073  -42.7691 N.am      7 UNK        -0.5000 
     40 C           1.5860  -17.8866  -41.6442 C.2       6 UNK         0.5000 
     41 O           1.4184  -19.1065  -41.6124 O.2       6 UNK        -0.5000 
     42 CA          1.4209  -17.0713  -40.3451 C.3       6 UNK         0.1400 
     43 CB          2.7801  -16.8057  -39.6707 C.3       6 UNK        -0.1800 
     44 N           0.6343  -15.8380  -40.5113 N.am      6 UNK        -0.5000 
     45 C           0.9531  -14.7281  -41.1911 C.2       5 UNK         0.5000 
     46 O           2.0439  -14.5397  -41.7358 O.2       5 UNK        -0.5000 
     47 CA         -0.1528  -13.6630  -41.3117 C.3       5 UNK         0.1400 
     48 CB         -0.0023  -12.6022  -40.2111 C.3       5 UNK        -0.1800 
     49 N          -0.1354  -13.0031  -42.6189 N.am      5 UNK        -0.5000 
     50 C          -0.3237  -13.6180  -43.7943 C.2       4 UNK         0.5000 
     51 O          -0.5882  -14.8187  -43.9065 O.2       4 UNK        -0.5000 
     52 CA         -0.1449  -12.7393  -45.0455 C.3       4 UNK         0.1400 
     53 CB          1.3380  -12.6470  -45.4376 C.3       4 UNK        -0.1800 
     54 N          -0.9121  -13.2495  -46.1815 N.am      4 UNK        -0.5000 
     55 C          -2.2257  -13.0383  -46.3525 C.2       3 UNK         0.5000 
     56 O          -2.9072  -12.3630  -45.5795 O.2       3 UNK        -0.5000 
     57 CA         -2.9046  -13.6565  -47.5915 C.3       3 UNK         0.1400 
     58 CB         -3.1376  -12.5880  -48.6705 C.3       3 UNK        -0.1800 
     59 N          -2.1392  -14.7619  -48.1668 N.am      3 UNK        -0.5000 
     60 C          -2.1554  -16.0107  -47.6803 C.2       2 UNK         0.5000 
     61 O          -2.9806  -16.3866  -46.8506 O.2       2 UNK        -0.5000 
     62 CA         -1.0951  -17.0158  -48.1840 C.3       2 UNK         0.1400 
     63 CB         -1.7520  -18.2532  -48.8103 C.3       2 UNK        -0.1800 
     64 N          -0.1404  -16.4653  -49.1442 N.am      2 UNK        -0.5000 
     65 C           0.7964  -15.5435  -48.8868 C.2       1 UNK         0.5000 
     66 O           0.9830  -15.0526  -47.7748 O.2       1 UNK        -0.5000 
     67 C          -1.2509  -23.5640  -46.7106 C.2       11 UNK         0.5000 
     68 O          -1.3751  -24.5102  -47.4889 O.2       11 UNK        -0.5000 
     69 N          -2.1341  -23.2899  -45.7376 N.am      12 UNK        -0.5000 
     70 CA         -3.2995  -24.1247  -45.4382 C.3       12 UNK         0.1400 
     71 CB         -4.2179  -23.4128  -44.4344 C.3       12 UNK        -0.1800 
     72 C          -2.9073  -25.5243  -44.9285 C.2       12 UNK         0.5000 
     73 O          -3.4646  -26.5144  -45.4019 O.2       12 UNK        -0.5000 
     74 N          -1.9273  -25.5912  -44.0148 N.am      13 UNK        -0.5000 
     75 CA         -1.3659  -26.8369  -43.4818 C.3       13 UNK         0.1400 
     76 CB         -0.4233  -26.5189  -42.3115 C.3       13 UNK        -0.1800 
     77 C          -0.6433  -27.6806  -44.5500 C.2       13 UNK         0.5000 
     78 O          -0.7271  -28.9086  -44.5146 O.2       13 UNK        -0.5000 
     79 N           0.0151  -27.0073  -45.5028 N.am      14 UNK        -0.5000 
     80 CA          0.6439  -27.6077  -46.6817 C.3       14 UNK         0.1400 
     81 CB          1.6402  -26.5994  -47.2769 C.3       14 UNK        -0.1800 
     82 C          -0.3638  -28.0664  -47.7588 C.2       14 UNK         0.5000 
     83 O           0.0472  -28.7281  -48.7130 O.2       14 UNK        -0.5000 
     84 N          -1.6459  -27.7018  -47.6010 N.am      15 UNK        -0.5000 
     85 CA         -2.7680  -27.9454  -48.5132 C.3       15 UNK         0.1400 
     86 CB         -3.0604  -29.4547  -48.6473 C.3       15 UNK        -0.1800 
     87 C          -2.6084  -27.2300  -49.8717 C.2       15 UNK         0.5000 
     88 O          -3.0648  -27.7379  -50.8984 O.2       15 UNK        -0.5000 
     89 N          -1.9718  -26.0532  -49.8495 N.am      16 UNK        -0.5000 
     90 CA         -1.8427  -25.1470  -50.9859 C.3       16 UNK         0.1400 
     91 CB         -0.5462  -24.3376  -50.8136 C.3       16 UNK        -0.1800 
     92 C          -3.0693  -24.2190  -51.0841 C.2       16 UNK         0.5000 
     93 O          -3.9384  -24.2289  -50.2068 O.2       16 UNK        -0.5000 
     94 N          -3.1132  -23.4215  -52.1578 N.am      17 UNK        -0.5000 
     95 CA         -4.1121  -22.3743  -52.3728 C.3       17 UNK         0.1400 
     96 CB         -3.9687  -21.8431  -53.8076 C.3       17 UNK        -0.1800 
     97 C          -3.9809  -21.2237  -51.3551 C.2       17 UNK         0.5000 
     98 O          -2.9018  -21.0010  -50.8025 O.2       17 UNK        -0.5000 
     99 N          -5.0816  -20.4972  -51.1514 N.am      18 UNK        -0.5000 
    100 CA        -5.1855  -19.3362  -50.2763 C.3       18 UNK         0.1400 
    101 CB        -5.2868  -19.7997  -48.8086 C.3       18 UNK        -0.1800 
    102 C         -6.4292  -18.5325  -50.6990 C.2       18 UNK         0.5000 
    103 O         -7.3232  -19.1099  -51.3209 O.2       18 UNK        -0.5000 
    104 N         -6.5438  -17.2385  -50.3731 N.am      19 UNK        -0.5000 
    105 CA        -5.5532  -16.3712  -49.7354 C.3       19 UNK         0.1400 
    106 CB        -6.2998  -15.3369  -48.8722 C.3       19 UNK        -0.1800 
    107 C         -4.6776  -15.7208  -50.8191 C.2       19 UNK         0.5000 
    108 O         -3.6064  -16.2376  -51.1317 O.2       19 UNK        -0.5000 
    109 N         -5.1816  -14.6344  -51.4179 N.am      20 UNK        -0.5000 
    110 CA        -4.5300  -13.8780  -52.4917 C.3       20 UNK         0.1400 
    111 CB        -5.1373  -12.4663  -52.5285 C.3       20 UNK        -0.1800 
    112 C         -4.6207  -14.5545  -53.8791 C.2       20 UNK         0.5000 
    113 O         -4.1437  -13.9836  -54.8607 O.2       20 UNK        -0.5000 
    114 N         -5.2332  -15.7466  -53.9393 N.am      21 UNK        -0.5000 
    115 CA        -5.5565  -16.5343  -55.1337 C.3       21 UNK         0.1400 
    116 CB        -6.1788  -17.8654  -54.6811 C.3       21 UNK        -0.1800 
    117 C         -4.3849  -16.8012  -56.0996 C.2       21 UNK         0.5000 
    118 O         -4.6184  -16.9391  -57.3013 O.2       21 UNK        -0.5000 
    119 N         -3.1576  -16.8597  -55.5690 N.am      22 UNK        -0.5000 
    120 CA        -1.9209  -17.0112  -56.3548 C.3       22 UNK         0.1400 
    121 C         -1.4701  -15.7164  -57.0962 C.2       22 UNK         0.5000 
    122 N         -2.0520  -14.5513  -56.8337 N.am      22 UNK        -0.7600 
    123 O         -0.5731  -15.7721  -57.9329 O.2       22 UNK        -0.5000 
    124 C124       -0.7528  -17.5896  -55.5156 C.3       23 UNK        -0.0398 
    125 S125       -1.1976  -19.1158  -54.6170 S.3       23 UNK        -0.2404 
    126 C126       -1.0907  -18.5644  -52.8859 C.3       23 UNK        -0.0205 
    127 H127       -0.0491  -14.7750  -53.7333 H         1 UNK         0.0600 
    128 H128       -1.1938  -13.4964  -53.3424 H         1 UNK         0.0600 
    129 H129       -1.6413  -15.1835  -53.0753 H         1 UNK         0.0600 
    130 H130        1.2979  -15.5881  -52.0957 H         1 UNK         0.3000 
    131 H131        1.8514  -13.9989  -49.9086 H         1 UNK         0.0600 
    132 H132        2.8469  -16.8618  -49.8913 H         1 UNK         0.0800 
    133 H133        3.6627  -15.4050  -49.4535 H         1 UNK         0.0800 
    134 H134        3.9965  -17.4792  -53.4723 H         1 UNK         0.0800 
    135 H135        4.7599  -17.9102  -51.9685 H         1 UNK         0.0800 
    136 H136        1.2979  -17.2780  -53.3561 H         1 UNK         0.1150 
    137 H137       -0.4277  -20.4822  -51.0789 H         1 UNK         0.1150 
    138 H138        3.7174  -19.5310  -50.6327 H         1 UNK         0.1150 
    139 H139        1.1905  -22.0879  -49.9929 H         1 UNK         0.0800 
    140 H140        2.8369  -21.5990  -49.7173 H         1 UNK         0.0800 
    141 H141       -0.6784  -21.7216  -48.6479 H         1 UNK         0.0800 
    142 H142       -0.8538  -20.7365  -47.2221 H         1 UNK         0.0800 
    143 H143        0.7806  -23.3092  -47.2675 H         1 UNK         0.0600 
    144 H144        0.4852  -21.3302  -45.2375 H         1 UNK         0.3000 
    145 H145        1.6275  -23.4535  -42.5522 H         1 UNK         0.0600 
    146 H146        3.1238  -21.4734  -42.3750 H         1 UNK         0.0600 
    147 H147        3.5842  -22.4834  -43.7385 H         1 UNK         0.0600 
    148 H148        2.7050  -20.9863  -44.0159 H         1 UNK         0.0600 
    149 H149        0.7066  -20.7803  -42.4726 H         1 UNK         0.3000 
    150 H150       -2.7443  -21.4845  -41.7823 H         1 UNK         0.0600 
    151 H151       -1.4948  -21.7305  -39.6417 H         1 UNK         0.0600 
    152 H152       -2.1438  -20.1069  -39.8099 H         1 UNK         0.0600 
    153 H153       -0.4282  -20.4055  -40.0870 H         1 UNK         0.0600 
    154 H154       -1.2190  -19.0607  -42.0193 H         1 UNK         0.3000 
    155 H155       -2.0918  -18.4072  -45.4284 H         1 UNK         0.0600 
    156 H156       -2.7678  -17.1753  -42.6918 H         1 UNK         0.0600 
    157 H157       -2.8272  -16.3319  -44.2331 H         1 UNK         0.0600 
    158 H158       -3.9387  -17.6527  -43.9179 H         1 UNK         0.0600 
    159 H159       -0.4750  -16.8489  -43.8055 H         1 UNK         0.3000 
    160 H160        2.6741  -18.5519  -44.1140 H         1 UNK         0.0600 
    161 H161        3.2747  -16.2507  -44.8612 H         1 UNK         0.0600 
    162 H162        1.5748  -15.8972  -45.1695 H         1 UNK         0.0600 
    163 H163        2.4077  -17.1120  -46.1262 H         1 UNK         0.0600 
    164 H164        1.9727  -16.2026  -42.6864 H         1 UNK         0.3000 
    165 H165        0.8410  -17.6952  -39.6629 H         1 UNK         0.0600 
    166 H166        2.6562  -16.2612  -38.7347 H         1 UNK         0.0600 
    167 H167        3.2842  -17.7442  -39.4369 H         1 UNK         0.0600 
    168 H168        3.4513  -16.2301  -40.3083 H         1 UNK         0.0600 
    169 H169       -0.2935  -15.8835  -40.1128 H         1 UNK         0.3000 
    170 H170       -1.1242  -14.1490  -41.1990 H         1 UNK         0.0600 
    171 H171       -0.0378  -13.0582  -39.2208 H         1 UNK         0.0600 
    172 H172        0.9462  -12.0697  -40.2930 H         1 UNK         0.0600 
    173 H173       -0.8060  -11.8670  -40.2577 H         1 UNK         0.0600 
    174 H174        0.1158  -12.0255  -42.6173 H         1 UNK         0.3000 
    175 H175       -0.4940  -11.7310  -44.8123 H         1 UNK         0.0600 
    176 H176        1.4751  -12.0188  -46.3178 H         1 UNK         0.0600 
    177 H177        1.7620  -13.6259  -45.6577 H         1 UNK         0.0600 
    178 H178        1.9298  -12.2113  -44.6317 H         1 UNK         0.0600 
    179 H179       -0.4167  -13.8663  -46.8159 H         1 UNK         0.3000 
    180 H180       -3.8763  -14.0259  -47.2631 H         1 UNK         0.0600 
    181 H181       -2.2006  -12.1324  -48.9926 H         1 UNK         0.0600 
    182 H182       -3.7793  -11.7891  -48.2973 H         1 UNK         0.0600 
    183 H183       -3.6222  -13.0109  -49.5498 H         1 UNK         0.0600 
    184 H184       -1.4901  -14.5248  -48.9092 H         1 UNK         0.3000 
    185 H185       -0.5331  -17.3416  -47.3064 H         1 UNK         0.0600 
    186 H186       -1.0104  -19.0176  -49.0335 H         1 UNK         0.0600 
    187 H187       -2.4857  -18.7019  -48.1402 H         1 UNK         0.0600 
    188 H188       -2.2546  -18.0069  -49.7434 H         1 UNK         0.0600 
    189 H189       -0.2358  -16.7829  -50.0975 H         1 UNK         0.3000 
    190 H190       -1.9937  -22.4769  -45.1479 H         1 UNK         0.3000 
    191 H191       -3.8593  -24.2577  -46.3667 H         1 UNK         0.0600 
    192 H192       -4.5857  -22.4699  -44.8393 H         1 UNK         0.0600 
    193 H193       -5.0888  -24.0255  -44.1984 H         1 UNK         0.0600 
    194 H194       -3.7038  -23.1974  -43.4977 H         1 UNK         0.0600 
    195 H195       -1.5482  -24.7274  -43.6349 H         1 UNK         0.3000 
    196 H196       -2.1940  -27.4351  -43.0960 H         1 UNK         0.0600 
    197 H197       -0.0031  -27.4318  -41.8877 H         1 UNK         0.0600 
    198 H198       -0.9514  -26.0017  -41.5103 H         1 UNK         0.0600 
    199 H199        0.4089  -25.8879  -42.6247 H         1 UNK         0.0600 
    200 H200        0.1042  -26.0005  -45.4074 H         1 UNK         0.3000 
    201 H201        1.2023  -28.4896  -46.3615 H         1 UNK         0.0600 
    202 H202        2.3821  -26.2934  -46.5391 H         1 UNK         0.0600 
    203 H203        1.1355  -25.7032  -47.6375 H         1 UNK         0.0600 
    204 H204        2.1806  -27.0318  -48.1198 H         1 UNK         0.0600 
    205 H205       -1.8776  -27.1502  -46.7843 H         1 UNK         0.3000 
    206 H206       -3.6382  -27.4881  -48.0408 H         1 UNK         0.0600 
    207 H207       -3.1694  -29.9228  -47.6690 H         1 UNK         0.0600 
    208 H208       -3.9894  -29.6250  -49.1924 H         1 UNK         0.0600 
    209 H209       -2.2681  -29.9771  -49.1840 H         1 UNK         0.0600 
    210 H210       -1.7016  -25.6657  -48.9485 H         1 UNK         0.3000 
    211 H211       -1.7726  -25.7248  -51.9097 H         1 UNK         0.0600 
    212 H212       -0.5933  -23.6988  -49.9332 H         1 UNK         0.0600 
    213 H213       -0.3575  -23.6954  -51.6744 H         1 UNK         0.0600 
    214 H214        0.3175  -24.9938  -50.7037 H         1 UNK         0.0600 
    215 H215       -2.3508  -23.4500  -52.8182 H         1 UNK         0.3000 
    216 H216       -5.1028  -22.8205  -52.2622 H         1 UNK         0.0600 
    217 H217       -4.6967  -21.0575  -54.0144 H         1 UNK         0.0600 
    218 H218       -4.1303  -22.6344  -54.5397 H         1 UNK         0.0600 
    219 H219       -2.9772  -21.4245  -53.9804 H         1 UNK         0.0600 
    220 H220       -5.9344  -20.6989  -51.6598 H         1 UNK         0.3000 
    221 H221       -4.2971  -18.7241  -50.4214 H         1 UNK         0.0600 
    222 H222       -6.1466  -20.4531  -48.6568 H         1 UNK         0.0600 
    223 H223       -4.3959  -20.3486  -48.5028 H         1 UNK         0.0600 
    224 H224       -5.3942  -18.9578  -48.1249 H         1 UNK         0.0600 
    225 H225       -7.3943  -16.7736  -50.6539 H         1 UNK         0.3000 
    226 H226       -4.8928  -16.9323  -49.0741 H         1 UNK         0.0600 
    227 H227       -6.7320  -15.8107  -47.9907 H         1 UNK         0.0600 
    228 H228       -5.6316  -14.5529  -48.5214 H         1 UNK         0.0600 
    229 H229       -7.1124  -14.8520  -49.4142 H         1 UNK         0.0600 
    230 H230       -6.0817  -14.2895  -51.1173 H         1 UNK         0.3000 
    231 H231       -3.4721  -13.7781  -52.2454 H         1 UNK         0.0600 
    232 H232       -6.1984  -12.4913  -52.7795 H         1 UNK         0.0600 
    233 H233       -4.6385  -11.8422  -53.2711 H         1 UNK         0.0600 
    234 H234       -5.0305  -11.9657  -51.5659 H         1 UNK         0.0600 
    235 H235       -5.5694  -16.1223  -53.0662 H         1 UNK         0.3000 
    236 H236       -6.3100  -15.9746  -55.6910 H         1 UNK         0.0600 
    237 H237       -7.0811  -17.7019  -54.0913 H         1 UNK         0.0600 
    238 H238       -6.4604  -18.4792  -55.5378 H         1 UNK         0.0600 
    239 H239       -5.4833  -18.4478  -54.0749 H         1 UNK         0.0600 
    240 H240       -3.0546  -16.7427  -54.5732 H         1 UNK         0.3000 
    241 H241       -2.1293  -17.7396  -57.1410 H         1 UNK         0.0600 
    242 H242       -2.8016  -14.4732  -56.1521 H         1 UNK         0.3800 
    243 H243       -1.7483  -13.7281  -57.3285 H         1 UNK         0.3800 
    244 H244       -0.3904  -16.8390  -54.8159 H         1 UNK         0.0800 
    245 H245        0.0939  -17.8269  -56.1622 H         1 UNK         0.0800 
    246 H246       -1.8633  -19.0829  -52.3178 H         1 UNK         0.0800 
    247 H247       -1.3307  -17.5056  -52.7964 H         1 UNK         0.0800 
@<TRIPOS>BOND
     1    1    2 1    
     2    1  127 1    
     3    1  128 1    
     4    1  129 1    
     5    2    3 2    
     6    2    4 am   BACKBONE|DICT|INTERRES
     7    4    5 1    
     8    4  130 1    
     9    5    6 1    
    10    5   65 1    
    11    5  131 1    
    12    6    7 1    
    13    6  132 1    
    14    6  133 1    
    15    7    8 1    
    16    8    9 1    
    17    8  134 1    
    18    8  135 1    
    19    9   10 ar   
    20    9   14 ar   
    21   10   11 ar   
    22   10  136 1    
    23   11   12 ar   
    24   11  126 1    
    25   12   13 ar   
    26   12  137 1    
    27   13   14 ar   
    28   13   15 1    
    29   14  138 1    
    30   15   16 1    
    31   15  139 1    
    32   15  140 1    
    33   16   17 1    
    34   17   18 1    
    35   17  141 1    
    36   17  142 1    
    37   18   19 1    
    38   18   67 1    
    39   18  143 1    
    40   19   20 am   BACKBONE|DICT|INTERRES
    41   19  144 1    
    42   20   21 2    
    43   20   22 1    
    44   22   23 1    
    45   22   24 1    
    46   22  145 1    
    47   23  146 1    
    48   23  147 1    
    49   23  148 1    
    50   24   25 am   BACKBONE|DICT|INTERRES
    51   24  149 1    
    52   25   26 2    
    53   25   27 1    
    54   27   28 1    
    55   27   29 1    
    56   27  150 1    
    57   28  151 1    
    58   28  152 1    
    59   28  153 1    
    60   29   30 am   BACKBONE|DICT|INTERRES
    61   29  154 1    
    62   30   31 2    
    63   30   32 1    
    64   32   33 1    
    65   32   34 1    
    66   32  155 1    
    67   33  156 1    
    68   33  157 1    
    69   33  158 1    
    70   34   35 am   BACKBONE|DICT|INTERRES
    71   34  159 1    
    72   35   36 2    
    73   35   37 1    
    74   37   38 1    
    75   37   39 1    
    76   37  160 1    
    77   38  161 1    
    78   38  162 1    
    79   38  163 1    
    80   39   40 am   BACKBONE|DICT|INTERRES
    81   39  164 1    
    82   40   41 2    
    83   40   42 1    
    84   42   43 1    
    85   42   44 1    
    86   42  165 1    
    87   43  166 1    
    88   43  167 1    
    89   43  168 1    
    90   44   45 am   BACKBONE|DICT|INTERRES
    91   44  169 1    
    92   45   46 2    
    93   45   47 1    
    94   47   48 1    
    95   47   49 1    
    96   47  170 1    
    97   48  171 1    
    98   48  172 1    
    99   48  173 1    
   100   49   50 am   BACKBONE|DICT|INTERRES
   101   49  174 1    
   102   50   51 2    
   103   50   52 1    
   104   52   53 1    
   105   52   54 1    
   106   52  175 1    
   107   53  176 1    
   108   53  177 1    
   109   53  178 1    
   110   54   55 am   BACKBONE|DICT|INTERRES
   111   54  179 1    
   112   55   56 2    
   113   55   57 1    
   114   57   58 1    
   115   57   59 1    
   116   57  180 1    
   117   58  181 1    
   118   58  182 1    
   119   58  183 1    
   120   59   60 am   BACKBONE|DICT|INTERRES
   121   59  184 1    
   122   60   61 2    
   123   60   62 1    
   124   62   63 1    
   125   62   64 1    
   126   62  185 1    
   127   63  186 1    
   128   63  187 1    
   129   63  188 1    
   130   64   65 am   BACKBONE|DICT|INTERRES
   131   64  189 1    
   132   65   66 2    
   133   67   68 2    
   134   67   69 am   BACKBONE|DICT|INTERRES
   135   69   70 1    
   136   69  190 1    
   137   70   71 1    
   138   70   72 1    
   139   70  191 1    
   140   71  192 1    
   141   71  193 1    
   142   71  194 1    
   143   72   73 2    
   144   72   74 am   BACKBONE|DICT|INTERRES
   145   74   75 1    
   146   74  195 1    
   147   75   76 1    
   148   75   77 1    
   149   75  196 1    
   150   76  197 1    
   151   76  198 1    
   152   76  199 1    
   153   77   78 2    
   154   77   79 am   BACKBONE|DICT|INTERRES
   155   79   80 1    
   156   79  200 1    
   157   80   81 1    
   158   80   82 1    
   159   80  201 1    
   160   81  202 1    
   161   81  203 1    
   162   81  204 1    
   163   82   83 2    
   164   82   84 am   BACKBONE|DICT|INTERRES
   165   84   85 1    
   166   84  205 1    
   167   85   86 1    
   168   85   87 1    
   169   85  206 1    
   170   86  207 1    
   171   86  208 1    
   172   86  209 1    
   173   87   88 2    
   174   87   89 am   BACKBONE|DICT|INTERRES
   175   89   90 1    
   176   89  210 1    
   177   90   91 1    
   178   90   92 1    
   179   90  211 1    
   180   91  212 1    
   181   91  213 1    
   182   91  214 1    
   183   92   93 2    
   184   92   94 am   BACKBONE|DICT|INTERRES
   185   94   95 1    
   186   94  215 1    
   187   95   96 1    
   188   95   97 1    
   189   95  216 1    
   190   96  217 1    
   191   96  218 1    
   192   96  219 1    
   193   97   98 2    
   194   97   99 am   BACKBONE|DICT|INTERRES
   195   99  100 1    
   196   99  220 1    
   197  100  101 1    
   198  100  102 1    
   199  100  221 1    
   200  101  222 1    
   201  101  223 1    
   202  101  224 1    
   203  102  103 2    
   204  102  104 am   BACKBONE|DICT|INTERRES
   205  104  105 1    
   206  104  225 1    
   207  105  106 1    
   208  105  107 1    
   209  105  226 1    
   210  106  227 1    
   211  106  228 1    
   212  106  229 1    
   213  107  108 2    
   214  107  109 am   BACKBONE|DICT|INTERRES
   215  109  110 1    
   216  109  230 1    
   217  110  111 1    
   218  110  112 1    
   219  110  231 1    
   220  111  232 1    
   221  111  233 1    
   222  111  234 1    
   223  112  113 2    
   224  112  114 am   BACKBONE|DICT|INTERRES
   225  114  115 1    
   226  114  235 1    
   227  115  116 1    
   228  115  117 1    
   229  115  236 1    
   230  116  237 1    
   231  116  238 1    
   232  116  239 1    
   233  117  118 2    
   234  117  119 am   BACKBONE|DICT|INTERRES
   235  119  120 1    
   236  119  240 1    
   237  120  121 1    
   238  120  124 1    
   239  120  241 1    
   240  121  122 am   BACKBONE|DICT|INTERRES
   241  121  123 2    
   242  122  242 1    
   243  122  243 1    
   244  124  125 1    
   245  124  244 1    
   246  124  245 1    
   247  125  126 1    
   248  126  246 1    
   249  126  247 1    
@<TRIPOS>SUBSTRUCTURE
     1 UNK         1 GROUP             0       ****    0 ROOT    
