@<TRIPOS>MOLECULE
3R540
247   249    1
SMALL
USER_CHARGES


@<TRIPOS>ATOM
      1 CA          2.6329  -14.2226  -49.8851 C.3       0 UNK        -0.1800 
      2 C           1.8870  -13.6992  -48.6674 C.2       0 UNK         0.5000 
      3 O           2.5154  -13.2122  -47.7290 O.2       0 UNK        -0.5000 
      4 N           0.5501  -13.7732  -48.6795 N.am      1 UNK        -0.5000 
      5 CA         -0.3436  -13.3412  -47.5933 C.3       1 UNK         0.1400 
      6 C6         -1.6648  -14.1647  -47.5857 C.3       23 UNK        -0.0398 
      7 S7         -2.1057  -14.7652  -45.9159 S.3       23 UNK        -0.2404 
      8 C8         -3.7691  -15.4640  -46.1725 C.3       23 UNK        -0.0205 
      9 C9         -3.7874  -16.4757  -47.3066 C.ar      23 UNK        -0.0193 
     10 C10        -4.2651  -16.0977  -48.5626 C.ar      23 UNK        -0.1150 
     11 C11        -4.2043  -16.9791  -49.6435 C.ar      23 UNK        -0.0193 
     12 C12        -3.6816  -18.2618  -49.4487 C.ar      23 UNK        -0.1150 
     13 C13        -3.2326  -18.6665  -48.1888 C.ar      23 UNK        -0.0193 
     14 C14        -3.2910  -17.7684  -47.1181 C.ar      23 UNK        -0.1150 
     15 C15        -2.6478  -20.0579  -47.9999 C.3       23 UNK        -0.0205 
     16 S16        -3.8970  -21.3611  -48.2246 S.3       23 UNK        -0.2404 
     17 C17        -3.6103  -22.4237  -46.7697 C.3       23 UNK        -0.0398 
     18 CA         -2.5879  -23.5494  -47.0573 C.3       11 UNK         0.1400 
     19 N          -1.1968  -23.0790  -47.0641 N.am      11 UNK        -0.5000 
     20 C          -0.1581  -23.8156  -47.4866 C.2       10 UNK         0.5000 
     21 O          -0.2714  -24.9455  -47.9543 O.2       10 UNK        -0.5000 
     22 CA          1.2450  -23.2203  -47.3075 C.3       10 UNK         0.1400 
     23 CB          1.5733  -22.2390  -48.4431 C.3       10 UNK        -0.1800 
     24 N           1.3795  -22.5636  -46.0088 N.am      10 UNK        -0.5000 
     25 C           1.4498  -23.2242  -44.8431 C.2       9 UNK         0.5000 
     26 O           1.4507  -24.4524  -44.7585 O.2       9 UNK        -0.5000 
     27 CA          1.4833  -22.3812  -43.5530 C.3       9 UNK         0.1400 
     28 CB          2.9316  -22.0468  -43.1673 C.3       9 UNK        -0.1800 
     29 N           0.7124  -21.1406  -43.6471 N.am      9 UNK        -0.5000 
     30 C          -0.6104  -21.0758  -43.8494 C.2       8 UNK         0.5000 
     31 O          -1.3374  -22.0653  -43.9416 O.2       8 UNK        -0.5000 
     32 CA         -1.2164  -19.6726  -44.0427 C.3       8 UNK         0.1400 
     33 CB         -1.6577  -19.0869  -42.6938 C.3       8 UNK        -0.1800 
     34 N          -0.3474  -18.7023  -44.7218 N.am      8 UNK        -0.5000 
     35 C           0.2782  -18.8697  -45.8987 C.2       7 UNK         0.5000 
     36 O           0.2832  -19.9354  -46.5122 O.2       7 UNK        -0.5000 
     37 CA          1.0045  -17.6542  -46.5058 C.3       7 UNK         0.1400 
     38 CB          0.5024  -17.3921  -47.9357 C.3       7 UNK        -0.1800 
     39 N           0.8064  -16.4469  -45.6993 N.am      7 UNK        -0.5000 
     40 C           1.7337  -15.8798  -44.9196 C.2       6 UNK         0.5000 
     41 O           2.9040  -16.2592  -44.8389 O.2       6 UNK        -0.5000 
     42 CA          1.2497  -14.7257  -44.0340 C.3       6 UNK         0.1400 
     43 CB          0.9794  -15.2181  -42.6030 C.3       6 UNK        -0.1800 
     44 N           2.2570  -13.6705  -43.9984 N.am      6 UNK        -0.5000 
     45 C           2.0027  -12.3803  -44.2355 C.2       5 UNK         0.5000 
     46 O           0.8896  -11.9482  -44.5433 O.2       5 UNK        -0.5000 
     47 CA          3.1879  -11.4063  -44.1165 C.3       5 UNK         0.1400 
     48 CB          3.8825  -11.2171  -45.4715 C.3       5 UNK        -0.1800 
     49 N           2.7093  -10.1094  -43.6447 N.am      5 UNK        -0.5000 
     50 C           2.4745   -9.8168  -42.3585 C.2       4 UNK         0.5000 
     51 O           2.8003  -10.5453  -41.4200 O.2       4 UNK        -0.5000 
     52 CA          1.7322   -8.4984  -42.0704 C.3       4 UNK         0.1400 
     53 CB          2.7292   -7.3463  -41.8737 C.3       4 UNK        -0.1800 
     54 N           0.7945   -8.1437  -43.1355 N.am      4 UNK        -0.5000 
     55 C          -0.3621   -8.7731  -43.3828 C.2       3 UNK         0.5000 
     56 O          -0.8205   -9.6677  -42.6712 O.2       3 UNK        -0.5000 
     57 CA         -1.1500   -8.3134  -44.6255 C.3       3 UNK         0.1400 
     58 CB         -1.1625   -6.7782  -44.7881 C.3       3 UNK        -0.1800 
     59 N          -0.7171   -8.9599  -45.8693 N.am      3 UNK        -0.5000 
     60 C           0.4940   -8.9402  -46.4425 C.2       2 UNK         0.5000 
     61 O           1.4961   -8.4332  -45.9328 O.2       2 UNK        -0.5000 
     62 CA          0.5850   -9.5972  -47.8332 C.3       2 UNK         0.1400 
     63 CB          1.8534   -9.1873  -48.6032 C.3       2 UNK        -0.1800 
     64 N           0.5405  -11.0528  -47.7463 N.am      2 UNK        -0.5000 
     65 C          -0.5549  -11.8046  -47.5844 C.2       1 UNK         0.5000 
     66 O          -1.6828  -11.3206  -47.4650 O.2       1 UNK        -0.5000 
     67 C          -2.7825  -24.7339  -46.0922 C.2       11 UNK         0.5000 
     68 O          -3.4912  -25.6759  -46.4451 O.2       11 UNK        -0.5000 
     69 N          -2.1273  -24.6953  -44.9242 N.am      12 UNK        -0.5000 
     70 CA         -2.1144  -25.7927  -43.9568 C.3       12 UNK         0.1400 
     71 CB         -1.4315  -25.3289  -42.6613 C.3       12 UNK        -0.1800 
     72 C          -1.4433  -27.0650  -44.5108 C.2       12 UNK         0.5000 
     73 O          -1.9767  -28.1594  -44.3270 O.2       12 UNK        -0.5000 
     74 N          -0.3038  -26.8970  -45.1960 N.am      13 UNK        -0.5000 
     75 CA          0.4579  -27.9828  -45.8134 C.3       13 UNK         0.1400 
     76 CB          1.8619  -27.4754  -46.1769 C.3       13 UNK        -0.1800 
     77 C          -0.2365  -28.5842  -47.0496 C.2       13 UNK         0.5000 
     78 O          -0.2943  -29.8075  -47.1792 O.2       13 UNK        -0.5000 
     79 N          -0.7400  -27.7184  -47.9385 N.am      14 UNK        -0.5000 
     80 CA         -1.3248  -28.0914  -49.2288 C.3       14 UNK         0.1400 
     81 CB         -1.1191  -26.9288  -50.2140 C.3       14 UNK        -0.1800 
     82 C          -2.8160  -28.4711  -49.1531 C.2       14 UNK         0.5000 
     83 O          -3.3812  -28.8481  -50.1793 O.2       14 UNK        -0.5000 
     84 N          -3.4358  -28.3385  -47.9708 N.am      15 UNK        -0.5000 
     85 CA         -4.8621  -28.5488  -47.6925 C.3       15 UNK         0.1400 
     86 CB         -5.2538  -30.0302  -47.8748 C.3       15 UNK        -0.1800 
     87 C          -5.7460  -27.5752  -48.5002 C.2       15 UNK         0.5000 
     88 O          -6.6397  -27.9938  -49.2372 O.2       15 UNK        -0.5000 
     89 N          -5.4283  -26.2818  -48.3580 N.am      16 UNK        -0.5000 
     90 CA         -6.0491  -25.1008  -48.9697 C.3       16 UNK         0.1400 
     91 CB         -7.5509  -25.0148  -48.6334 C.3       16 UNK        -0.1800 
     92 C          -5.7890  -24.9245  -50.4799 C.2       16 UNK         0.5000 
     93 O          -6.1850  -23.8977  -51.0312 O.2       16 UNK        -0.5000 
     94 N          -5.0892  -25.8671  -51.1300 N.am      17 UNK        -0.5000 
     95 CA         -4.7481  -25.8050  -52.5580 C.3       17 UNK         0.1400 
     96 CB         -4.2021  -27.1644  -53.0157 C.3       17 UNK        -0.1800 
     97 C          -3.7676  -24.6674  -52.9153 C.2       17 UNK         0.5000 
     98 O          -3.7187  -24.2460  -54.0716 O.2       17 UNK        -0.5000 
     99 N          -3.0452  -24.1504  -51.9101 N.am      18 UNK        -0.5000 
    100 CA        -2.1676  -22.9823  -52.0086 C.3       18 UNK         0.1400 
    101 CB        -1.2665  -22.9154  -50.7692 C.3       18 UNK        -0.1800 
    102 C         -2.9143  -21.6473  -52.2135 C.2       18 UNK         0.5000 
    103 O         -2.2569  -20.6372  -52.4636 O.2       18 UNK        -0.5000 
    104 N         -4.2564  -21.6503  -52.1601 N.am      19 UNK        -0.5000 
    105 CA        -5.1222  -20.5151  -52.4989 C.3       19 UNK         0.1400 
    106 CB        -6.5889  -20.9104  -52.2793 C.3       19 UNK        -0.1800 
    107 C         -4.9163  -19.9738  -53.9286 C.2       19 UNK         0.5000 
    108 O         -5.1212  -18.7822  -54.1592 O.2       19 UNK        -0.5000 
    109 N         -4.4854  -20.8475  -54.8498 N.am      20 UNK        -0.5000 
    110 CA        -4.1142  -20.4969  -56.2204 C.3       20 UNK         0.1400 
    111 CB        -4.0407  -21.7842  -57.0556 C.3       20 UNK        -0.1800 
    112 C         -2.7851  -19.7184  -56.3141 C.2       20 UNK         0.5000 
    113 O         -2.6016  -18.9612  -57.2680 O.2       20 UNK        -0.5000 
    114 N         -1.8846  -19.9191  -55.3416 N.am      21 UNK        -0.5000 
    115 CA        -0.5934  -19.2381  -55.2505 C.3       21 UNK         0.1400 
    116 CB         0.4522  -20.1974  -54.6574 C.3       21 UNK        -0.1800 
    117 C         -0.7111  -17.9597  -54.4060 C.2       21 UNK         0.5000 
    118 O         -0.2729  -16.8969  -54.8467 O.2       21 UNK        -0.5000 
    119 N         -1.3237  -18.0878  -53.2211 N.am      22 UNK        -0.5000 
    120 CA        -1.6160  -17.0031  -52.2696 C.3       22 UNK         0.1400 
    121 C         -0.3733  -16.3651  -51.5727 C.2       22 UNK         0.5000 
    122 N          0.7953  -16.9936  -51.6197 N.am      22 UNK        -0.7600 
    123 O         -0.4659  -15.3103  -50.9501 O.2       22 UNK        -0.5000 
    124 C124       -2.6135  -15.9723  -52.8704 C.3       23 UNK        -0.0398 
    125 S125       -3.7014  -15.1447  -51.6614 S.3       23 UNK        -0.2404 
    126 C126       -4.7007  -16.5243  -51.0097 C.3       23 UNK        -0.0205 
    127 H127        3.0002  -15.2308  -49.6949 H         1 UNK         0.0600 
    128 H128        3.4876  -13.5834  -50.1071 H         1 UNK         0.0600 
    129 H129        1.9945  -14.2432  -50.7679 H         1 UNK         0.0600 
    130 H130        0.0940  -14.1836  -49.4924 H         1 UNK         0.3000 
    131 H131        0.1860  -13.5569  -46.6651 H         1 UNK         0.0600 
    132 H132       -2.5055  -13.6188  -48.0164 H         1 UNK         0.0800 
    133 H133       -1.5569  -15.0467  -48.2178 H         1 UNK         0.0800 
    134 H134       -4.4713  -14.6522  -46.3688 H         1 UNK         0.0800 
    135 H135       -4.1023  -15.9411  -45.2498 H         1 UNK         0.0800 
    136 H136       -4.6515  -15.0992  -48.7125 H         1 UNK         0.1150 
    137 H137       -3.6068  -18.9530  -50.2730 H         1 UNK         0.1150 
    138 H138       -2.9229  -18.0588  -46.1451 H         1 UNK         0.1150 
    139 H139       -1.8332  -20.2124  -48.7092 H         1 UNK         0.0800 
    140 H140       -2.2098  -20.1422  -47.0087 H         1 UNK         0.0800 
    141 H141       -4.5844  -22.8450  -46.5133 H         1 UNK         0.0800 
    142 H142       -3.3147  -21.8275  -45.9056 H         1 UNK         0.0800 
    143 H143       -2.7998  -23.9467  -48.0522 H         1 UNK         0.0600 
    144 H144       -1.0116  -22.1681  -46.6693 H         1 UNK         0.3000 
    145 H145        1.9675  -24.0381  -47.3526 H         1 UNK         0.0600 
    146 H146        2.5450  -21.7687  -48.2923 H         1 UNK         0.0600 
    147 H147        1.6085  -22.7585  -49.4013 H         1 UNK         0.0600 
    148 H148        0.8274  -21.4491  -48.5325 H         1 UNK         0.0600 
    149 H149        1.2901  -21.5528  -46.0056 H         1 UNK         0.3000 
    150 H150        1.0475  -22.9842  -42.7539 H         1 UNK         0.0600 
    151 H151        3.5282  -22.9546  -43.0670 H         1 UNK         0.0600 
    152 H152        2.9751  -21.5238  -42.2118 H         1 UNK         0.0600 
    153 H153        3.4132  -21.4183  -43.9176 H         1 UNK         0.0600 
    154 H154        1.2319  -20.2766  -43.6017 H         1 UNK         0.3000 
    155 H155       -2.1077  -19.7959  -44.6590 H         1 UNK         0.0600 
    156 H156       -0.8053  -18.8906  -42.0423 H         1 UNK         0.0600 
    157 H157       -2.3227  -19.7732  -42.1675 H         1 UNK         0.0600 
    158 H158       -2.2009  -18.1512  -42.8283 H         1 UNK         0.0600 
    159 H159       -0.2697  -17.7994  -44.2805 H         1 UNK         0.3000 
    160 H160        2.0641  -17.9110  -46.5609 H         1 UNK         0.0600 
    161 H161        1.0346  -16.5606  -48.3937 H         1 UNK         0.0600 
    162 H162       -0.5624  -17.1625  -47.9558 H         1 UNK         0.0600 
    163 H163        0.6587  -18.2610  -48.5763 H         1 UNK         0.0600 
    164 H164       -0.1272  -16.0553  -45.7164 H         1 UNK         0.3000 
    165 H165        0.3121  -14.3462  -44.4388 H         1 UNK         0.0600 
    166 H166        0.6157  -14.4068  -41.9720 H         1 UNK         0.0600 
    167 H167        0.2201  -16.0010  -42.5935 H         1 UNK         0.0600 
    168 H168        1.8790  -15.6248  -42.1391 H         1 UNK         0.0600 
    169 H169        3.2050  -13.9789  -43.8297 H         1 UNK         0.3000 
    170 H170        3.9144  -11.8077  -43.4067 H         1 UNK         0.0600 
    171 H171        4.2963  -12.1593  -45.8325 H         1 UNK         0.0600 
    172 H172        3.1872  -10.8542  -46.2275 H         1 UNK         0.0600 
    173 H173        4.7045  -10.5047  -45.4005 H         1 UNK         0.0600 
    174 H174        2.3444   -9.4831  -44.3544 H         1 UNK         0.3000 
    175 H175        1.1695   -8.6268  -41.1434 H         1 UNK         0.0600 
    176 H176        3.3120   -7.1597  -42.7767 H         1 UNK         0.0600 
    177 H177        2.2163   -6.4219  -41.6075 H         1 UNK         0.0600 
    178 H178        3.4313   -7.5712  -41.0698 H         1 UNK         0.0600 
    179 H179        1.1138   -7.4658  -43.8139 H         1 UNK         0.3000 
    180 H180       -2.1827   -8.6278  -44.4665 H         1 UNK         0.0600 
    181 H181       -1.8604   -6.4763  -45.5690 H         1 UNK         0.0600 
    182 H182       -0.1829   -6.3785  -45.0513 H         1 UNK         0.0600 
    183 H183       -1.4801   -6.2901  -43.8658 H         1 UNK         0.0600 
    184 H184       -1.4283   -9.5069  -46.3418 H         1 UNK         0.3000 
    185 H185       -0.2727   -9.2534  -48.4153 H         1 UNK         0.0600 
    186 H186        1.9168   -8.1028  -48.6998 H         1 UNK         0.0600 
    187 H187        2.7623   -9.5252  -48.1056 H         1 UNK         0.0600 
    188 H188        1.8521   -9.6025  -49.6112 H         1 UNK         0.0600 
    189 H189        1.4300  -11.5398  -47.7780 H         1 UNK         0.3000 
    190 H190       -1.6183  -23.8532  -44.6722 H         1 UNK         0.3000 
    191 H191       -3.1516  -26.0402  -43.7213 H         1 UNK         0.0600 
    192 H192       -1.4557  -26.1147  -41.9054 H         1 UNK         0.0600 
    193 H193       -1.9330  -24.4567  -42.2415 H         1 UNK         0.0600 
    194 H194       -0.3869  -25.0659  -42.8268 H         1 UNK         0.0600 
    195 H195        0.0940  -25.9668  -45.2661 H         1 UNK         0.3000 
    196 H196        0.5705  -28.7800  -45.0755 H         1 UNK         0.0600 
    197 H197        1.8204  -26.6456  -46.8835 H         1 UNK         0.0600 
    198 H198        2.3973  -27.1320  -45.2914 H         1 UNK         0.0600 
    199 H199        2.4592  -28.2664  -46.6319 H         1 UNK         0.0600 
    200 H200       -0.6209  -26.7194  -47.7783 H         1 UNK         0.3000 
    201 H201       -0.7890  -28.9588  -49.6198 H         1 UNK         0.0600 
    202 H202       -1.7280  -26.0651  -49.9459 H         1 UNK         0.0600 
    203 H203       -1.3859  -27.2212  -51.2287 H         1 UNK         0.0600 
    204 H204       -0.0771  -26.6094  -50.2391 H         1 UNK         0.0600 
    205 H205       -2.8915  -27.9705  -47.2021 H         1 UNK         0.3000 
    206 H206       -5.0092  -28.2990  -46.6406 H         1 UNK         0.0600 
    207 H207       -4.6191  -30.6812  -47.2737 H         1 UNK         0.0600 
    208 H208       -6.2841  -30.2000  -47.5602 H         1 UNK         0.0600 
    209 H209       -5.1746  -30.3512  -48.9137 H         1 UNK         0.0600 
    210 H210       -4.6692  -26.0761  -47.7087 H         1 UNK         0.3000 
    211 H211       -5.5668  -24.2464  -48.4935 H         1 UNK         0.0600 
    212 H212       -7.9675  -24.0587  -48.9525 H         1 UNK         0.0600 
    213 H213       -7.7205  -25.0986  -47.5599 H         1 UNK         0.0600 
    214 H214       -8.1253  -25.7982  -49.1280 H         1 UNK         0.0600 
    215 H215       -4.8151  -26.7017  -50.6296 H         1 UNK         0.3000 
    216 H216       -5.6714  -25.6144  -53.1091 H         1 UNK         0.0600 
    217 H217       -3.2659  -27.4120  -52.5184 H         1 UNK         0.0600 
    218 H218       -4.0121  -27.1671  -54.0897 H         1 UNK         0.0600 
    219 H219       -4.9121  -27.9655  -52.8092 H         1 UNK         0.0600 
    220 H220       -3.1623  -24.5515  -50.9928 H         1 UNK         0.3000 
    221 H221       -1.5255  -23.1202  -52.8809 H         1 UNK         0.0600 
    222 H222       -0.6863  -23.8302  -50.6490 H         1 UNK         0.0600 
    223 H223       -1.8489  -22.7606  -49.8636 H         1 UNK         0.0600 
    224 H224       -0.5570  -22.0903  -50.8437 H         1 UNK         0.0600 
    225 H225       -4.7318  -22.5097  -51.9125 H         1 UNK         0.3000 
    226 H226       -4.8932  -19.7033  -51.8133 H         1 UNK         0.0600 
    227 H227       -6.8731  -21.7610  -52.9000 H         1 UNK         0.0600 
    228 H228       -6.7709  -21.1785  -51.2384 H         1 UNK         0.0600 
    229 H229       -7.2592  -20.0849  -52.5224 H         1 UNK         0.0600 
    230 H230       -4.3532  -21.8122  -54.5766 H         1 UNK         0.3000 
    231 H231       -4.8990  -19.8627  -56.6382 H         1 UNK         0.0600 
    232 H232       -3.2874  -22.4719  -56.6688 H         1 UNK         0.0600 
    233 H233       -3.7845  -21.5643  -58.0928 H         1 UNK         0.0600 
    234 H234       -4.9982  -22.3056  -57.0617 H         1 UNK         0.0600 
    235 H235       -2.1419  -20.4978  -54.5529 H         1 UNK         0.3000 
    236 H236       -0.2534  -18.9539  -56.2488 H         1 UNK         0.0600 
    237 H237        0.5711  -21.0819  -55.2833 H         1 UNK         0.0600 
    238 H238        1.4280  -19.7150  -54.5892 H         1 UNK         0.0600 
    239 H239        0.1815  -20.5329  -53.6558 H         1 UNK         0.0600 
    240 H240       -1.6370  -19.0139  -52.9353 H         1 UNK         0.3000 
    241 H241       -2.1203  -17.5202  -51.4604 H         1 UNK         0.0600 
    242 H242        1.5970  -16.5886  -51.1679 H         1 UNK         0.3800 
    243 H243        0.8845  -17.8647  -52.1161 H         1 UNK         0.3800 
    244 H244       -3.2698  -16.4631  -53.5912 H         1 UNK         0.0800 
    245 H245       -2.0768  -15.2099  -53.4370 H         1 UNK         0.0800 
    246 H246       -5.7350  -16.1917  -50.9129 H         1 UNK         0.0800 
    247 H247       -4.7120  -17.3476  -51.7240 H         1 UNK         0.0800 
@<TRIPOS>BOND
     1    1    2 1    
     2    1  127 1    
     3    1  128 1    
     4    1  129 1    
     5    2    3 2    
     6    2    4 am   BACKBONE|DICT|INTERRES
     7    4    5 1    
     8    4  130 1    
     9    5    6 1    
    10    5   65 1    
    11    5  131 1    
    12    6    7 1    
    13    6  132 1    
    14    6  133 1    
    15    7    8 1    
    16    8    9 1    
    17    8  134 1    
    18    8  135 1    
    19    9   10 ar   
    20    9   14 ar   
    21   10   11 ar   
    22   10  136 1    
    23   11   12 ar   
    24   11  126 1    
    25   12   13 ar   
    26   12  137 1    
    27   13   14 ar   
    28   13   15 1    
    29   14  138 1    
    30   15   16 1    
    31   15  139 1    
    32   15  140 1    
    33   16   17 1    
    34   17   18 1    
    35   17  141 1    
    36   17  142 1    
    37   18   19 1    
    38   18   67 1    
    39   18  143 1    
    40   19   20 am   BACKBONE|DICT|INTERRES
    41   19  144 1    
    42   20   21 2    
    43   20   22 1    
    44   22   23 1    
    45   22   24 1    
    46   22  145 1    
    47   23  146 1    
    48   23  147 1    
    49   23  148 1    
    50   24   25 am   BACKBONE|DICT|INTERRES
    51   24  149 1    
    52   25   26 2    
    53   25   27 1    
    54   27   28 1    
    55   27   29 1    
    56   27  150 1    
    57   28  151 1    
    58   28  152 1    
    59   28  153 1    
    60   29   30 am   BACKBONE|DICT|INTERRES
    61   29  154 1    
    62   30   31 2    
    63   30   32 1    
    64   32   33 1    
    65   32   34 1    
    66   32  155 1    
    67   33  156 1    
    68   33  157 1    
    69   33  158 1    
    70   34   35 am   BACKBONE|DICT|INTERRES
    71   34  159 1    
    72   35   36 2    
    73   35   37 1    
    74   37   38 1    
    75   37   39 1    
    76   37  160 1    
    77   38  161 1    
    78   38  162 1    
    79   38  163 1    
    80   39   40 am   BACKBONE|DICT|INTERRES
    81   39  164 1    
    82   40   41 2    
    83   40   42 1    
    84   42   43 1    
    85   42   44 1    
    86   42  165 1    
    87   43  166 1    
    88   43  167 1    
    89   43  168 1    
    90   44   45 am   BACKBONE|DICT|INTERRES
    91   44  169 1    
    92   45   46 2    
    93   45   47 1    
    94   47   48 1    
    95   47   49 1    
    96   47  170 1    
    97   48  171 1    
    98   48  172 1    
    99   48  173 1    
   100   49   50 am   BACKBONE|DICT|INTERRES
   101   49  174 1    
   102   50   51 2    
   103   50   52 1    
   104   52   53 1    
   105   52   54 1    
   106   52  175 1    
   107   53  176 1    
   108   53  177 1    
   109   53  178 1    
   110   54   55 am   BACKBONE|DICT|INTERRES
   111   54  179 1    
   112   55   56 2    
   113   55   57 1    
   114   57   58 1    
   115   57   59 1    
   116   57  180 1    
   117   58  181 1    
   118   58  182 1    
   119   58  183 1    
   120   59   60 am   BACKBONE|DICT|INTERRES
   121   59  184 1    
   122   60   61 2    
   123   60   62 1    
   124   62   63 1    
   125   62   64 1    
   126   62  185 1    
   127   63  186 1    
   128   63  187 1    
   129   63  188 1    
   130   64   65 am   BACKBONE|DICT|INTERRES
   131   64  189 1    
   132   65   66 2    
   133   67   68 2    
   134   67   69 am   BACKBONE|DICT|INTERRES
   135   69   70 1    
   136   69  190 1    
   137   70   71 1    
   138   70   72 1    
   139   70  191 1    
   140   71  192 1    
   141   71  193 1    
   142   71  194 1    
   143   72   73 2    
   144   72   74 am   BACKBONE|DICT|INTERRES
   145   74   75 1    
   146   74  195 1    
   147   75   76 1    
   148   75   77 1    
   149   75  196 1    
   150   76  197 1    
   151   76  198 1    
   152   76  199 1    
   153   77   78 2    
   154   77   79 am   BACKBONE|DICT|INTERRES
   155   79   80 1    
   156   79  200 1    
   157   80   81 1    
   158   80   82 1    
   159   80  201 1    
   160   81  202 1    
   161   81  203 1    
   162   81  204 1    
   163   82   83 2    
   164   82   84 am   BACKBONE|DICT|INTERRES
   165   84   85 1    
   166   84  205 1    
   167   85   86 1    
   168   85   87 1    
   169   85  206 1    
   170   86  207 1    
   171   86  208 1    
   172   86  209 1    
   173   87   88 2    
   174   87   89 am   BACKBONE|DICT|INTERRES
   175   89   90 1    
   176   89  210 1    
   177   90   91 1    
   178   90   92 1    
   179   90  211 1    
   180   91  212 1    
   181   91  213 1    
   182   91  214 1    
   183   92   93 2    
   184   92   94 am   BACKBONE|DICT|INTERRES
   185   94   95 1    
   186   94  215 1    
   187   95   96 1    
   188   95   97 1    
   189   95  216 1    
   190   96  217 1    
   191   96  218 1    
   192   96  219 1    
   193   97   98 2    
   194   97   99 am   BACKBONE|DICT|INTERRES
   195   99  100 1    
   196   99  220 1    
   197  100  101 1    
   198  100  102 1    
   199  100  221 1    
   200  101  222 1    
   201  101  223 1    
   202  101  224 1    
   203  102  103 2    
   204  102  104 am   BACKBONE|DICT|INTERRES
   205  104  105 1    
   206  104  225 1    
   207  105  106 1    
   208  105  107 1    
   209  105  226 1    
   210  106  227 1    
   211  106  228 1    
   212  106  229 1    
   213  107  108 2    
   214  107  109 am   BACKBONE|DICT|INTERRES
   215  109  110 1    
   216  109  230 1    
   217  110  111 1    
   218  110  112 1    
   219  110  231 1    
   220  111  232 1    
   221  111  233 1    
   222  111  234 1    
   223  112  113 2    
   224  112  114 am   BACKBONE|DICT|INTERRES
   225  114  115 1    
   226  114  235 1    
   227  115  116 1    
   228  115  117 1    
   229  115  236 1    
   230  116  237 1    
   231  116  238 1    
   232  116  239 1    
   233  117  118 2    
   234  117  119 am   BACKBONE|DICT|INTERRES
   235  119  120 1    
   236  119  240 1    
   237  120  121 1    
   238  120  124 1    
   239  120  241 1    
   240  121  122 am   BACKBONE|DICT|INTERRES
   241  121  123 2    
   242  122  242 1    
   243  122  243 1    
   244  124  125 1    
   245  124  244 1    
   246  124  245 1    
   247  125  126 1    
   248  126  246 1    
   249  126  247 1    
@<TRIPOS>SUBSTRUCTURE
     1 UNK         1 GROUP             0       ****    0 ROOT    
