@<TRIPOS>MOLECULE
3R540
247   249    1
SMALL
USER_CHARGES


@<TRIPOS>ATOM
      1 CA          0.6234  -12.3685  -49.8606 C.3       0 UNK        -0.1800 
      2 C           1.8604  -12.7005  -49.0384 C.2       0 UNK         0.5000 
      3 O           2.3661  -11.8265  -48.3351 O.2       0 UNK        -0.5000 
      4 N           2.3162  -13.9621  -49.0941 N.am      1 UNK        -0.5000 
      5 CA          3.5026  -14.5262  -48.4195 C.3       1 UNK         0.1400 
      6 C6          3.5908  -16.0581  -48.6588 C.3       23 UNK        -0.0398 
      7 S7          5.2718  -16.7557  -48.5000 S.3       23 UNK        -0.2404 
      8 C8          5.7235  -17.1241  -50.2267 C.3       23 UNK        -0.0205 
      9 C9          4.9251  -18.2807  -50.8165 C.ar      23 UNK        -0.0193 
     10 C10         3.8734  -18.0234  -51.6975 C.ar      23 UNK        -0.1150 
     11 C11         3.1537  -19.0732  -52.2696 C.ar      23 UNK        -0.0193 
     12 C12         3.4886  -20.3924  -51.9570 C.ar      23 UNK        -0.1150 
     13 C13         4.5380  -20.6742  -51.0712 C.ar      23 UNK        -0.0193 
     14 C14         5.2545  -19.6066  -50.5132 C.ar      23 UNK        -0.1150 
     15 C15         4.9415  -22.1045  -50.6994 C.3       23 UNK        -0.0205 
     16 S16         3.6753  -23.3884  -51.0263 S.3       23 UNK        -0.2404 
     17 C17         3.9710  -24.5659  -49.6563 C.3       23 UNK        -0.0398 
     18 CA          2.9904  -24.3955  -48.4663 C.3       11 UNK         0.1400 
     19 N           2.9059  -22.9964  -48.0397 N.am      11 UNK        -0.5000 
     20 C           2.2935  -22.5421  -46.9429 C.2       10 UNK         0.5000 
     21 O           1.7584  -23.2758  -46.1137 O.2       10 UNK        -0.5000 
     22 CA          2.2225  -21.0138  -46.7691 C.3       10 UNK         0.1400 
     23 CB          3.3625  -20.2534  -47.4786 C.3       10 UNK        -0.1800 
     24 N           0.9333  -20.4570  -47.1826 N.am      10 UNK        -0.5000 
     25 C           0.2966  -20.6083  -48.3578 C.2       9 UNK         0.5000 
     26 O           0.6662  -21.3700  -49.2503 O.2       9 UNK        -0.5000 
     27 CA         -0.9642  -19.7494  -48.5865 C.3       9 UNK         0.1400 
     28 CB         -2.2362  -20.5505  -48.2893 C.3       9 UNK        -0.1800 
     29 N          -0.9743  -18.5360  -47.7733 N.am      9 UNK        -0.5000 
     30 C          -0.1074  -17.5291  -47.9287 C.2       8 UNK         0.5000 
     31 O           0.6854  -17.4469  -48.8637 O.2       8 UNK        -0.5000 
     32 CA         -0.0692  -16.4524  -46.8342 C.3       8 UNK         0.1400 
     33 CB         -0.6581  -15.1326  -47.3468 C.3       8 UNK        -0.1800 
     34 N          -0.7309  -16.8136  -45.5816 N.am      8 UNK        -0.5000 
     35 C          -0.3537  -17.7818  -44.7356 C.2       7 UNK         0.5000 
     36 O           0.5679  -18.5655  -44.9599 O.2       7 UNK        -0.5000 
     37 CA         -1.1511  -17.8955  -43.4281 C.3       7 UNK         0.1400 
     38 CB         -0.6639  -16.8514  -42.4108 C.3       7 UNK        -0.1800 
     39 N          -2.5786  -17.6958  -43.6682 N.am      7 UNK        -0.5000 
     40 C          -3.4656  -18.6824  -43.8488 C.2       6 UNK         0.5000 
     41 O          -3.1836  -19.8796  -43.7943 O.2       6 UNK        -0.5000 
     42 CA         -4.9175  -18.2595  -44.1469 C.3       6 UNK         0.1400 
     43 CB         -5.7066  -18.0895  -42.8402 C.3       6 UNK        -0.1800 
     44 N          -5.0183  -17.0272  -44.9309 N.am      6 UNK        -0.5000 
     45 C          -4.5897  -16.8922  -46.1930 C.2       5 UNK         0.5000 
     46 O          -4.0681  -17.7982  -46.8417 O.2       5 UNK        -0.5000 
     47 CA         -4.7478  -15.5017  -46.8352 C.3       5 UNK         0.1400 
     48 CB         -6.1207  -15.3893  -47.5160 C.3       5 UNK        -0.1800 
     49 N          -4.5579  -14.3506  -45.9402 N.am      5 UNK        -0.5000 
     50 C          -3.5169  -14.1382  -45.1220 C.2       4 UNK         0.5000 
     51 O          -2.6490  -14.9759  -44.8761 O.2       4 UNK        -0.5000 
     52 CA         -3.4301  -12.7645  -44.4417 C.3       4 UNK         0.1400 
     53 CB         -3.6591  -12.8988  -42.9288 C.3       4 UNK        -0.1800 
     54 N          -2.1217  -12.1525  -44.6738 N.am      4 UNK        -0.5000 
     55 C          -1.7104  -11.6228  -45.8320 C.2       3 UNK         0.5000 
     56 O          -2.3980  -11.6022  -46.8532 O.2       3 UNK        -0.5000 
     57 CA         -0.3039  -10.9883  -45.8570 C.3       3 UNK         0.1400 
     58 CB         -0.1803   -9.8297  -44.8474 C.3       3 UNK        -0.1800 
     59 N           0.8008  -11.9443  -45.7134 N.am      3 UNK        -0.5000 
     60 C           1.1028  -12.7297  -44.6669 C.2       2 UNK         0.5000 
     61 O           0.4602  -12.7487  -43.6162 O.2       2 UNK        -0.5000 
     62 CA          2.3236  -13.6557  -44.8389 C.3       2 UNK         0.1400 
     63 CB          2.2690  -14.8997  -43.9346 C.3       2 UNK        -0.1800 
     64 N           2.4585  -14.0699  -46.2357 N.am      2 UNK        -0.5000 
     65 C           3.6094  -14.1941  -46.9081 C.2       1 UNK         0.5000 
     66 O           4.7172  -14.0278  -46.3960 O.2       1 UNK        -0.5000 
     67 C           1.6076  -25.0308  -48.7523 C.2       11 UNK         0.5000 
     68 O           1.4550  -26.2404  -48.5782 O.2       11 UNK        -0.5000 
     69 N           0.6211  -24.2115  -49.1430 N.am      12 UNK        -0.5000 
     70 CA         -0.7623  -24.6148  -49.3922 C.3       12 UNK         0.1400 
     71 CB         -1.2801  -23.8776  -50.6367 C.3       12 UNK        -0.1800 
     72 C          -1.6855  -24.3727  -48.1819 C.2       12 UNK         0.5000 
     73 O          -2.8809  -24.6554  -48.2838 O.2       12 UNK        -0.5000 
     74 N          -1.1542  -23.8814  -47.0485 N.am      13 UNK        -0.5000 
     75 CA         -1.9122  -23.7061  -45.8009 C.3       13 UNK         0.1400 
     76 CB         -1.0817  -22.9301  -44.7702 C.3       13 UNK        -0.1800 
     77 C          -2.4006  -25.0469  -45.2202 C.2       13 UNK         0.5000 
     78 O          -3.5076  -25.1141  -44.6863 O.2       13 UNK        -0.5000 
     79 N          -1.6002  -26.1047  -45.4168 N.am      14 UNK        -0.5000 
     80 CA         -1.9221  -27.4937  -45.0801 C.3       14 UNK         0.1400 
     81 CB         -0.6540  -28.3451  -45.2449 C.3       14 UNK        -0.1800 
     82 C          -3.0792  -28.0854  -45.9136 C.2       14 UNK         0.5000 
     83 O          -3.7000  -29.0547  -45.4777 O.2       14 UNK        -0.5000 
     84 N          -3.3698  -27.4820  -47.0749 N.am      15 UNK        -0.5000 
     85 CA         -4.4846  -27.8229  -47.9607 C.3       15 UNK         0.1400 
     86 CB         -4.0044  -27.7225  -49.4207 C.3       15 UNK        -0.1800 
     87 C          -5.7167  -26.9309  -47.6926 C.2       15 UNK         0.5000 
     88 O          -6.5263  -26.7255  -48.5967 O.2       15 UNK        -0.5000 
     89 N          -5.8287  -26.4027  -46.4635 N.am      16 UNK        -0.5000 
     90 CA         -6.8608  -25.4798  -45.9774 C.3       16 UNK         0.1400 
     91 CB         -8.2598  -26.1313  -46.0084 C.3       16 UNK        -0.1800 
     92 C          -6.8061  -24.1073  -46.6801 C.2       16 UNK         0.5000 
     93 O          -7.8467  -23.5077  -46.9552 O.2       16 UNK        -0.5000 
     94 N          -5.5761  -23.6409  -46.9409 N.am      17 UNK        -0.5000 
     95 CA         -5.2206  -22.3698  -47.5771 C.3       17 UNK         0.1400 
     96 CB         -5.6166  -21.1740  -46.6889 C.3       17 UNK        -0.1800 
     97 C          -5.7269  -22.2601  -49.0261 C.2       17 UNK         0.5000 
     98 O          -6.2629  -21.2242  -49.4222 O.2       17 UNK        -0.5000 
     99 N          -5.5275  -23.3402  -49.7947 N.am      18 UNK        -0.5000 
    100 CA        -6.0215  -23.5180  -51.1641 C.3       18 UNK         0.1400 
    101 CB        -5.6322  -24.9206  -51.6563 C.3       18 UNK        -0.1800 
    102 C         -5.5438  -22.4514  -52.1696 C.2       18 UNK         0.5000 
    103 O         -6.2790  -22.1276  -53.1030 O.2       18 UNK        -0.5000 
    104 N         -4.3301  -21.9253  -51.9612 N.am      19 UNK        -0.5000 
    105 CA        -3.7244  -20.8914  -52.8022 C.3       19 UNK         0.1400 
    106 CB        -2.1966  -21.0154  -52.7081 C.3       19 UNK        -0.1800 
    107 C         -4.1704  -19.4606  -52.4374 C.2       19 UNK         0.5000 
    108 O         -3.9355  -18.5484  -53.2311 O.2       19 UNK        -0.5000 
    109 N         -4.7847  -19.2831  -51.2560 N.am      20 UNK        -0.5000 
    110 CA        -5.1460  -18.0045  -50.6328 C.3       20 UNK         0.1400 
    111 CB        -6.3120  -17.3370  -51.3946 C.3       20 UNK        -0.1800 
    112 C         -3.9173  -17.0866  -50.4331 C.2       20 UNK         0.5000 
    113 O         -2.8273  -17.5896  -50.1628 O.2       20 UNK        -0.5000 
    114 N         -4.0903  -15.7636  -50.5585 N.am      21 UNK        -0.5000 
    115 CA        -3.0274  -14.7636  -50.4202 C.3       21 UNK         0.1400 
    116 CB        -3.6528  -13.4072  -50.0470 C.3       21 UNK        -0.1800 
    117 C         -2.1257  -14.6850  -51.6699 C.2       21 UNK         0.5000 
    118 O         -2.0654  -13.6439  -52.3269 O.2       21 UNK        -0.5000 
    119 N         -1.4591  -15.7976  -51.9889 N.am      22 UNK        -0.5000 
    120 CA        -0.5048  -15.9196  -53.0951 C.3       22 UNK         0.1400 
    121 C          0.8714  -15.2543  -52.7938 C.2       22 UNK         0.5000 
    122 N          1.6182  -14.8789  -53.8236 N.am      22 UNK        -0.7600 
    123 O          1.2851  -15.0981  -51.6461 O.2       22 UNK        -0.5000 
    124 C124       -0.3808  -17.3928  -53.5641 C.3       23 UNK        -0.0398 
    125 S125        0.4539  -18.5035  -52.3766 S.3       23 UNK        -0.2404 
    126 C126        2.0301  -18.7716  -53.2437 C.3       23 UNK        -0.0205 
    127 H127        0.9036  -11.8090  -50.7529 H         1 UNK         0.0600 
    128 H128       -0.0682  -11.7609  -49.2767 H         1 UNK         0.0600 
    129 H129        0.0927  -13.2666  -50.1726 H         1 UNK         0.0600 
    130 H130        1.8694  -14.5846  -49.7631 H         1 UNK         0.3000 
    131 H131        4.3601  -14.0577  -48.9062 H         1 UNK         0.0600 
    132 H132        3.2061  -16.3021  -49.6486 H         1 UNK         0.0800 
    133 H133        2.9478  -16.5964  -47.9631 H         1 UNK         0.0800 
    134 H134        6.7858  -17.3693  -50.2640 H         1 UNK         0.0800 
    135 H135        5.6011  -16.2231  -50.8300 H         1 UNK         0.0800 
    136 H136        3.6115  -17.0034  -51.9433 H         1 UNK         0.1150 
    137 H137        2.9229  -21.1910  -52.4134 H         1 UNK         0.1150 
    138 H138        6.0720  -19.8056  -49.8343 H         1 UNK         0.1150 
    139 H139        5.8483  -22.3656  -51.2462 H         1 UNK         0.0800 
    140 H140        5.2066  -22.1228  -49.6414 H         1 UNK         0.0800 
    141 H141        4.9958  -24.4476  -49.3022 H         1 UNK         0.0800 
    142 H142        3.9248  -25.5813  -50.0542 H         1 UNK         0.0800 
    143 H143        3.4057  -24.9537  -47.6246 H         1 UNK         0.0600 
    144 H144        3.2292  -22.3181  -48.7147 H         1 UNK         0.3000 
    145 H145        2.3151  -20.8232  -45.6989 H         1 UNK         0.0600 
    146 H146        3.3748  -19.2061  -47.1759 H         1 UNK         0.0600 
    147 H147        4.3390  -20.6715  -47.2314 H         1 UNK         0.0600 
    148 H148        3.2507  -20.2725  -48.5622 H         1 UNK         0.0600 
    149 H149        0.5386  -19.8019  -46.5153 H         1 UNK         0.3000 
    150 H150       -0.9757  -19.4586  -49.6389 H         1 UNK         0.0600 
    151 H151       -2.2813  -21.4515  -48.8988 H         1 UNK         0.0600 
    152 H152       -3.1272  -19.9632  -48.5132 H         1 UNK         0.0600 
    153 H153       -2.2833  -20.8494  -47.2415 H         1 UNK         0.0600 
    154 H154       -1.6497  -18.4865  -47.0235 H         1 UNK         0.3000 
    155 H155        0.9840  -16.2969  -46.6024 H         1 UNK         0.0600 
    156 H156       -1.7350  -15.2128  -47.4694 H         1 UNK         0.0600 
    157 H157       -0.2374  -14.8544  -48.3121 H         1 UNK         0.0600 
    158 H158       -0.4730  -14.3168  -46.6516 H         1 UNK         0.0600 
    159 H159       -1.4952  -16.2007  -45.2999 H         1 UNK         0.3000 
    160 H160       -0.9727  -18.8875  -43.0075 H         1 UNK         0.0600 
    161 H161       -0.8142  -15.8322  -42.7708 H         1 UNK         0.0600 
    162 H162        0.4000  -16.9741  -42.2042 H         1 UNK         0.0600 
    163 H163       -1.1924  -16.9510  -41.4627 H         1 UNK         0.0600 
    164 H164       -2.8835  -16.7384  -43.7996 H         1 UNK         0.3000 
    165 H165       -5.3846  -19.0597  -44.7226 H         1 UNK         0.0600 
    166 H166       -6.7565  -17.8731  -43.0383 H         1 UNK         0.0600 
    167 H167       -5.6714  -19.0009  -42.2417 H         1 UNK         0.0600 
    168 H168       -5.3051  -17.2798  -42.2296 H         1 UNK         0.0600 
    169 H169       -5.4252  -16.2250  -44.4732 H         1 UNK         0.3000 
    170 H170       -3.9872  -15.4298  -47.6118 H         1 UNK         0.0600 
    171 H171       -6.2907  -16.2223  -48.1989 H         1 UNK         0.0600 
    172 H172       -6.9312  -15.3949  -46.7862 H         1 UNK         0.0600 
    173 H173       -6.2022  -14.4726  -48.0997 H         1 UNK         0.0600 
    174 H174       -5.2293  -13.6044  -46.0495 H         1 UNK         0.3000 
    175 H175       -4.1997  -12.1075  -44.8520 H         1 UNK         0.0600 
    176 H176       -2.9001  -13.5277  -42.4609 H         1 UNK         0.0600 
    177 H177       -3.6347  -11.9252  -42.4390 H         1 UNK         0.0600 
    178 H178       -4.6319  -13.3449  -42.7179 H         1 UNK         0.0600 
    179 H179       -1.4343  -12.2389  -43.9320 H         1 UNK         0.3000 
    180 H180       -0.1817  -10.5551  -46.8512 H         1 UNK         0.0600 
    181 H181       -0.2569  -10.1693  -43.8143 H         1 UNK         0.0600 
    182 H182       -0.9673   -9.0913  -45.0055 H         1 UNK         0.0600 
    183 H183        0.7739   -9.3146  -44.9581 H         1 UNK         0.0600 
    184 H184        1.4257  -11.9778  -46.5131 H         1 UNK         0.3000 
    185 H185        3.1922  -13.0608  -44.5497 H         1 UNK         0.0600 
    186 H186        2.2343  -14.6209  -42.8809 H         1 UNK         0.0600 
    187 H187        1.3872  -15.5018  -44.1445 H         1 UNK         0.0600 
    188 H188        3.1470  -15.5305  -44.0742 H         1 UNK         0.0600 
    189 H189        1.5967  -14.1828  -46.7477 H         1 UNK         0.3000 
    190 H190        0.8191  -23.2173  -49.2488 H         1 UNK         0.3000 
    191 H191       -0.8036  -25.6848  -49.6051 H         1 UNK         0.0600 
    192 H192       -1.2547  -22.7977  -50.5029 H         1 UNK         0.0600 
    193 H193       -2.3070  -24.1613  -50.8690 H         1 UNK         0.0600 
    194 H194       -0.6746  -24.1155  -51.5113 H         1 UNK         0.0600 
    195 H195       -0.1602  -23.6896  -47.0063 H         1 UNK         0.3000 
    196 H196       -2.7923  -23.1035  -46.0208 H         1 UNK         0.0600 
    197 H197       -1.6837  -22.6871  -43.8936 H         1 UNK         0.0600 
    198 H198       -0.7171  -21.9883  -45.1809 H         1 UNK         0.0600 
    199 H199       -0.2231  -23.5062  -44.4248 H         1 UNK         0.0600 
    200 H200       -0.7124  -25.9489  -45.8721 H         1 UNK         0.3000 
    201 H201       -2.2250  -27.5250  -44.0315 H         1 UNK         0.0600 
    202 H202        0.1483  -27.9875  -44.5992 H         1 UNK         0.0600 
    203 H203       -0.2902  -28.3297  -46.2733 H         1 UNK         0.0600 
    204 H204       -0.8433  -29.3860  -44.9787 H         1 UNK         0.0600 
    205 H205       -2.8470  -26.6566  -47.3356 H         1 UNK         0.3000 
    206 H206       -4.7951  -28.8546  -47.7842 H         1 UNK         0.0600 
    207 H207       -3.1227  -28.3408  -49.5891 H         1 UNK         0.0600 
    208 H208       -4.7749  -28.0659  -50.1120 H         1 UNK         0.0600 
    209 H209       -3.7526  -26.6985  -49.6961 H         1 UNK         0.0600 
    210 H210       -5.0938  -26.6092  -45.8006 H         1 UNK         0.3000 
    211 H211       -6.6179  -25.2864  -44.9315 H         1 UNK         0.0600 
    212 H212       -8.6159  -26.2861  -47.0270 H         1 UNK         0.0600 
    213 H213       -8.9926  -25.5031  -45.5008 H         1 UNK         0.0600 
    214 H214       -8.2565  -27.0969  -45.5029 H         1 UNK         0.0600 
    215 H215       -4.7985  -24.2443  -46.7109 H         1 UNK         0.3000 
    216 H216       -4.1375  -22.3691  -47.6548 H         1 UNK         0.0600 
    217 H217       -5.2515  -20.2370  -47.1102 H         1 UNK         0.0600 
    218 H218       -5.1858  -21.2708  -45.6925 H         1 UNK         0.0600 
    219 H219       -6.6977  -21.0835  -46.5829 H         1 UNK         0.0600 
    220 H220       -5.0617  -24.1355  -49.3782 H         1 UNK         0.3000 
    221 H221       -7.1111  -23.4603  -51.1250 H         1 UNK         0.0600 
    222 H222       -4.5511  -25.0633  -51.6543 H         1 UNK         0.0600 
    223 H223       -6.0740  -25.6955  -51.0308 H         1 UNK         0.0600 
    224 H224       -5.9842  -25.0911  -52.6745 H         1 UNK         0.0600 
    225 H225       -3.7935  -22.2492  -51.1714 H         1 UNK         0.3000 
    226 H226       -4.0095  -21.0680  -53.8416 H         1 UNK         0.0600 
    227 H227       -1.8621  -22.0230  -52.9545 H         1 UNK         0.0600 
    228 H228       -1.7117  -20.3375  -53.4107 H         1 UNK         0.0600 
    229 H229       -1.8313  -20.7684  -51.7105 H         1 UNK         0.0600 
    230 H230       -4.9855  -20.1014  -50.6945 H         1 UNK         0.3000 
    231 H231       -5.5007  -18.2522  -49.6312 H         1 UNK         0.0600 
    232 H232       -7.1332  -18.0392  -51.5396 H         1 UNK         0.0600 
    233 H233       -6.0051  -16.9800  -52.3783 H         1 UNK         0.0600 
    234 H234       -6.7161  -16.4887  -50.8414 H         1 UNK         0.0600 
    235 H235       -4.9973  -15.4179  -50.8350 H         1 UNK         0.3000 
    236 H236       -2.3799  -15.0602  -49.5971 H         1 UNK         0.0600 
    237 H237       -2.8830  -12.6448  -49.9188 H         1 UNK         0.0600 
    238 H238       -4.3417  -13.0549  -50.8155 H         1 UNK         0.0600 
    239 H239       -4.1989  -13.4650  -49.1064 H         1 UNK         0.0600 
    240 H240       -1.5672  -16.6136  -51.3940 H         1 UNK         0.3000 
    241 H241       -0.9332  -15.3665  -53.9335 H         1 UNK         0.0600 
    242 H242        2.5131  -14.4528  -53.6427 H         1 UNK         0.3800 
    243 H243        1.3076  -14.9878  -54.7763 H         1 UNK         0.3800 
    244 H244       -1.3757  -17.7971  -53.7532 H         1 UNK         0.0800 
    245 H245        0.1262  -17.4346  -54.5288 H         1 UNK         0.0800 
    246 H246        2.2969  -17.8871  -53.8238 H         1 UNK         0.0800 
    247 H247        1.9130  -19.5856  -53.9605 H         1 UNK         0.0800 
@<TRIPOS>BOND
     1    1    2 1    
     2    1  127 1    
     3    1  128 1    
     4    1  129 1    
     5    2    3 2    
     6    2    4 am   BACKBONE|DICT|INTERRES
     7    4    5 1    
     8    4  130 1    
     9    5    6 1    
    10    5   65 1    
    11    5  131 1    
    12    6    7 1    
    13    6  132 1    
    14    6  133 1    
    15    7    8 1    
    16    8    9 1    
    17    8  134 1    
    18    8  135 1    
    19    9   10 ar   
    20    9   14 ar   
    21   10   11 ar   
    22   10  136 1    
    23   11   12 ar   
    24   11  126 1    
    25   12   13 ar   
    26   12  137 1    
    27   13   14 ar   
    28   13   15 1    
    29   14  138 1    
    30   15   16 1    
    31   15  139 1    
    32   15  140 1    
    33   16   17 1    
    34   17   18 1    
    35   17  141 1    
    36   17  142 1    
    37   18   19 1    
    38   18   67 1    
    39   18  143 1    
    40   19   20 am   BACKBONE|DICT|INTERRES
    41   19  144 1    
    42   20   21 2    
    43   20   22 1    
    44   22   23 1    
    45   22   24 1    
    46   22  145 1    
    47   23  146 1    
    48   23  147 1    
    49   23  148 1    
    50   24   25 am   BACKBONE|DICT|INTERRES
    51   24  149 1    
    52   25   26 2    
    53   25   27 1    
    54   27   28 1    
    55   27   29 1    
    56   27  150 1    
    57   28  151 1    
    58   28  152 1    
    59   28  153 1    
    60   29   30 am   BACKBONE|DICT|INTERRES
    61   29  154 1    
    62   30   31 2    
    63   30   32 1    
    64   32   33 1    
    65   32   34 1    
    66   32  155 1    
    67   33  156 1    
    68   33  157 1    
    69   33  158 1    
    70   34   35 am   BACKBONE|DICT|INTERRES
    71   34  159 1    
    72   35   36 2    
    73   35   37 1    
    74   37   38 1    
    75   37   39 1    
    76   37  160 1    
    77   38  161 1    
    78   38  162 1    
    79   38  163 1    
    80   39   40 am   BACKBONE|DICT|INTERRES
    81   39  164 1    
    82   40   41 2    
    83   40   42 1    
    84   42   43 1    
    85   42   44 1    
    86   42  165 1    
    87   43  166 1    
    88   43  167 1    
    89   43  168 1    
    90   44   45 am   BACKBONE|DICT|INTERRES
    91   44  169 1    
    92   45   46 2    
    93   45   47 1    
    94   47   48 1    
    95   47   49 1    
    96   47  170 1    
    97   48  171 1    
    98   48  172 1    
    99   48  173 1    
   100   49   50 am   BACKBONE|DICT|INTERRES
   101   49  174 1    
   102   50   51 2    
   103   50   52 1    
   104   52   53 1    
   105   52   54 1    
   106   52  175 1    
   107   53  176 1    
   108   53  177 1    
   109   53  178 1    
   110   54   55 am   BACKBONE|DICT|INTERRES
   111   54  179 1    
   112   55   56 2    
   113   55   57 1    
   114   57   58 1    
   115   57   59 1    
   116   57  180 1    
   117   58  181 1    
   118   58  182 1    
   119   58  183 1    
   120   59   60 am   BACKBONE|DICT|INTERRES
   121   59  184 1    
   122   60   61 2    
   123   60   62 1    
   124   62   63 1    
   125   62   64 1    
   126   62  185 1    
   127   63  186 1    
   128   63  187 1    
   129   63  188 1    
   130   64   65 am   BACKBONE|DICT|INTERRES
   131   64  189 1    
   132   65   66 2    
   133   67   68 2    
   134   67   69 am   BACKBONE|DICT|INTERRES
   135   69   70 1    
   136   69  190 1    
   137   70   71 1    
   138   70   72 1    
   139   70  191 1    
   140   71  192 1    
   141   71  193 1    
   142   71  194 1    
   143   72   73 2    
   144   72   74 am   BACKBONE|DICT|INTERRES
   145   74   75 1    
   146   74  195 1    
   147   75   76 1    
   148   75   77 1    
   149   75  196 1    
   150   76  197 1    
   151   76  198 1    
   152   76  199 1    
   153   77   78 2    
   154   77   79 am   BACKBONE|DICT|INTERRES
   155   79   80 1    
   156   79  200 1    
   157   80   81 1    
   158   80   82 1    
   159   80  201 1    
   160   81  202 1    
   161   81  203 1    
   162   81  204 1    
   163   82   83 2    
   164   82   84 am   BACKBONE|DICT|INTERRES
   165   84   85 1    
   166   84  205 1    
   167   85   86 1    
   168   85   87 1    
   169   85  206 1    
   170   86  207 1    
   171   86  208 1    
   172   86  209 1    
   173   87   88 2    
   174   87   89 am   BACKBONE|DICT|INTERRES
   175   89   90 1    
   176   89  210 1    
   177   90   91 1    
   178   90   92 1    
   179   90  211 1    
   180   91  212 1    
   181   91  213 1    
   182   91  214 1    
   183   92   93 2    
   184   92   94 am   BACKBONE|DICT|INTERRES
   185   94   95 1    
   186   94  215 1    
   187   95   96 1    
   188   95   97 1    
   189   95  216 1    
   190   96  217 1    
   191   96  218 1    
   192   96  219 1    
   193   97   98 2    
   194   97   99 am   BACKBONE|DICT|INTERRES
   195   99  100 1    
   196   99  220 1    
   197  100  101 1    
   198  100  102 1    
   199  100  221 1    
   200  101  222 1    
   201  101  223 1    
   202  101  224 1    
   203  102  103 2    
   204  102  104 am   BACKBONE|DICT|INTERRES
   205  104  105 1    
   206  104  225 1    
   207  105  106 1    
   208  105  107 1    
   209  105  226 1    
   210  106  227 1    
   211  106  228 1    
   212  106  229 1    
   213  107  108 2    
   214  107  109 am   BACKBONE|DICT|INTERRES
   215  109  110 1    
   216  109  230 1    
   217  110  111 1    
   218  110  112 1    
   219  110  231 1    
   220  111  232 1    
   221  111  233 1    
   222  111  234 1    
   223  112  113 2    
   224  112  114 am   BACKBONE|DICT|INTERRES
   225  114  115 1    
   226  114  235 1    
   227  115  116 1    
   228  115  117 1    
   229  115  236 1    
   230  116  237 1    
   231  116  238 1    
   232  116  239 1    
   233  117  118 2    
   234  117  119 am   BACKBONE|DICT|INTERRES
   235  119  120 1    
   236  119  240 1    
   237  120  121 1    
   238  120  124 1    
   239  120  241 1    
   240  121  122 am   BACKBONE|DICT|INTERRES
   241  121  123 2    
   242  122  242 1    
   243  122  243 1    
   244  124  125 1    
   245  124  244 1    
   246  124  245 1    
   247  125  126 1    
   248  126  246 1    
   249  126  247 1    
@<TRIPOS>SUBSTRUCTURE
     1 UNK         1 GROUP             0       ****    0 ROOT    
