@<TRIPOS>MOLECULE
3R540
247   249    1
SMALL
USER_CHARGES


@<TRIPOS>ATOM
      1 CA         -2.7292  -10.2856  -46.9252 C.3       0 UNK        -0.1800 
      2 C          -1.6604  -11.3429  -46.6880 C.2       0 UNK         0.5000 
      3 O          -1.9833  -12.5278  -46.6538 O.2       0 UNK        -0.5000 
      4 N          -0.4041  -10.9031  -46.5203 N.am      1 UNK        -0.5000 
      5 CA          0.8229  -11.6904  -46.3058 C.3       1 UNK         0.1400 
      6 C6          1.4493  -12.2641  -47.6091 C.3       23 UNK        -0.0398 
      7 S7          0.6062  -13.6953  -48.3633 S.3       23 UNK        -0.2404 
      8 C8         -0.2757  -12.9293  -49.7614 C.3       23 UNK        -0.0205 
      9 C9         -1.0795  -13.9677  -50.5295 C.ar      23 UNK        -0.0193 
     10 C10        -0.8305  -14.2070  -51.8854 C.ar      23 UNK        -0.1150 
     11 C11        -1.5377  -15.2013  -52.5698 C.ar      23 UNK        -0.0193 
     12 C12        -2.4999  -15.9540  -51.8916 C.ar      23 UNK        -0.1150 
     13 C13        -2.7511  -15.7261  -50.5374 C.ar      23 UNK        -0.0193 
     14 C14        -2.0566  -14.7173  -49.8681 C.ar      23 UNK        -0.1150 
     15 C15        -3.7120  -16.6184  -49.7760 C.3       23 UNK        -0.0205 
     16 S16        -2.8038  -18.0452  -49.1179 S.3       23 UNK        -0.2404 
     17 C17        -4.0661  -18.8278  -48.0677 C.3       23 UNK        -0.0398 
     18 CA         -3.7835  -20.3346  -47.8655 C.3       11 UNK         0.1400 
     19 N          -2.4227  -20.6094  -47.3948 N.am      11 UNK        -0.5000 
     20 C          -1.8598  -21.8234  -47.3541 C.2       10 UNK         0.5000 
     21 O          -2.4307  -22.8476  -47.7219 O.2       10 UNK        -0.5000 
     22 CA         -0.4447  -21.9119  -46.7589 C.3       10 UNK         0.1400 
     23 CB          0.6122  -21.6052  -47.8295 C.3       10 UNK        -0.1800 
     24 N          -0.2808  -21.0059  -45.6212 N.am      10 UNK        -0.5000 
     25 C          -0.8871  -21.1848  -44.4365 C.2       9 UNK         0.5000 
     26 O          -1.5695  -22.1730  -44.1678 O.2       9 UNK        -0.5000 
     27 CA         -0.7579  -20.0564  -43.3940 C.3       9 UNK         0.1400 
     28 CB          0.4325  -20.3203  -42.4616 C.3       9 UNK        -0.1800 
     29 N          -0.6205  -18.7292  -43.9963 N.am      9 UNK        -0.5000 
     30 C          -1.5472  -18.1434  -44.7706 C.2       8 UNK         0.5000 
     31 O          -2.6554  -18.6379  -44.9812 O.2       8 UNK        -0.5000 
     32 CA         -1.1730  -16.8109  -45.4564 C.3       8 UNK         0.1400 
     33 CB         -1.8356  -15.6423  -44.7167 C.3       8 UNK        -0.1800 
     34 N           0.2685  -16.5575  -45.5488 N.am      8 UNK        -0.5000 
     35 C           1.1680  -17.3441  -46.1585 C.2       7 UNK         0.5000 
     36 O           0.8738  -18.3763  -46.7624 O.2       7 UNK        -0.5000 
     37 CA          2.6507  -16.9647  -45.9839 C.3       7 UNK         0.1400 
     38 CB          3.1813  -16.1741  -47.1869 C.3       7 UNK        -0.1800 
     39 N           2.8972  -16.2016  -44.7590 N.am      7 UNK        -0.5000 
     40 C           2.8413  -16.7052  -43.5199 C.2       6 UNK         0.5000 
     41 O           2.5615  -17.8826  -43.2918 O.2       6 UNK        -0.5000 
     42 CA          3.0948  -15.7421  -42.3381 C.3       6 UNK         0.1400 
     43 CB          3.8762  -16.4277  -41.1987 C.3       6 UNK        -0.1800 
     44 N           3.7278  -14.4645  -42.6916 N.am      6 UNK        -0.5000 
     45 C           4.9353  -14.2667  -43.2416 C.2       5 UNK         0.5000 
     46 O           5.6849  -15.1649  -43.6248 O.2       5 UNK        -0.5000 
     47 CA          5.3902  -12.8013  -43.3405 C.3       5 UNK         0.1400 
     48 CB          4.7224  -12.0889  -44.5277 C.3       5 UNK        -0.1800 
     49 N           5.1080  -12.0794  -42.0970 N.am      5 UNK        -0.5000 
     50 C           5.8514  -12.1983  -40.9861 C.2       4 UNK         0.5000 
     51 O           6.8863  -12.8642  -40.9297 O.2       4 UNK        -0.5000 
     52 CA          5.3805  -11.4508  -39.7233 C.3       4 UNK         0.1400 
     53 CB          6.1087  -10.1037  -39.5956 C.3       4 UNK        -0.1800 
     54 N           3.9379  -11.2139  -39.6791 N.am      4 UNK        -0.5000 
     55 C           3.0083  -12.1531  -39.4591 C.2       3 UNK         0.5000 
     56 O           3.2690  -13.3416  -39.2697 O.2       3 UNK        -0.5000 
     57 CA          1.5316  -11.6985  -39.4543 C.3       3 UNK         0.1400 
     58 CB          1.3445  -10.1648  -39.5053 C.3       3 UNK        -0.1800 
     59 N           0.7408  -12.3275  -40.5184 N.am      3 UNK        -0.5000 
     60 C           1.0160  -12.3331  -41.8304 C.2       2 UNK         0.5000 
     61 O           2.0631  -11.8845  -42.3046 O.2       2 UNK        -0.5000 
     62 CA         -0.0470  -12.9461  -42.7685 C.3       2 UNK         0.1400 
     63 CB         -1.4831  -12.8291  -42.2212 C.3       2 UNK        -0.1800 
     64 N           0.0031  -12.2935  -44.0745 N.am      2 UNK        -0.5000 
     65 C           0.7763  -12.6656  -45.1021 C.2       1 UNK         0.5000 
     66 O           1.4583  -13.6926  -45.0960 O.2       1 UNK        -0.5000 
     67 C          -4.8281  -20.9716  -46.9310 C.2       11 UNK         0.5000 
     68 O          -5.7715  -21.6026  -47.4114 O.2       11 UNK        -0.5000 
     69 N          -4.5959  -20.8445  -45.6154 N.am      12 UNK        -0.5000 
     70 CA         -5.3785  -21.4831  -44.5561 C.3       12 UNK         0.1400 
     71 CB         -4.8938  -20.9763  -43.1899 C.3       12 UNK        -0.1800 
     72 C          -5.3337  -23.0229  -44.6172 C.2       12 UNK         0.5000 
     73 O          -6.3428  -23.6695  -44.3331 O.2       12 UNK        -0.5000 
     74 N          -4.1948  -23.5854  -45.0455 N.am      13 UNK        -0.5000 
     75 CA         -3.9890  -25.0095  -45.3195 C.3       13 UNK         0.1400 
     76 CB         -2.4857  -25.3274  -45.2295 C.3       13 UNK        -0.1800 
     77 C          -4.6110  -25.4401  -46.6678 C.2       13 UNK         0.5000 
     78 O          -3.9245  -26.0104  -47.5189 O.2       13 UNK        -0.5000 
     79 N          -5.9114  -25.1570  -46.8290 N.am      14 UNK        -0.5000 
     80 CA         -6.7812  -25.5215  -47.9506 C.3       14 UNK         0.1400 
     81 CB         -7.0730  -27.0366  -47.9166 C.3       14 UNK        -0.1800 
     82 C          -6.2506  -25.0503  -49.3197 C.2       14 UNK         0.5000 
     83 O          -6.2091  -25.8411  -50.2629 O.2       14 UNK        -0.5000 
     84 N          -5.8337  -23.7775  -49.3998 N.am      15 UNK        -0.5000 
     85 CA         -5.2627  -23.1269  -50.5855 C.3       15 UNK         0.1400 
     86 CB         -6.3333  -22.9523  -51.6815 C.3       15 UNK        -0.1800 
     87 C          -3.9927  -23.8428  -51.0905 C.2       15 UNK         0.5000 
     88 O          -3.8912  -24.1683  -52.2764 O.2       15 UNK        -0.5000 
     89 N          -3.0606  -24.0878  -50.1603 N.am      16 UNK        -0.5000 
     90 CA         -1.8059  -24.8237  -50.3207 C.3       16 UNK         0.1400 
     91 CB         -0.8232  -24.0395  -51.2139 C.3       16 UNK        -0.1800 
     92 C          -2.0426  -26.2770  -50.7749 C.2       16 UNK         0.5000 
     93 O          -1.4295  -26.7329  -51.7399 O.2       16 UNK        -0.5000 
     94 N          -2.9522  -26.9646  -50.0686 N.am      17 UNK        -0.5000 
     95 CA         -3.4144  -28.3344  -50.3131 C.3       17 UNK         0.1400 
     96 CB         -2.2916  -29.3490  -50.0129 C.3       17 UNK        -0.1800 
     97 C          -4.0352  -28.5070  -51.7161 C.2       17 UNK         0.5000 
     98 O          -3.6431  -29.4009  -52.4687 O.2       17 UNK        -0.5000 
     99 N          -4.9954  -27.6271  -52.0324 N.am      18 UNK        -0.5000 
    100 CA        -5.7730  -27.5505  -53.2723 C.3       18 UNK         0.1400 
    101 CB        -6.6424  -28.8118  -53.4582 C.3       18 UNK        -0.1800 
    102 C         -4.9380  -27.2031  -54.5237 C.2       18 UNK         0.5000 
    103 O         -5.3413  -27.5362  -55.6395 O.2       18 UNK        -0.5000 
    104 N         -3.8109  -26.5050  -54.3306 N.am      19 UNK        -0.5000 
    105 CA        -2.9571  -25.9895  -55.4054 C.3       19 UNK         0.1400 
    106 CB        -1.5066  -25.9284  -54.9057 C.3       19 UNK        -0.1800 
    107 C         -3.4137  -24.6077  -55.9181 C.2       19 UNK         0.5000 
    108 O         -2.8242  -24.0997  -56.8723 O.2       19 UNK        -0.5000 
    109 N         -4.4384  -24.0277  -55.2740 N.am      20 UNK        -0.5000 
    110 CA        -4.9936  -22.6882  -55.4896 C.3       20 UNK         0.1400 
    111 CB        -5.5261  -22.5108  -56.9276 C.3       20 UNK        -0.1800 
    112 C         -4.0116  -21.5824  -55.0542 C.2       20 UNK         0.5000 
    113 O         -3.8900  -20.5590  -55.7313 O.2       20 UNK        -0.5000 
    114 N         -3.3309  -21.8197  -53.9215 N.am      21 UNK        -0.5000 
    115 CA        -2.3412  -20.9548  -53.2744 C.3       21 UNK         0.1400 
    116 CB        -3.0283  -19.7279  -52.6359 C.3       21 UNK        -0.1800 
    117 C         -1.1813  -20.6058  -54.2290 C.2       21 UNK         0.5000 
    118 O         -0.3282  -21.4613  -54.4693 O.2       21 UNK        -0.5000 
    119 N         -1.1783  -19.3789  -54.7648 N.am      22 UNK        -0.5000 
    120 CA        -0.2163  -18.9080  -55.7754 C.3       22 UNK         0.1400 
    121 C         -0.4524  -19.4885  -57.2017 C.2       22 UNK         0.5000 
    122 N         -1.5933  -20.1010  -57.4966 N.am      22 UNK        -0.7600 
    123 O          0.4212  -19.3822  -58.0583 O.2       22 UNK        -0.5000 
    124 C124       -0.1275  -17.3594  -55.8326 C.3       23 UNK        -0.0398 
    125 S125        0.1878  -16.5998  -54.2013 S.3       23 UNK        -0.2404 
    126 C126       -1.2474  -15.4923  -54.0323 C.3       23 UNK        -0.0205 
    127 H127       -3.4871  -10.3368  -46.1434 H         1 UNK         0.0600 
    128 H128       -3.2165  -10.4561  -47.8852 H         1 UNK         0.0600 
    129 H129       -2.3124   -9.2782  -46.9298 H         1 UNK         0.0600 
    130 H130       -0.2512   -9.9046  -46.5529 H         1 UNK         0.3000 
    131 H131        1.5374  -10.9380  -45.9682 H         1 UNK         0.0600 
    132 H132        2.4766  -12.5711  -47.4068 H         1 UNK         0.0800 
    133 H133        1.5332  -11.4701  -48.3519 H         1 UNK         0.0800 
    134 H134        0.4466  -12.4377  -50.4148 H         1 UNK         0.0800 
    135 H135       -0.9499  -12.1548  -49.3966 H         1 UNK         0.0800 
    136 H136       -0.0714  -13.6387  -52.4045 H         1 UNK         0.1150 
    137 H137       -3.0309  -16.7403  -52.4084 H         1 UNK         0.1150 
    138 H138       -2.2364  -14.5481  -48.8148 H         1 UNK         0.1150 
    139 H139       -4.1760  -16.0647  -48.9581 H         1 UNK         0.0800 
    140 H140       -4.5175  -16.9596  -50.4281 H         1 UNK         0.0800 
    141 H141       -5.0450  -18.6910  -48.5309 H         1 UNK         0.0800 
    142 H142       -4.0986  -18.2951  -47.1166 H         1 UNK         0.0800 
    143 H143       -3.8789  -20.8140  -48.8395 H         1 UNK         0.0600 
    144 H144       -1.8973  -19.8153  -47.0595 H         1 UNK         0.3000 
    145 H145       -0.2876  -22.9346  -46.4102 H         1 UNK         0.0600 
    146 H146        0.4829  -20.6083  -48.2526 H         1 UNK         0.0600 
    147 H147        1.6201  -21.6674  -47.4193 H         1 UNK         0.0600 
    148 H148        0.5503  -22.3196  -48.6512 H         1 UNK         0.0600 
    149 H149        0.2356  -20.1500  -45.7917 H         1 UNK         0.3000 
    150 H150       -1.6689  -20.0549  -42.7924 H         1 UNK         0.0600 
    151 H151        0.3225  -21.2775  -41.9503 H         1 UNK         0.0600 
    152 H152        0.5146  -19.5492  -41.6953 H         1 UNK         0.0600 
    153 H153        1.3743  -20.3486  -43.0111 H         1 UNK         0.0600 
    154 H154        0.2744  -18.2728  -43.8787 H         1 UNK         0.3000 
    155 H155       -1.5650  -16.8429  -46.4747 H         1 UNK         0.0600 
    156 H156       -2.9213  -15.7471  -44.7122 H         1 UNK         0.0600 
    157 H157       -1.6048  -14.6913  -45.1946 H         1 UNK         0.0600 
    158 H158       -1.5065  -15.5877  -43.6789 H         1 UNK         0.0600 
    159 H159        0.6098  -15.6996  -45.1316 H         1 UNK         0.3000 
    160 H160        3.2138  -17.8985  -45.9234 H         1 UNK         0.0600 
    161 H161        4.2672  -16.0873  -47.1484 H         1 UNK         0.0600 
    162 H162        2.7713  -15.1661  -47.2132 H         1 UNK         0.0600 
    163 H163        2.9252  -16.6632  -48.1277 H         1 UNK         0.0600 
    164 H164        3.0194  -15.2022  -44.8640 H         1 UNK         0.3000 
    165 H165        2.1090  -15.4865  -41.9483 H         1 UNK         0.0600 
    166 H166        4.8543  -16.7752  -41.5323 H         1 UNK         0.0600 
    167 H167        4.0309  -15.7480  -40.3610 H         1 UNK         0.0600 
    168 H168        3.3353  -17.2934  -40.8145 H         1 UNK         0.0600 
    169 H169        3.2000  -13.6333  -42.4514 H         1 UNK         0.3000 
    170 H170        6.4682  -12.7961  -43.5161 H         1 UNK         0.0600 
    171 H171        3.6420  -12.0244  -44.4090 H         1 UNK         0.0600 
    172 H172        5.1057  -11.0751  -44.6429 H         1 UNK         0.0600 
    173 H173        4.9172  -12.6192  -45.4607 H         1 UNK         0.0600 
    174 H174        4.2369  -11.5645  -42.0540 H         1 UNK         0.3000 
    175 H175        5.6501  -12.0647  -38.8612 H         1 UNK         0.0600 
    176 H176        5.8654   -9.4347  -40.4221 H         1 UNK         0.0600 
    177 H177        5.8462   -9.5993  -38.6655 H         1 UNK         0.0600 
    178 H178        7.1907  -10.2428  -39.5937 H         1 UNK         0.0600 
    179 H179        3.6313  -10.2661  -39.8434 H         1 UNK         0.3000 
    180 H180        1.1137  -12.0482  -38.5092 H         1 UNK         0.0600 
    181 H181        1.7093   -9.7356  -40.4393 H         1 UNK         0.0600 
    182 H182        1.8645   -9.6736  -38.6817 H         1 UNK         0.0600 
    183 H183        0.2906   -9.9011  -39.4155 H         1 UNK         0.0600 
    184 H184       -0.1215  -12.7567  -40.2146 H         1 UNK         0.3000 
    185 H185        0.1907  -14.0053  -42.8799 H         1 UNK         0.0600 
    186 H186       -2.2111  -13.1781  -42.9540 H         1 UNK         0.0600 
    187 H187       -1.6216  -13.4365  -41.3263 H         1 UNK         0.0600 
    188 H188       -1.7376  -11.7983  -41.9708 H         1 UNK         0.0600 
    189 H189       -0.4984  -11.4219  -44.1572 H         1 UNK         0.3000 
    190 H190       -3.8126  -20.2700  -45.3203 H         1 UNK         0.3000 
    191 H191       -6.4187  -21.1772  -44.6846 H         1 UNK         0.0600 
    192 H192       -3.8617  -21.2674  -42.9954 H         1 UNK         0.0600 
    193 H193       -4.9528  -19.8895  -43.1273 H         1 UNK         0.0600 
    194 H194       -5.5060  -21.3834  -42.3842 H         1 UNK         0.0600 
    195 H195       -3.4088  -22.9801  -45.2451 H         1 UNK         0.3000 
    196 H196       -4.4904  -25.5871  -44.5405 H         1 UNK         0.0600 
    197 H197       -2.0789  -25.0395  -44.2600 H         1 UNK         0.0600 
    198 H198       -1.9153  -24.8075  -45.9985 H         1 UNK         0.0600 
    199 H199       -2.3040  -26.3956  -45.3535 H         1 UNK         0.0600 
    200 H200       -6.3614  -24.6588  -46.0675 H         1 UNK         0.3000 
    201 H201       -7.7253  -24.9982  -47.7935 H         1 UNK         0.0600 
    202 H202       -7.7985  -27.3142  -48.6823 H         1 UNK         0.0600 
    203 H203       -7.4887  -27.3362  -46.9546 H         1 UNK         0.0600 
    204 H204       -6.1719  -27.6257  -48.0898 H         1 UNK         0.0600 
    205 H205       -5.8859  -23.1965  -48.5673 H         1 UNK         0.3000 
    206 H206       -4.9556  -22.1291  -50.2784 H         1 UNK         0.0600 
    207 H207       -7.2299  -22.4770  -51.2839 H         1 UNK         0.0600 
    208 H208       -6.6269  -23.9048  -52.1240 H         1 UNK         0.0600 
    209 H209       -5.9612  -22.3150  -52.4827 H         1 UNK         0.0600 
    210 H210       -3.2213  -23.7599  -49.2114 H         1 UNK         0.3000 
    211 H211       -1.3607  -24.8892  -49.3268 H         1 UNK         0.0600 
    212 H212       -0.6276  -23.0495  -50.8025 H         1 UNK         0.0600 
    213 H213        0.1351  -24.5544  -51.2885 H         1 UNK         0.0600 
    214 H214       -1.2049  -23.9090  -52.2252 H         1 UNK         0.0600 
    215 H215       -3.3836  -26.5003  -49.2716 H         1 UNK         0.3000 
    216 H216       -4.2186  -28.5153  -49.5985 H         1 UNK         0.0600 
    217 H217       -2.6607  -30.3723  -50.0899 H         1 UNK         0.0600 
    218 H218       -1.4567  -29.2499  -50.7073 H         1 UNK         0.0600 
    219 H219       -1.9045  -29.2191  -49.0023 H         1 UNK         0.0600 
    220 H220       -5.2605  -26.9349  -51.3317 H         1 UNK         0.3000 
    221 H221       -6.4530  -26.7088  -53.1337 H         1 UNK         0.0600 
    222 H222       -6.0382  -29.6928  -53.6759 H         1 UNK         0.0600 
    223 H223       -7.2307  -29.0197  -52.5644 H         1 UNK         0.0600 
    224 H224       -7.3442  -28.6862  -54.2834 H         1 UNK         0.0600 
    225 H225       -3.5529  -26.2467  -53.3859 H         1 UNK         0.3000 
    226 H226       -2.9883  -26.6770  -56.2530 H         1 UNK         0.0600 
    227 H227       -1.1685  -26.9030  -54.5532 H         1 UNK         0.0600 
    228 H228       -0.8285  -25.6173  -55.7012 H         1 UNK         0.0600 
    229 H229       -1.3975  -25.2184  -54.0872 H         1 UNK         0.0600 
    230 H230       -4.7917  -24.5182  -54.4637 H         1 UNK         0.3000 
    231 H231       -5.8525  -22.6090  -54.8231 H         1 UNK         0.0600 
    232 H232       -6.0856  -21.5793  -57.0208 H         1 UNK         0.0600 
    233 H233       -6.1998  -23.3224  -57.2022 H         1 UNK         0.0600 
    234 H234       -4.7214  -22.4777  -57.6623 H         1 UNK         0.0600 
    235 H235       -3.4765  -22.7192  -53.4715 H         1 UNK         0.3000 
    236 H236       -1.9039  -21.5367  -52.4627 H         1 UNK         0.0600 
    237 H237       -3.7466  -20.0371  -51.8764 H         1 UNK         0.0600 
    238 H238       -2.2976  -19.0870  -52.1405 H         1 UNK         0.0600 
    239 H239       -3.5645  -19.1223  -53.3669 H         1 UNK         0.0600 
    240 H240       -1.9311  -18.7482  -54.5355 H         1 UNK         0.3000 
    241 H241        0.7677  -19.2693  -55.4699 H         1 UNK         0.0600 
    242 H242       -2.3327  -20.1959  -56.8056 H         1 UNK         0.3800 
    243 H243       -1.7278  -20.4767  -58.4214 H         1 UNK         0.3800 
    244 H244        0.6835  -17.0543  -56.4963 H         1 UNK         0.0800 
    245 H245       -1.0385  -16.9449  -56.2669 H         1 UNK         0.0800 
    246 H246       -1.0558  -14.5635  -54.5718 H         1 UNK         0.0800 
    247 H247       -2.1271  -15.9426  -54.4946 H         1 UNK         0.0800 
@<TRIPOS>BOND
     1    1    2 1    
     2    1  127 1    
     3    1  128 1    
     4    1  129 1    
     5    2    3 2    
     6    2    4 am   BACKBONE|DICT|INTERRES
     7    4    5 1    
     8    4  130 1    
     9    5    6 1    
    10    5   65 1    
    11    5  131 1    
    12    6    7 1    
    13    6  132 1    
    14    6  133 1    
    15    7    8 1    
    16    8    9 1    
    17    8  134 1    
    18    8  135 1    
    19    9   10 ar   
    20    9   14 ar   
    21   10   11 ar   
    22   10  136 1    
    23   11   12 ar   
    24   11  126 1    
    25   12   13 ar   
    26   12  137 1    
    27   13   14 ar   
    28   13   15 1    
    29   14  138 1    
    30   15   16 1    
    31   15  139 1    
    32   15  140 1    
    33   16   17 1    
    34   17   18 1    
    35   17  141 1    
    36   17  142 1    
    37   18   19 1    
    38   18   67 1    
    39   18  143 1    
    40   19   20 am   BACKBONE|DICT|INTERRES
    41   19  144 1    
    42   20   21 2    
    43   20   22 1    
    44   22   23 1    
    45   22   24 1    
    46   22  145 1    
    47   23  146 1    
    48   23  147 1    
    49   23  148 1    
    50   24   25 am   BACKBONE|DICT|INTERRES
    51   24  149 1    
    52   25   26 2    
    53   25   27 1    
    54   27   28 1    
    55   27   29 1    
    56   27  150 1    
    57   28  151 1    
    58   28  152 1    
    59   28  153 1    
    60   29   30 am   BACKBONE|DICT|INTERRES
    61   29  154 1    
    62   30   31 2    
    63   30   32 1    
    64   32   33 1    
    65   32   34 1    
    66   32  155 1    
    67   33  156 1    
    68   33  157 1    
    69   33  158 1    
    70   34   35 am   BACKBONE|DICT|INTERRES
    71   34  159 1    
    72   35   36 2    
    73   35   37 1    
    74   37   38 1    
    75   37   39 1    
    76   37  160 1    
    77   38  161 1    
    78   38  162 1    
    79   38  163 1    
    80   39   40 am   BACKBONE|DICT|INTERRES
    81   39  164 1    
    82   40   41 2    
    83   40   42 1    
    84   42   43 1    
    85   42   44 1    
    86   42  165 1    
    87   43  166 1    
    88   43  167 1    
    89   43  168 1    
    90   44   45 am   BACKBONE|DICT|INTERRES
    91   44  169 1    
    92   45   46 2    
    93   45   47 1    
    94   47   48 1    
    95   47   49 1    
    96   47  170 1    
    97   48  171 1    
    98   48  172 1    
    99   48  173 1    
   100   49   50 am   BACKBONE|DICT|INTERRES
   101   49  174 1    
   102   50   51 2    
   103   50   52 1    
   104   52   53 1    
   105   52   54 1    
   106   52  175 1    
   107   53  176 1    
   108   53  177 1    
   109   53  178 1    
   110   54   55 am   BACKBONE|DICT|INTERRES
   111   54  179 1    
   112   55   56 2    
   113   55   57 1    
   114   57   58 1    
   115   57   59 1    
   116   57  180 1    
   117   58  181 1    
   118   58  182 1    
   119   58  183 1    
   120   59   60 am   BACKBONE|DICT|INTERRES
   121   59  184 1    
   122   60   61 2    
   123   60   62 1    
   124   62   63 1    
   125   62   64 1    
   126   62  185 1    
   127   63  186 1    
   128   63  187 1    
   129   63  188 1    
   130   64   65 am   BACKBONE|DICT|INTERRES
   131   64  189 1    
   132   65   66 2    
   133   67   68 2    
   134   67   69 am   BACKBONE|DICT|INTERRES
   135   69   70 1    
   136   69  190 1    
   137   70   71 1    
   138   70   72 1    
   139   70  191 1    
   140   71  192 1    
   141   71  193 1    
   142   71  194 1    
   143   72   73 2    
   144   72   74 am   BACKBONE|DICT|INTERRES
   145   74   75 1    
   146   74  195 1    
   147   75   76 1    
   148   75   77 1    
   149   75  196 1    
   150   76  197 1    
   151   76  198 1    
   152   76  199 1    
   153   77   78 2    
   154   77   79 am   BACKBONE|DICT|INTERRES
   155   79   80 1    
   156   79  200 1    
   157   80   81 1    
   158   80   82 1    
   159   80  201 1    
   160   81  202 1    
   161   81  203 1    
   162   81  204 1    
   163   82   83 2    
   164   82   84 am   BACKBONE|DICT|INTERRES
   165   84   85 1    
   166   84  205 1    
   167   85   86 1    
   168   85   87 1    
   169   85  206 1    
   170   86  207 1    
   171   86  208 1    
   172   86  209 1    
   173   87   88 2    
   174   87   89 am   BACKBONE|DICT|INTERRES
   175   89   90 1    
   176   89  210 1    
   177   90   91 1    
   178   90   92 1    
   179   90  211 1    
   180   91  212 1    
   181   91  213 1    
   182   91  214 1    
   183   92   93 2    
   184   92   94 am   BACKBONE|DICT|INTERRES
   185   94   95 1    
   186   94  215 1    
   187   95   96 1    
   188   95   97 1    
   189   95  216 1    
   190   96  217 1    
   191   96  218 1    
   192   96  219 1    
   193   97   98 2    
   194   97   99 am   BACKBONE|DICT|INTERRES
   195   99  100 1    
   196   99  220 1    
   197  100  101 1    
   198  100  102 1    
   199  100  221 1    
   200  101  222 1    
   201  101  223 1    
   202  101  224 1    
   203  102  103 2    
   204  102  104 am   BACKBONE|DICT|INTERRES
   205  104  105 1    
   206  104  225 1    
   207  105  106 1    
   208  105  107 1    
   209  105  226 1    
   210  106  227 1    
   211  106  228 1    
   212  106  229 1    
   213  107  108 2    
   214  107  109 am   BACKBONE|DICT|INTERRES
   215  109  110 1    
   216  109  230 1    
   217  110  111 1    
   218  110  112 1    
   219  110  231 1    
   220  111  232 1    
   221  111  233 1    
   222  111  234 1    
   223  112  113 2    
   224  112  114 am   BACKBONE|DICT|INTERRES
   225  114  115 1    
   226  114  235 1    
   227  115  116 1    
   228  115  117 1    
   229  115  236 1    
   230  116  237 1    
   231  116  238 1    
   232  116  239 1    
   233  117  118 2    
   234  117  119 am   BACKBONE|DICT|INTERRES
   235  119  120 1    
   236  119  240 1    
   237  120  121 1    
   238  120  124 1    
   239  120  241 1    
   240  121  122 am   BACKBONE|DICT|INTERRES
   241  121  123 2    
   242  122  242 1    
   243  122  243 1    
   244  124  125 1    
   245  124  244 1    
   246  124  245 1    
   247  125  126 1    
   248  126  246 1    
   249  126  247 1    
@<TRIPOS>SUBSTRUCTURE
     1 UNK         1 GROUP             0       ****    0 ROOT    
