@<TRIPOS>MOLECULE
3R540
247   249    1
SMALL
USER_CHARGES


@<TRIPOS>ATOM
      1 CA         -4.7169  -14.6220  -49.0194 C.3       0 UNK        -0.1800 
      2 C          -3.5274  -13.7648  -48.6151 C.2       0 UNK         0.5000 
      3 O          -3.7095  -12.7000  -48.0235 O.2       0 UNK        -0.5000 
      4 N          -2.3075  -14.2222  -48.9225 N.am      1 UNK        -0.5000 
      5 CA         -1.0420  -13.5157  -48.6780 C.3       1 UNK         0.1400 
      6 C6          0.0622  -13.9221  -49.6877 C.3       23 UNK        -0.0398 
      7 S7         -0.4315  -13.5881  -51.4141 S.3       23 UNK        -0.2404 
      8 C8          0.5397  -14.8343  -52.3312 C.3       23 UNK        -0.0205 
      9 C9          0.2228  -16.2927  -51.9988 C.ar      23 UNK        -0.0193 
     10 C10         1.2163  -17.2580  -52.1959 C.ar      23 UNK        -0.1150 
     11 C11         0.9652  -18.6062  -51.9288 C.ar      23 UNK        -0.0193 
     12 C12        -0.2822  -18.9865  -51.4351 C.ar      23 UNK        -0.1150 
     13 C13        -1.2839  -18.0380  -51.2263 C.ar      23 UNK        -0.0193 
     14 C14        -1.0348  -16.6978  -51.5314 C.ar      23 UNK        -0.1150 
     15 C15        -2.6439  -18.4716  -50.7055 C.3       23 UNK        -0.0205 
     16 S16        -3.0081  -17.8191  -49.0422 S.3       23 UNK        -0.2404 
     17 C17        -1.6418  -18.4434  -47.9984 C.3       23 UNK        -0.0398 
     18 CA         -1.3460  -19.9652  -48.0374 C.3       11 UNK         0.1400 
     19 N          -0.2267  -20.2946  -47.1515 N.am      11 UNK        -0.5000 
     20 C           0.4198  -21.4674  -47.1297 C.2       10 UNK         0.5000 
     21 O           0.1577  -22.4089  -47.8745 O.2       10 UNK        -0.5000 
     22 CA          1.5106  -21.6383  -46.0583 C.3       10 UNK         0.1400 
     23 CB          2.8109  -20.9411  -46.4851 C.3       10 UNK        -0.1800 
     24 N           1.0889  -21.1499  -44.7444 N.am      10 UNK        -0.5000 
     25 C           0.0625  -21.6549  -44.0446 C.2       9 UNK         0.5000 
     26 O          -0.6101  -22.6151  -44.4173 O.2       9 UNK        -0.5000 
     27 CA         -0.3120  -20.9415  -42.7345 C.3       9 UNK         0.1400 
     28 CB          0.6328  -21.3546  -41.5965 C.3       9 UNK        -0.1800 
     29 N          -0.3246  -19.4847  -42.8681 N.am      9 UNK        -0.5000 
     30 C          -1.1439  -18.8012  -43.6812 C.2       8 UNK         0.5000 
     31 O          -2.0041  -19.3260  -44.3877 O.2       8 UNK        -0.5000 
     32 CA         -0.9295  -17.2792  -43.7568 C.3       8 UNK         0.1400 
     33 CB         -1.5022  -16.5857  -42.5110 C.3       8 UNK        -0.1800 
     34 N           0.4825  -16.9308  -43.9065 N.am      8 UNK        -0.5000 
     35 C           1.2556  -17.2879  -44.9424 C.2       7 UNK         0.5000 
     36 O           0.8434  -17.9017  -45.9263 O.2       7 UNK        -0.5000 
     37 CA          2.7549  -16.9635  -44.8238 C.3       7 UNK         0.1400 
     38 CB          3.0461  -15.5105  -45.2271 C.3       7 UNK        -0.1800 
     39 N           3.2580  -17.2104  -43.4717 N.am      7 UNK        -0.5000 
     40 C           3.4027  -18.4287  -42.9312 C.2       6 UNK         0.5000 
     41 O           3.1481  -19.4747  -43.5267 O.2       6 UNK        -0.5000 
     42 CA          3.8777  -18.4856  -41.4680 C.3       6 UNK         0.1400 
     43 CB          5.4079  -18.3792  -41.3908 C.3       6 UNK        -0.1800 
     44 N           3.2761  -17.4384  -40.6417 N.am      6 UNK        -0.5000 
     45 C           1.9747  -17.3782  -40.3261 C.2       5 UNK         0.5000 
     46 O           1.1484  -18.2232  -40.6685 O.2       5 UNK        -0.5000 
     47 CA          1.5118  -16.1325  -39.5461 C.3       5 UNK         0.1400 
     48 CB          1.7136  -16.3325  -38.0369 C.3       5 UNK        -0.1800 
     49 N           2.1857  -14.9003  -39.9714 N.am      5 UNK        -0.5000 
     50 C           2.1200  -14.3971  -41.2100 C.2       4 UNK         0.5000 
     51 O           1.4870  -14.9283  -42.1287 O.2       4 UNK        -0.5000 
     52 CA          2.9227  -13.1188  -41.4867 C.3       4 UNK         0.1400 
     53 CB          4.4301  -13.4169  -41.5725 C.3       4 UNK        -0.1800 
     54 N           2.4532  -12.5930  -42.7584 N.am      4 UNK        -0.5000 
     55 C           2.5076  -11.3327  -43.1938 C.2       3 UNK         0.5000 
     56 O           3.0519  -10.4151  -42.5788 O.2       3 UNK        -0.5000 
     57 CA          1.8266  -11.0545  -44.5498 C.3       3 UNK         0.1400 
     58 CB          2.8727  -10.9959  -45.6734 C.3       3 UNK        -0.1800 
     59 N           0.8183  -12.0594  -44.9031 N.am      3 UNK        -0.5000 
     60 C          -0.3792  -12.1978  -44.3199 C.2       2 UNK         0.5000 
     61 O          -0.7920  -11.4443  -43.4369 O.2       2 UNK        -0.5000 
     62 CA         -1.2514  -13.3701  -44.8207 C.3       2 UNK         0.1400 
     63 CB         -2.6248  -13.4326  -44.1286 C.3       2 UNK        -0.1800 
     64 N          -1.4646  -13.3261  -46.2672 N.am      2 UNK        -0.5000 
     65 C          -0.5830  -13.6743  -47.2112 C.2       1 UNK         0.5000 
     66 O           0.5460  -14.0916  -46.9496 O.2       1 UNK        -0.5000 
     67 C          -2.5870  -20.8439  -47.7625 C.2       11 UNK         0.5000 
     68 O          -3.2633  -21.2390  -48.7083 O.2       11 UNK        -0.5000 
     69 N          -2.8509  -21.1721  -46.4904 N.am      12 UNK        -0.5000 
     70 CA         -3.9120  -22.0990  -46.0975 C.3       12 UNK         0.1400 
     71 CB         -4.1690  -21.9753  -44.5881 C.3       12 UNK        -0.1800 
     72 C          -3.6005  -23.5579  -46.4861 C.2       12 UNK         0.5000 
     73 O          -4.4911  -24.2598  -46.9661 O.2       12 UNK        -0.5000 
     74 N          -2.3517  -23.9905  -46.2630 N.am      13 UNK        -0.5000 
     75 CA         -1.8778  -25.3471  -46.5415 C.3       13 UNK         0.1400 
     76 CB         -0.5356  -25.5741  -45.8289 C.3       13 UNK        -0.1800 
     77 C          -1.7463  -25.6510  -48.0443 C.2       13 UNK         0.5000 
     78 O          -2.1032  -26.7488  -48.4735 O.2       13 UNK        -0.5000 
     79 N          -1.2431  -24.6800  -48.8118 N.am      14 UNK        -0.5000 
     80 CA         -1.0201  -24.7551  -50.2504 C.3       14 UNK         0.1400 
     81 CB          0.4954  -24.8767  -50.4977 C.3       14 UNK        -0.1800 
     82 C          -1.6337  -23.4929  -50.8873 C.2       14 UNK         0.5000 
     83 O          -0.9057  -22.5315  -51.1301 O.2       14 UNK        -0.5000 
     84 N          -2.9510  -23.4474  -51.1261 N.am      15 UNK        -0.5000 
     85 CA         -3.9525  -24.4903  -50.9119 C.3       15 UNK         0.1400 
     86 CB         -4.1701  -25.2507  -52.2303 C.3       15 UNK        -0.1800 
     87 C          -5.2657  -23.8882  -50.3868 C.2       15 UNK         0.5000 
     88 O          -5.4364  -22.6669  -50.3808 O.2       15 UNK        -0.5000 
     89 N          -6.1673  -24.7826  -49.9546 N.am      16 UNK        -0.5000 
     90 CA         -7.4464  -24.5060  -49.2949 C.3       16 UNK         0.1400 
     91 CB         -8.2231  -25.8238  -49.1509 C.3       16 UNK        -0.1800 
     92 C          -8.3191  -23.4449  -49.9936 C.2       16 UNK         0.5000 
     93 O          -8.3429  -23.3744  -51.2243 O.2       16 UNK        -0.5000 
     94 N          -9.0117  -22.6445  -49.1704 N.am      17 UNK        -0.5000 
     95 CA         -9.7734  -21.4414  -49.5322 C.3       17 UNK         0.1400 
     96 CB        -10.9222  -21.7628  -50.5123 C.3       17 UNK        -0.1800 
     97 C          -8.8733  -20.2786  -50.0094 C.2       17 UNK         0.5000 
     98 O          -9.3451  -19.3981  -50.7304 O.2       17 UNK        -0.5000 
     99 N          -7.6029  -20.2901  -49.5717 N.am      18 UNK        -0.5000 
    100 CA        -6.5430  -19.3196  -49.8652 C.3       18 UNK         0.1400 
    101 CB        -6.8507  -17.9612  -49.2018 C.3       18 UNK        -0.1800 
    102 C         -6.2414  -19.2062  -51.3735 C.2       18 UNK         0.5000 
    103 O         -6.1175  -18.1017  -51.9068 O.2       18 UNK        -0.5000 
    104 N         -6.1373  -20.3622  -52.0372 N.am      19 UNK        -0.5000 
    105 CA        -5.7443  -20.4763  -53.4362 C.3       19 UNK         0.1400 
    106 CB        -6.3166  -21.7818  -54.0084 C.3       19 UNK        -0.1800 
    107 C         -4.2128  -20.4697  -53.5284 C.2       19 UNK         0.5000 
    108 O         -3.5619  -21.1944  -52.7758 O.2       19 UNK        -0.5000 
    109 N         -3.6526  -19.6933  -54.4627 N.am      20 UNK        -0.5000 
    110 CA        -2.2075  -19.5614  -54.6817 C.3       20 UNK         0.1400 
    111 CB        -1.9167  -18.1862  -55.3075 C.3       20 UNK        -0.1800 
    112 C         -1.6129  -20.7348  -55.4927 C.2       20 UNK         0.5000 
    113 O         -0.8607  -20.5194  -56.4446 O.2       20 UNK        -0.5000 
    114 N         -1.9595  -21.9641  -55.0984 N.am      21 UNK        -0.5000 
    115 CA        -1.4281  -23.2158  -55.6282 C.3       21 UNK         0.1400 
    116 CB        -2.5737  -24.2365  -55.7323 C.3       21 UNK        -0.1800 
    117 C         -0.2919  -23.6782  -54.7017 C.2       21 UNK         0.5000 
    118 O         -0.4504  -24.6422  -53.9520 O.2       21 UNK        -0.5000 
    119 N          0.8121  -22.9238  -54.7369 N.am      22 UNK        -0.5000 
    120 CA         1.9401  -22.9900  -53.7912 C.3       22 UNK         0.1400 
    121 C          2.7877  -24.2966  -53.8271 C.2       22 UNK         0.5000 
    122 N          2.6333  -25.1685  -54.8156 N.am      22 UNK        -0.7600 
    123 O          3.6050  -24.5216  -52.9390 O.2       22 UNK        -0.5000 
    124 C124        2.8641  -21.7471  -53.9153 C.3       23 UNK        -0.0398 
    125 S125        1.9547  -20.1640  -53.9498 S.3       23 UNK        -0.2404 
    126 C126        2.0202  -19.6630  -52.2053 C.3       23 UNK        -0.0205 
    127 H127       -4.4678  -15.2830  -49.8497 H         1 UNK         0.0600 
    128 H128       -5.5500  -13.9926  -49.3322 H         1 UNK         0.0600 
    129 H129       -5.0442  -15.2306  -48.1765 H         1 UNK         0.0600 
    130 H130       -2.2208  -15.1262  -49.3640 H         1 UNK         0.3000 
    131 H131       -1.2181  -12.4472  -48.8206 H         1 UNK         0.0600 
    132 H132        0.3117  -14.9776  -49.5685 H         1 UNK         0.0800 
    133 H133        0.9821  -13.3670  -49.4958 H         1 UNK         0.0800 
    134 H134        1.5979  -14.6356  -52.1538 H         1 UNK         0.0800 
    135 H135        0.3724  -14.6840  -53.3983 H         1 UNK         0.0800 
    136 H136        2.1829  -16.9646  -52.5812 H         1 UNK         0.1150 
    137 H137       -0.4807  -20.0305  -51.2425 H         1 UNK         0.1150 
    138 H138       -1.8266  -15.9756  -51.3984 H         1 UNK         0.1150 
    139 H139       -3.4072  -18.1120  -51.3956 H         1 UNK         0.0800 
    140 H140       -2.7330  -19.5588  -50.7011 H         1 UNK         0.0800 
    141 H141       -1.8598  -18.1404  -46.9733 H         1 UNK         0.0800 
    142 H142       -0.7414  -17.8947  -48.2795 H         1 UNK         0.0800 
    143 H143       -1.0165  -20.2164  -49.0447 H         1 UNK         0.0600 
    144 H144        0.0840  -19.5551  -46.5268 H         1 UNK         0.3000 
    145 H145        1.7166  -22.7064  -45.9632 H         1 UNK         0.0600 
    146 H146        3.6124  -21.1323  -45.7715 H         1 UNK         0.0600 
    147 H147        3.1471  -21.3038  -47.4572 H         1 UNK         0.0600 
    148 H148        2.6834  -19.8614  -46.5633 H         1 UNK         0.0600 
    149 H149        1.6307  -20.3884  -44.3462 H         1 UNK         0.3000 
    150 H150       -1.3222  -21.2564  -42.4649 H         1 UNK         0.0600 
    151 H151        0.6462  -22.4383  -41.4738 H         1 UNK         0.0600 
    152 H152        0.3163  -20.9238  -40.6465 H         1 UNK         0.0600 
    153 H153        1.6569  -21.0322  -41.7848 H         1 UNK         0.0600 
    154 H154        0.3266  -18.9711  -42.2816 H         1 UNK         0.3000 
    155 H155       -1.4588  -16.9028  -44.6346 H         1 UNK         0.0600 
    156 H156       -1.0708  -16.9817  -41.5918 H         1 UNK         0.0600 
    157 H157       -2.5822  -16.7243  -42.4519 H         1 UNK         0.0600 
    158 H158       -1.3092  -15.5142  -42.5255 H         1 UNK         0.0600 
    159 H159        0.9002  -16.3895  -43.1543 H         1 UNK         0.3000 
    160 H160        3.2961  -17.6181  -45.5101 H         1 UNK         0.0600 
    161 H161        2.4572  -14.8007  -44.6478 H         1 UNK         0.0600 
    162 H162        2.8071  -15.3504  -46.2787 H         1 UNK         0.0600 
    163 H163        4.0993  -15.2632  -45.0945 H         1 UNK         0.0600 
    164 H164        3.4381  -16.4012  -42.8979 H         1 UNK         0.3000 
    165 H165        3.5819  -19.4540  -41.0591 H         1 UNK         0.0600 
    166 H166        5.7597  -18.4956  -40.3656 H         1 UNK         0.0600 
    167 H167        5.8832  -19.1595  -41.9869 H         1 UNK         0.0600 
    168 H168        5.7660  -17.4182  -41.7621 H         1 UNK         0.0600 
    169 H169        3.8854  -16.7019  -40.3182 H         1 UNK         0.3000 
    170 H170        0.4432  -16.0077  -39.7330 H         1 UNK         0.0600 
    171 H171        1.2065  -17.2346  -37.6918 H         1 UNK         0.0600 
    172 H172        2.7690  -16.4302  -37.7799 H         1 UNK         0.0600 
    173 H173        1.3055  -15.4955  -37.4701 H         1 UNK         0.0600 
    174 H174        2.7264  -14.4154  -39.2695 H         1 UNK         0.3000 
    175 H175        2.7222  -12.3968  -40.6927 H         1 UNK         0.0600 
    176 H176        4.6525  -14.1432  -42.3554 H         1 UNK         0.0600 
    177 H177        4.9989  -12.5122  -41.7876 H         1 UNK         0.0600 
    178 H178        4.8081  -13.8183  -40.6318 H         1 UNK         0.0600 
    179 H179        1.9280  -13.2695  -43.2973 H         1 UNK         0.3000 
    180 H180        1.3366  -10.0812  -44.4817 H         1 UNK         0.0600 
    181 H181        3.3841  -11.9517  -45.7960 H         1 UNK         0.0600 
    182 H182        3.6316  -10.2411  -45.4629 H         1 UNK         0.0600 
    183 H183        2.4130  -10.7366  -46.6273 H         1 UNK         0.0600 
    184 H184        1.0583  -12.7167  -45.6392 H         1 UNK         0.3000 
    185 H185       -0.7133  -14.2882  -44.5781 H         1 UNK         0.0600 
    186 H186       -2.5204  -13.4748  -43.0438 H         1 UNK         0.0600 
    187 H187       -3.2337  -12.5593  -44.3657 H         1 UNK         0.0600 
    188 H188       -3.1785  -14.3205  -44.4345 H         1 UNK         0.0600 
    189 H189       -2.3620  -12.9722  -46.5840 H         1 UNK         0.3000 
    190 H190       -2.2982  -20.7589  -45.7460 H         1 UNK         0.3000 
    191 H191       -4.8272  -21.8068  -46.6173 H         1 UNK         0.0600 
    192 H192       -3.2847  -22.2324  -44.0046 H         1 UNK         0.0600 
    193 H193       -4.9750  -22.6393  -44.2737 H         1 UNK         0.0600 
    194 H194       -4.4603  -20.9593  -44.3208 H         1 UNK         0.0600 
    195 H195       -1.6914  -23.3653  -45.8084 H         1 UNK         0.3000 
    196 H196       -2.6027  -26.0493  -46.1244 H         1 UNK         0.0600 
    197 H197       -0.1612  -26.5825  -46.0094 H         1 UNK         0.0600 
    198 H198       -0.6370  -25.4529  -44.7503 H         1 UNK         0.0600 
    199 H199        0.2254  -24.8730  -46.1738 H         1 UNK         0.0600 
    200 H200       -0.9527  -23.8037  -48.3806 H         1 UNK         0.3000 
    201 H201       -1.4896  -25.6376  -50.6872 H         1 UNK         0.0600 
    202 H202        0.8989  -25.7744  -50.0294 H         1 UNK         0.0600 
    203 H203        1.0435  -24.0205  -50.1021 H         1 UNK         0.0600 
    204 H204        0.7104  -24.9448  -51.5632 H         1 UNK         0.0600 
    205 H205       -3.3366  -22.5713  -51.4704 H         1 UNK         0.3000 
    206 H206       -3.6226  -25.1922  -50.1492 H         1 UNK         0.0600 
    207 H207       -4.5856  -24.5991  -52.9989 H         1 UNK         0.0600 
    208 H208       -3.2352  -25.6645  -52.6091 H         1 UNK         0.0600 
    209 H209       -4.8613  -26.0838  -52.0999 H         1 UNK         0.0600 
    210 H210       -5.9320  -25.7605  -50.0325 H         1 UNK         0.3000 
    211 H211       -7.2016  -24.1415  -48.2952 H         1 UNK         0.0600 
    212 H212       -8.4457  -26.2649  -50.1233 H         1 UNK         0.0600 
    213 H213       -9.1725  -25.6668  -48.6372 H         1 UNK         0.0600 
    214 H214       -7.6596  -26.5545  -48.5703 H         1 UNK         0.0600 
    215 H215       -8.9462  -22.8186  -48.1768 H         1 UNK         0.3000 
    216 H216      -10.2324  -21.0939  -48.6057 H         1 UNK         0.0600 
    217 H217      -11.5949  -20.9106  -50.6153 H         1 UNK         0.0600 
    218 H218      -11.5187  -22.6044  -50.1603 H         1 UNK         0.0600 
    219 H219      -10.5534  -22.0042  -51.5093 H         1 UNK         0.0600 
    220 H220       -7.3087  -21.0886  -49.0284 H         1 UNK         0.3000 
    221 H221       -5.6331  -19.7108  -49.4066 H         1 UNK         0.0600 
    222 H222       -7.7402  -17.4935  -49.6242 H         1 UNK         0.0600 
    223 H223       -7.0048  -18.0722  -48.1286 H         1 UNK         0.0600 
    224 H224       -6.0225  -17.2668  -49.3389 H         1 UNK         0.0600 
    225 H225       -6.1392  -21.2258  -51.4998 H         1 UNK         0.3000 
    226 H226       -6.1510  -19.6380  -54.0058 H         1 UNK         0.0600 
    227 H227       -7.4060  -21.7849  -53.9653 H         1 UNK         0.0600 
    228 H228       -6.0286  -21.9131  -55.0521 H         1 UNK         0.0600 
    229 H229       -5.9621  -22.6522  -53.4552 H         1 UNK         0.0600 
    230 H230       -4.2469  -19.1540  -55.0755 H         1 UNK         0.3000 
    231 H231       -1.7084  -19.5829  -53.7126 H         1 UNK         0.0600 
    232 H232       -2.2940  -17.3806  -54.6771 H         1 UNK         0.0600 
    233 H233       -2.3715  -18.0870  -56.2936 H         1 UNK         0.0600 
    234 H234       -0.8431  -18.0276  -55.4187 H         1 UNK         0.0600 
    235 H235       -2.5259  -22.0348  -54.2588 H         1 UNK         0.3000 
    236 H236       -1.0152  -23.0692  -56.6284 H         1 UNK         0.0600 
    237 H237       -2.2110  -25.1945  -56.1066 H         1 UNK         0.0600 
    238 H238       -3.0411  -24.4153  -54.7654 H         1 UNK         0.0600 
    239 H239       -3.3476  -23.8898  -56.4172 H         1 UNK         0.0600 
    240 H240        0.8275  -22.1347  -55.3685 H         1 UNK         0.3000 
    241 H241        1.4962  -22.9570  -52.7946 H         1 UNK         0.0600 
    242 H242        1.9536  -25.0038  -55.5404 H         1 UNK         0.3800 
    243 H243        3.1855  -26.0116  -54.8266 H         1 UNK         0.3800 
    244 H244        3.5900  -21.7235  -53.1005 H         1 UNK         0.0800 
    245 H245        3.4474  -21.8061  -54.8358 H         1 UNK         0.0800 
    246 H246        3.0142  -19.2815  -51.9675 H         1 UNK         0.0800 
    247 H247        1.8543  -20.5321  -51.5660 H         1 UNK         0.0800 
@<TRIPOS>BOND
     1    1    2 1    
     2    1  127 1    
     3    1  128 1    
     4    1  129 1    
     5    2    3 2    
     6    2    4 am   BACKBONE|DICT|INTERRES
     7    4    5 1    
     8    4  130 1    
     9    5    6 1    
    10    5   65 1    
    11    5  131 1    
    12    6    7 1    
    13    6  132 1    
    14    6  133 1    
    15    7    8 1    
    16    8    9 1    
    17    8  134 1    
    18    8  135 1    
    19    9   10 ar   
    20    9   14 ar   
    21   10   11 ar   
    22   10  136 1    
    23   11   12 ar   
    24   11  126 1    
    25   12   13 ar   
    26   12  137 1    
    27   13   14 ar   
    28   13   15 1    
    29   14  138 1    
    30   15   16 1    
    31   15  139 1    
    32   15  140 1    
    33   16   17 1    
    34   17   18 1    
    35   17  141 1    
    36   17  142 1    
    37   18   19 1    
    38   18   67 1    
    39   18  143 1    
    40   19   20 am   BACKBONE|DICT|INTERRES
    41   19  144 1    
    42   20   21 2    
    43   20   22 1    
    44   22   23 1    
    45   22   24 1    
    46   22  145 1    
    47   23  146 1    
    48   23  147 1    
    49   23  148 1    
    50   24   25 am   BACKBONE|DICT|INTERRES
    51   24  149 1    
    52   25   26 2    
    53   25   27 1    
    54   27   28 1    
    55   27   29 1    
    56   27  150 1    
    57   28  151 1    
    58   28  152 1    
    59   28  153 1    
    60   29   30 am   BACKBONE|DICT|INTERRES
    61   29  154 1    
    62   30   31 2    
    63   30   32 1    
    64   32   33 1    
    65   32   34 1    
    66   32  155 1    
    67   33  156 1    
    68   33  157 1    
    69   33  158 1    
    70   34   35 am   BACKBONE|DICT|INTERRES
    71   34  159 1    
    72   35   36 2    
    73   35   37 1    
    74   37   38 1    
    75   37   39 1    
    76   37  160 1    
    77   38  161 1    
    78   38  162 1    
    79   38  163 1    
    80   39   40 am   BACKBONE|DICT|INTERRES
    81   39  164 1    
    82   40   41 2    
    83   40   42 1    
    84   42   43 1    
    85   42   44 1    
    86   42  165 1    
    87   43  166 1    
    88   43  167 1    
    89   43  168 1    
    90   44   45 am   BACKBONE|DICT|INTERRES
    91   44  169 1    
    92   45   46 2    
    93   45   47 1    
    94   47   48 1    
    95   47   49 1    
    96   47  170 1    
    97   48  171 1    
    98   48  172 1    
    99   48  173 1    
   100   49   50 am   BACKBONE|DICT|INTERRES
   101   49  174 1    
   102   50   51 2    
   103   50   52 1    
   104   52   53 1    
   105   52   54 1    
   106   52  175 1    
   107   53  176 1    
   108   53  177 1    
   109   53  178 1    
   110   54   55 am   BACKBONE|DICT|INTERRES
   111   54  179 1    
   112   55   56 2    
   113   55   57 1    
   114   57   58 1    
   115   57   59 1    
   116   57  180 1    
   117   58  181 1    
   118   58  182 1    
   119   58  183 1    
   120   59   60 am   BACKBONE|DICT|INTERRES
   121   59  184 1    
   122   60   61 2    
   123   60   62 1    
   124   62   63 1    
   125   62   64 1    
   126   62  185 1    
   127   63  186 1    
   128   63  187 1    
   129   63  188 1    
   130   64   65 am   BACKBONE|DICT|INTERRES
   131   64  189 1    
   132   65   66 2    
   133   67   68 2    
   134   67   69 am   BACKBONE|DICT|INTERRES
   135   69   70 1    
   136   69  190 1    
   137   70   71 1    
   138   70   72 1    
   139   70  191 1    
   140   71  192 1    
   141   71  193 1    
   142   71  194 1    
   143   72   73 2    
   144   72   74 am   BACKBONE|DICT|INTERRES
   145   74   75 1    
   146   74  195 1    
   147   75   76 1    
   148   75   77 1    
   149   75  196 1    
   150   76  197 1    
   151   76  198 1    
   152   76  199 1    
   153   77   78 2    
   154   77   79 am   BACKBONE|DICT|INTERRES
   155   79   80 1    
   156   79  200 1    
   157   80   81 1    
   158   80   82 1    
   159   80  201 1    
   160   81  202 1    
   161   81  203 1    
   162   81  204 1    
   163   82   83 2    
   164   82   84 am   BACKBONE|DICT|INTERRES
   165   84   85 1    
   166   84  205 1    
   167   85   86 1    
   168   85   87 1    
   169   85  206 1    
   170   86  207 1    
   171   86  208 1    
   172   86  209 1    
   173   87   88 2    
   174   87   89 am   BACKBONE|DICT|INTERRES
   175   89   90 1    
   176   89  210 1    
   177   90   91 1    
   178   90   92 1    
   179   90  211 1    
   180   91  212 1    
   181   91  213 1    
   182   91  214 1    
   183   92   93 2    
   184   92   94 am   BACKBONE|DICT|INTERRES
   185   94   95 1    
   186   94  215 1    
   187   95   96 1    
   188   95   97 1    
   189   95  216 1    
   190   96  217 1    
   191   96  218 1    
   192   96  219 1    
   193   97   98 2    
   194   97   99 am   BACKBONE|DICT|INTERRES
   195   99  100 1    
   196   99  220 1    
   197  100  101 1    
   198  100  102 1    
   199  100  221 1    
   200  101  222 1    
   201  101  223 1    
   202  101  224 1    
   203  102  103 2    
   204  102  104 am   BACKBONE|DICT|INTERRES
   205  104  105 1    
   206  104  225 1    
   207  105  106 1    
   208  105  107 1    
   209  105  226 1    
   210  106  227 1    
   211  106  228 1    
   212  106  229 1    
   213  107  108 2    
   214  107  109 am   BACKBONE|DICT|INTERRES
   215  109  110 1    
   216  109  230 1    
   217  110  111 1    
   218  110  112 1    
   219  110  231 1    
   220  111  232 1    
   221  111  233 1    
   222  111  234 1    
   223  112  113 2    
   224  112  114 am   BACKBONE|DICT|INTERRES
   225  114  115 1    
   226  114  235 1    
   227  115  116 1    
   228  115  117 1    
   229  115  236 1    
   230  116  237 1    
   231  116  238 1    
   232  116  239 1    
   233  117  118 2    
   234  117  119 am   BACKBONE|DICT|INTERRES
   235  119  120 1    
   236  119  240 1    
   237  120  121 1    
   238  120  124 1    
   239  120  241 1    
   240  121  122 am   BACKBONE|DICT|INTERRES
   241  121  123 2    
   242  122  242 1    
   243  122  243 1    
   244  124  125 1    
   245  124  244 1    
   246  124  245 1    
   247  125  126 1    
   248  126  246 1    
   249  126  247 1    
@<TRIPOS>SUBSTRUCTURE
     1 UNK         1 GROUP             0       ****    0 ROOT    
