@<TRIPOS>MOLECULE
3R540
247   249    1
SMALL
USER_CHARGES


@<TRIPOS>ATOM
      1 CA          5.0500  -11.4093  -47.4360 C.3       0 UNK        -0.1800 
      2 C           4.0956  -12.5643  -47.7045 C.2       0 UNK         0.5000 
      3 O           4.4672  -13.5263  -48.3763 O.2       0 UNK        -0.5000 
      4 N           2.8718  -12.4744  -47.1766 N.am      1 UNK        -0.5000 
      5 CA          1.8365  -13.5018  -47.2447 C.3       1 UNK         0.1400 
      6 C6          1.1779  -13.6101  -48.6494 C.3       23 UNK        -0.0398 
      7 S7          0.5266  -15.2860  -48.9620 S.3       23 UNK        -0.2404 
      8 C8          1.8424  -15.9867  -50.0057 C.3       23 UNK        -0.0205 
      9 C9          1.7971  -17.5056  -49.9850 C.ar      23 UNK        -0.0193 
     10 C10         0.7968  -18.1915  -50.6819 C.ar      23 UNK        -0.1150 
     11 C11         0.7251  -19.5865  -50.6257 C.ar      23 UNK        -0.0193 
     12 C12         1.6784  -20.2935  -49.8912 C.ar      23 UNK        -0.1150 
     13 C13         2.6711  -19.6191  -49.1758 C.ar      23 UNK        -0.0193 
     14 C14         2.7333  -18.2246  -49.2352 C.ar      23 UNK        -0.1150 
     15 C15         3.6273  -20.3989  -48.2845 C.3       23 UNK        -0.0205 
     16 S16         3.2384  -20.2252  -46.5056 S.3       23 UNK        -0.2404 
     17 C17         1.4191  -20.3796  -46.4601 C.3       23 UNK        -0.0398 
     18 CA          0.9036  -21.8126  -46.7224 C.3       11 UNK         0.1400 
     19 N           1.3672  -22.7844  -45.7299 N.am      11 UNK        -0.5000 
     20 C           1.2781  -24.1141  -45.8738 C.2       10 UNK         0.5000 
     21 O           0.8348  -24.6623  -46.8820 O.2       10 UNK        -0.5000 
     22 CA          1.7175  -24.9738  -44.6737 C.3       10 UNK         0.1400 
     23 CB          3.2338  -25.2141  -44.7110 C.3       10 UNK        -0.1800 
     24 N           1.3548  -24.3728  -43.3894 N.am      10 UNK        -0.5000 
     25 C           0.0969  -24.1888  -42.9614 C.2       9 UNK         0.5000 
     26 O          -0.8960  -24.5775  -43.5758 O.2       9 UNK        -0.5000 
     27 CA         -0.0777  -23.3738  -41.6629 C.3       9 UNK         0.1400 
     28 CB         -0.0347  -24.2960  -40.4358 C.3       9 UNK        -0.1800 
     29 N           0.9274  -22.3138  -41.5136 N.am      9 UNK        -0.5000 
     30 C           1.0816  -21.2969  -42.3725 C.2       8 UNK         0.5000 
     31 O           0.3414  -21.1211  -43.3436 O.2       8 UNK        -0.5000 
     32 CA          2.3084  -20.3897  -42.1523 C.3       8 UNK         0.1400 
     33 CB          3.6095  -21.1841  -42.3631 C.3       8 UNK        -0.1800 
     34 N           2.3164  -19.2626  -43.0836 N.am      8 UNK        -0.5000 
     35 C           1.6137  -18.1355  -42.9341 C.2       7 UNK         0.5000 
     36 O           0.9395  -17.8670  -41.9372 O.2       7 UNK        -0.5000 
     37 CA          1.6658  -17.1438  -44.1110 C.3       7 UNK         0.1400 
     38 CB          0.3049  -17.0645  -44.8208 C.3       7 UNK        -0.1800 
     39 N           2.0594  -15.8080  -43.6668 N.am      7 UNK        -0.5000 
     40 C           3.2845  -15.4799  -43.2326 C.2       6 UNK         0.5000 
     41 O           4.2326  -16.2659  -43.2195 O.2       6 UNK        -0.5000 
     42 CA          3.5024  -14.0351  -42.7452 C.3       6 UNK         0.1400 
     43 CB          4.3572  -13.2500  -43.7518 C.3       6 UNK        -0.1800 
     44 N           2.2485  -13.3096  -42.5360 N.am      6 UNK        -0.5000 
     45 C           1.5849  -13.2485  -41.3731 C.2       5 UNK         0.5000 
     46 O           1.9376  -13.8550  -40.3603 O.2       5 UNK        -0.5000 
     47 CA          0.3169  -12.3642  -41.3403 C.3       5 UNK         0.1400 
     48 CB         -0.0030  -11.8228  -39.9316 C.3       5 UNK        -0.1800 
     49 N           0.3390  -11.2780  -42.3276 N.am      5 UNK        -0.5000 
     50 C           1.2102  -10.2583  -42.4132 C.2       4 UNK         0.5000 
     51 O           2.0872  -10.0369  -41.5775 O.2       4 UNK        -0.5000 
     52 CA          1.1178   -9.3536  -43.6603 C.3       4 UNK         0.1400 
     53 CB          2.4634   -9.3264  -44.4071 C.3       4 UNK        -0.1800 
     54 N           0.0875   -9.8155  -44.5923 N.am      4 UNK        -0.5000 
     55 C          -1.1284   -9.2734  -44.7421 C.2       3 UNK         0.5000 
     56 O          -1.5034   -8.2584  -44.1546 O.2       3 UNK        -0.5000 
     57 CA         -2.1016   -9.9998  -45.6959 C.3       3 UNK         0.1400 
     58 CB         -2.0812   -9.3415  -47.0838 C.3       3 UNK        -0.1800 
     59 N          -1.8213  -11.4314  -45.8469 N.am      3 UNK        -0.5000 
     60 C          -1.9114  -12.3416  -44.8669 C.2       2 UNK         0.5000 
     61 O          -2.2808  -12.0776  -43.7234 O.2       2 UNK        -0.5000 
     62 CA         -1.4378  -13.7707  -45.1929 C.3       2 UNK         0.1400 
     63 CB         -2.6158  -14.6345  -45.6661 C.3       2 UNK        -0.1800 
     64 N          -0.3630  -13.8392  -46.1889 N.am      2 UNK        -0.5000 
     65 C           0.8383  -13.2546  -46.0945 C.2       1 UNK         0.5000 
     66 O           1.1660  -12.5399  -45.1416 O.2       1 UNK        -0.5000 
     67 C          -0.6318  -21.8126  -46.8259 C.2       11 UNK         0.5000 
     68 O          -1.1618  -21.7833  -47.9354 O.2       11 UNK        -0.5000 
     69 N          -1.3167  -21.8865  -45.6756 N.am      12 UNK        -0.5000 
     70 CA         -2.7724  -22.0102  -45.5913 C.3       12 UNK         0.1400 
     71 CB         -3.2182  -21.8941  -44.1263 C.3       12 UNK        -0.1800 
     72 C          -3.2871  -23.3137  -46.2307 C.2       12 UNK         0.5000 
     73 O          -4.2655  -23.2773  -46.9769 O.2       12 UNK        -0.5000 
     74 N          -2.5872  -24.4286  -45.9748 N.am      13 UNK        -0.5000 
     75 CA         -2.8427  -25.7282  -46.5968 C.3       13 UNK         0.1400 
     76 CB         -1.9725  -26.8033  -45.9295 C.3       13 UNK        -0.1800 
     77 C          -2.6242  -25.7090  -48.1211 C.2       13 UNK         0.5000 
     78 O          -3.4574  -26.2384  -48.8562 O.2       13 UNK        -0.5000 
     79 N          -1.5382  -25.0653  -48.5737 N.am      14 UNK        -0.5000 
     80 CA         -1.2322  -24.8573  -49.9901 C.3       14 UNK         0.1400 
     81 CB          0.1706  -24.2514  -50.1411 C.3       14 UNK        -0.1800 
     82 C          -2.2850  -23.9907  -50.7032 C.2       14 UNK         0.5000 
     83 O          -2.7059  -24.3415  -51.8037 O.2       14 UNK        -0.5000 
     84 N          -2.7294  -22.9081  -50.0497 N.am      15 UNK        -0.5000 
     85 CA         -3.7874  -22.0230  -50.5384 C.3       15 UNK         0.1400 
     86 CB         -3.8917  -20.7870  -49.6322 C.3       15 UNK        -0.1800 
     87 C          -5.1482  -22.7327  -50.6502 C.2       15 UNK         0.5000 
     88 O          -5.8647  -22.5074  -51.6232 O.2       15 UNK        -0.5000 
     89 N          -5.4644  -23.5939  -49.6728 N.am      16 UNK        -0.5000 
     90 CA         -6.6675  -24.4265  -49.6587 C.3       16 UNK         0.1400 
     91 CB         -6.8489  -25.0367  -48.2606 C.3       16 UNK        -0.1800 
     92 C          -6.6558  -25.5272  -50.7376 C.2       16 UNK         0.5000 
     93 O          -7.7138  -25.8472  -51.2807 O.2       16 UNK        -0.5000 
     94 N          -5.4723  -26.0868  -51.0274 N.am      17 UNK        -0.5000 
     95 CA         -5.2564  -27.0609  -52.0994 C.3       17 UNK         0.1400 
     96 CB         -3.9063  -27.7631  -51.8875 C.3       17 UNK        -0.1800 
     97 C          -5.3275  -26.4194  -53.4989 C.2       17 UNK         0.5000 
     98 O          -5.8485  -27.0389  -54.4280 O.2       17 UNK        -0.5000 
     99 N          -4.8107  -25.1902  -53.6175 N.am      18 UNK        -0.5000 
    100 CA        -4.8970  -24.3339  -54.7987 C.3       18 UNK         0.1400 
    101 CB        -3.7874  -23.2712  -54.7029 C.3       18 UNK        -0.1800 
    102 C         -6.2943  -23.6916  -54.9520 C.2       18 UNK         0.5000 
    103 O         -7.2226  -24.0027  -54.2015 O.2       18 UNK        -0.5000 
    104 N         -6.4309  -22.7828  -55.9261 N.am      19 UNK        -0.5000 
    105 CA        -7.6566  -22.0374  -56.2309 C.3       19 UNK         0.1400 
    106 CB        -7.5855  -21.5566  -57.6918 C.3       19 UNK        -0.1800 
    107 C         -7.9025  -20.8815  -55.2340 C.2       19 UNK         0.5000 
    108 O         -8.0075  -19.7241  -55.6417 O.2       19 UNK        -0.5000 
    109 N         -7.9458  -21.2199  -53.9376 N.am      20 UNK        -0.5000 
    110 CA        -8.0975  -20.3572  -52.7559 C.3       20 UNK         0.1400 
    111 CB        -9.4092  -19.5484  -52.8164 C.3       20 UNK        -0.1800 
    112 C         -6.8810  -19.4545  -52.4496 C.2       20 UNK         0.5000 
    113 O         -6.8794  -18.7768  -51.4209 O.2       20 UNK        -0.5000 
    114 N         -5.8624  -19.4751  -53.3133 N.am      21 UNK        -0.5000 
    115 CA        -4.6038  -18.7529  -53.2100 C.3       21 UNK         0.1400 
    116 CB        -4.8147  -17.2579  -53.5129 C.3       21 UNK        -0.1800 
    117 C         -3.6207  -19.3798  -54.2071 C.2       21 UNK         0.5000 
    118 O         -4.0498  -19.9901  -55.1907 O.2       21 UNK        -0.5000 
    119 N         -2.3246  -19.2115  -53.9356 N.am      22 UNK        -0.5000 
    120 CA        -1.2244  -19.6492  -54.8055 C.3       22 UNK         0.1400 
    121 C         -1.0417  -18.6956  -56.0179 C.2       22 UNK         0.5000 
    122 N         -0.6930  -19.2234  -57.1831 N.am      22 UNK        -0.7600 
    123 O         -1.1728  -17.4787  -55.9029 O.2       22 UNK        -0.5000 
    124 C124        0.0998  -19.7837  -54.0113 C.3       23 UNK        -0.0398 
    125 S125        0.0522  -21.1682  -52.8236 S.3       23 UNK        -0.2404 
    126 C126       -0.4246  -20.3352  -51.2793 C.3       23 UNK        -0.0205 
    127 H127        5.9289  -11.7670  -46.8997 H         1 UNK         0.0600 
    128 H128        4.5821  -10.6273  -46.8371 H         1 UNK         0.0600 
    129 H129        5.3785  -10.9670  -48.3764 H         1 UNK         0.0600 
    130 H130        2.6305  -11.6924  -46.5824 H         1 UNK         0.3000 
    131 H131        2.3243  -14.4505  -47.0090 H         1 UNK         0.0600 
    132 H132        0.3778  -12.8783  -48.7737 H         1 UNK         0.0800 
    133 H133        1.8995  -13.3762  -49.4330 H         1 UNK         0.0800 
    134 H134        1.7303  -15.6238  -51.0283 H         1 UNK         0.0800 
    135 H135        2.8150  -15.6361  -49.6553 H         1 UNK         0.0800 
    136 H136        0.0551  -17.6336  -51.2357 H         1 UNK         0.1150 
    137 H137        1.6172  -21.3707  -49.8451 H         1 UNK         0.1150 
    138 H138        3.4912  -17.7001  -48.6700 H         1 UNK         0.1150 
    139 H139        3.6141  -21.4582  -48.5455 H         1 UNK         0.0800 
    140 H140        4.6481  -20.0567  -48.4595 H         1 UNK         0.0800 
    141 H141        0.9821  -19.6698  -47.1639 H         1 UNK         0.0800 
    142 H142        1.0874  -20.0389  -45.4828 H         1 UNK         0.0800 
    143 H143        1.2862  -22.1367  -47.6905 H         1 UNK         0.0600 
    144 H144        1.6970  -22.4080  -44.8547 H         1 UNK         0.3000 
    145 H145        1.2140  -25.9396  -44.7518 H         1 UNK         0.0600 
    146 H146        3.5474  -25.8803  -43.9071 H         1 UNK         0.0600 
    147 H147        3.5315  -25.6793  -45.6518 H         1 UNK         0.0600 
    148 H148        3.7934  -24.2828  -44.6138 H         1 UNK         0.0600 
    149 H149        2.1116  -24.0331  -42.8152 H         1 UNK         0.3000 
    150 H150       -1.0607  -22.9000  -41.7005 H         1 UNK         0.0600 
    151 H151        0.9368  -24.7801  -40.3282 H         1 UNK         0.0600 
    152 H152       -0.7869  -25.0823  -40.5126 H         1 UNK         0.0600 
    153 H153       -0.2382  -23.7423  -39.5190 H         1 UNK         0.0600 
    154 H154        1.5647  -22.4034  -40.7353 H         1 UNK         0.3000 
    155 H155        2.2818  -20.0141  -41.1273 H         1 UNK         0.0600 
    156 H156        3.6642  -21.6129  -43.3648 H         1 UNK         0.0600 
    157 H157        3.6997  -22.0029  -41.6485 H         1 UNK         0.0600 
    158 H158        4.4837  -20.5468  -42.2271 H         1 UNK         0.0600 
    159 H159        2.8371  -19.4005  -43.9378 H         1 UNK         0.3000 
    160 H160        2.4033  -17.4932  -44.8374 H         1 UNK         0.0600 
    161 H161       -0.4529  -16.6045  -44.1863 H         1 UNK         0.0600 
    162 H162       -0.0621  -18.0546  -45.0903 H         1 UNK         0.0600 
    163 H163        0.3764  -16.4886  -45.7427 H         1 UNK         0.0600 
    164 H164        1.3309  -15.1152  -43.5959 H         1 UNK         0.3000 
    165 H165        4.0561  -14.0868  -41.8053 H         1 UNK         0.0600 
    166 H166        5.3315  -13.7200  -43.8907 H         1 UNK         0.0600 
    167 H167        3.8767  -13.1994  -44.7270 H         1 UNK         0.0600 
    168 H168        4.5332  -12.2295  -43.4107 H         1 UNK         0.0600 
    169 H169        1.8794  -12.8078  -43.3381 H         1 UNK         0.3000 
    170 H170       -0.5068  -13.0168  -41.6327 H         1 UNK         0.0600 
    171 H171       -0.1788  -12.6384  -39.2293 H         1 UNK         0.0600 
    172 H172        0.8131  -11.2200  -39.5327 H         1 UNK         0.0600 
    173 H173       -0.9022  -11.2067  -39.9416 H         1 UNK         0.0600 
    174 H174       -0.3705  -11.3460  -43.0460 H         1 UNK         0.3000 
    175 H175        0.8957   -8.3419  -43.3156 H         1 UNK         0.0600 
    176 H176        3.2523   -8.9114  -43.7787 H         1 UNK         0.0600 
    177 H177        2.7784  -10.3261  -44.7077 H         1 UNK         0.0600 
    178 H178        2.4058   -8.7078  -45.3028 H         1 UNK         0.0600 
    179 H179        0.3018  -10.6745  -45.0849 H         1 UNK         0.3000 
    180 H180       -3.1062   -9.8957  -45.2807 H         1 UNK         0.0600 
    181 H181       -1.1036   -9.4338  -47.5587 H         1 UNK         0.0600 
    182 H182       -2.3138   -8.2779  -47.0155 H         1 UNK         0.0600 
    183 H183       -2.8211   -9.7920  -47.7456 H         1 UNK         0.0600 
    184 H184       -1.5080  -11.7378  -46.7559 H         1 UNK         0.3000 
    185 H185       -1.0516  -14.1981  -44.2658 H         1 UNK         0.0600 
    186 H186       -3.4228  -14.6320  -44.9322 H         1 UNK         0.0600 
    187 H187       -3.0271  -14.2711  -46.6087 H         1 UNK         0.0600 
    188 H188       -2.3136  -15.6718  -45.8105 H         1 UNK         0.0600 
    189 H189       -0.5480  -14.4090  -47.0046 H         1 UNK         0.3000 
    190 H190       -0.8038  -21.8561  -44.7999 H         1 UNK         0.3000 
    191 H191       -3.2077  -21.1753  -46.1443 H         1 UNK         0.0600 
    192 H192       -2.8800  -20.9567  -43.6842 H         1 UNK         0.0600 
    193 H193       -4.3058  -21.9185  -44.0486 H         1 UNK         0.0600 
    194 H194       -2.8289  -22.7100  -43.5180 H         1 UNK         0.0600 
    195 H195       -1.8296  -24.3862  -45.2999 H         1 UNK         0.3000 
    196 H196       -3.8894  -25.9813  -46.4162 H         1 UNK         0.0600 
    197 H197       -2.1713  -27.7867  -46.3571 H         1 UNK         0.0600 
    198 H198       -2.1751  -26.8659  -44.8601 H         1 UNK         0.0600 
    199 H199       -0.9094  -26.5990  -46.0561 H         1 UNK         0.0600 
    200 H200       -0.8658  -24.7032  -47.9049 H         1 UNK         0.3000 
    201 H201       -1.2289  -25.8358  -50.4746 H         1 UNK         0.0600 
    202 H202        0.4165  -24.0901  -51.1915 H         1 UNK         0.0600 
    203 H203        0.9320  -24.9108  -49.7246 H         1 UNK         0.0600 
    204 H204        0.2486  -23.2905  -49.6357 H         1 UNK         0.0600 
    205 H205       -2.2965  -22.6584  -49.1638 H         1 UNK         0.3000 
    206 H206       -3.5043  -21.6871  -51.5382 H         1 UNK         0.0600 
    207 H207       -2.9543  -20.2323  -49.6042 H         1 UNK         0.0600 
    208 H208       -4.6640  -20.1048  -49.9895 H         1 UNK         0.0600 
    209 H209       -4.1454  -21.0604  -48.6079 H         1 UNK         0.0600 
    210 H210       -4.8446  -23.6744  -48.8729 H         1 UNK         0.3000 
    211 H211       -7.5243  -23.7795  -49.8585 H         1 UNK         0.0600 
    212 H212       -6.0101  -25.6779  -47.9890 H         1 UNK         0.0600 
    213 H213       -7.7548  -25.6422  -48.2127 H         1 UNK         0.0600 
    214 H214       -6.9355  -24.2604  -47.5002 H         1 UNK         0.0600 
    215 H215       -4.6621  -25.8263  -50.4755 H         1 UNK         0.3000 
    216 H216       -6.0424  -27.8165  -52.0387 H         1 UNK         0.0600 
    217 H217       -3.7330  -28.5160  -52.6572 H         1 UNK         0.0600 
    218 H218       -3.8730  -28.2694  -50.9226 H         1 UNK         0.0600 
    219 H219       -3.0749  -27.0588  -51.9234 H         1 UNK         0.0600 
    220 H220       -4.3554  -24.7826  -52.8074 H         1 UNK         0.3000 
    221 H221       -4.7143  -24.9454  -55.6844 H         1 UNK         0.0600 
    222 H222       -3.9652  -22.5813  -53.8771 H         1 UNK         0.0600 
    223 H223       -2.8118  -23.7315  -54.5449 H         1 UNK         0.0600 
    224 H224       -3.7133  -22.6826  -55.6173 H         1 UNK         0.0600 
    225 H225       -5.6200  -22.5391  -56.4764 H         1 UNK         0.3000 
    226 H226       -8.5090  -22.7152  -56.1497 H         1 UNK         0.0600 
    227 H227       -8.4985  -21.0325  -57.9770 H         1 UNK         0.0600 
    228 H228       -6.7498  -20.8737  -57.8504 H         1 UNK         0.0600 
    229 H229       -7.4683  -22.3957  -58.3778 H         1 UNK         0.0600 
    230 H230       -7.7830  -22.2020  -53.7266 H         1 UNK         0.3000 
    231 H231       -8.1784  -21.0402  -51.9093 H         1 UNK         0.0600 
    232 H232       -9.3822  -18.7845  -53.5936 H         1 UNK         0.0600 
    233 H233       -9.5958  -19.0391  -51.8703 H         1 UNK         0.0600 
    234 H234      -10.2646  -20.1960  -53.0091 H         1 UNK         0.0600 
    235 H235       -5.9275  -20.0655  -54.1329 H         1 UNK         0.3000 
    236 H236       -4.2075  -18.8751  -52.2001 H         1 UNK         0.0600 
    237 H237       -5.4821  -16.7931  -52.7874 H         1 UNK         0.0600 
    238 H238       -3.8706  -16.7129  -53.4772 H         1 UNK         0.0600 
    239 H239       -5.2429  -17.1087  -54.5049 H         1 UNK         0.0600 
    240 H240       -2.0598  -18.6415  -53.1477 H         1 UNK         0.3000 
    241 H241       -1.4811  -20.6357  -55.1985 H         1 UNK         0.0600 
    242 H242       -0.5571  -18.6141  -57.9751 H         1 UNK         0.3800 
    243 H243       -0.5725  -20.2179  -57.3005 H         1 UNK         0.3800 
    244 H244        0.9308  -19.9835  -54.6902 H         1 UNK         0.0800 
    245 H245        0.3492  -18.8530  -53.5001 H         1 UNK         0.0800 
    246 H246       -1.2718  -19.6723  -51.4503 H         1 UNK         0.0800 
    247 H247       -0.7784  -21.0930  -50.5818 H         1 UNK         0.0800 
@<TRIPOS>BOND
     1    1    2 1    
     2    1  127 1    
     3    1  128 1    
     4    1  129 1    
     5    2    3 2    
     6    2    4 am   BACKBONE|DICT|INTERRES
     7    4    5 1    
     8    4  130 1    
     9    5    6 1    
    10    5   65 1    
    11    5  131 1    
    12    6    7 1    
    13    6  132 1    
    14    6  133 1    
    15    7    8 1    
    16    8    9 1    
    17    8  134 1    
    18    8  135 1    
    19    9   10 ar   
    20    9   14 ar   
    21   10   11 ar   
    22   10  136 1    
    23   11   12 ar   
    24   11  126 1    
    25   12   13 ar   
    26   12  137 1    
    27   13   14 ar   
    28   13   15 1    
    29   14  138 1    
    30   15   16 1    
    31   15  139 1    
    32   15  140 1    
    33   16   17 1    
    34   17   18 1    
    35   17  141 1    
    36   17  142 1    
    37   18   19 1    
    38   18   67 1    
    39   18  143 1    
    40   19   20 am   BACKBONE|DICT|INTERRES
    41   19  144 1    
    42   20   21 2    
    43   20   22 1    
    44   22   23 1    
    45   22   24 1    
    46   22  145 1    
    47   23  146 1    
    48   23  147 1    
    49   23  148 1    
    50   24   25 am   BACKBONE|DICT|INTERRES
    51   24  149 1    
    52   25   26 2    
    53   25   27 1    
    54   27   28 1    
    55   27   29 1    
    56   27  150 1    
    57   28  151 1    
    58   28  152 1    
    59   28  153 1    
    60   29   30 am   BACKBONE|DICT|INTERRES
    61   29  154 1    
    62   30   31 2    
    63   30   32 1    
    64   32   33 1    
    65   32   34 1    
    66   32  155 1    
    67   33  156 1    
    68   33  157 1    
    69   33  158 1    
    70   34   35 am   BACKBONE|DICT|INTERRES
    71   34  159 1    
    72   35   36 2    
    73   35   37 1    
    74   37   38 1    
    75   37   39 1    
    76   37  160 1    
    77   38  161 1    
    78   38  162 1    
    79   38  163 1    
    80   39   40 am   BACKBONE|DICT|INTERRES
    81   39  164 1    
    82   40   41 2    
    83   40   42 1    
    84   42   43 1    
    85   42   44 1    
    86   42  165 1    
    87   43  166 1    
    88   43  167 1    
    89   43  168 1    
    90   44   45 am   BACKBONE|DICT|INTERRES
    91   44  169 1    
    92   45   46 2    
    93   45   47 1    
    94   47   48 1    
    95   47   49 1    
    96   47  170 1    
    97   48  171 1    
    98   48  172 1    
    99   48  173 1    
   100   49   50 am   BACKBONE|DICT|INTERRES
   101   49  174 1    
   102   50   51 2    
   103   50   52 1    
   104   52   53 1    
   105   52   54 1    
   106   52  175 1    
   107   53  176 1    
   108   53  177 1    
   109   53  178 1    
   110   54   55 am   BACKBONE|DICT|INTERRES
   111   54  179 1    
   112   55   56 2    
   113   55   57 1    
   114   57   58 1    
   115   57   59 1    
   116   57  180 1    
   117   58  181 1    
   118   58  182 1    
   119   58  183 1    
   120   59   60 am   BACKBONE|DICT|INTERRES
   121   59  184 1    
   122   60   61 2    
   123   60   62 1    
   124   62   63 1    
   125   62   64 1    
   126   62  185 1    
   127   63  186 1    
   128   63  187 1    
   129   63  188 1    
   130   64   65 am   BACKBONE|DICT|INTERRES
   131   64  189 1    
   132   65   66 2    
   133   67   68 2    
   134   67   69 am   BACKBONE|DICT|INTERRES
   135   69   70 1    
   136   69  190 1    
   137   70   71 1    
   138   70   72 1    
   139   70  191 1    
   140   71  192 1    
   141   71  193 1    
   142   71  194 1    
   143   72   73 2    
   144   72   74 am   BACKBONE|DICT|INTERRES
   145   74   75 1    
   146   74  195 1    
   147   75   76 1    
   148   75   77 1    
   149   75  196 1    
   150   76  197 1    
   151   76  198 1    
   152   76  199 1    
   153   77   78 2    
   154   77   79 am   BACKBONE|DICT|INTERRES
   155   79   80 1    
   156   79  200 1    
   157   80   81 1    
   158   80   82 1    
   159   80  201 1    
   160   81  202 1    
   161   81  203 1    
   162   81  204 1    
   163   82   83 2    
   164   82   84 am   BACKBONE|DICT|INTERRES
   165   84   85 1    
   166   84  205 1    
   167   85   86 1    
   168   85   87 1    
   169   85  206 1    
   170   86  207 1    
   171   86  208 1    
   172   86  209 1    
   173   87   88 2    
   174   87   89 am   BACKBONE|DICT|INTERRES
   175   89   90 1    
   176   89  210 1    
   177   90   91 1    
   178   90   92 1    
   179   90  211 1    
   180   91  212 1    
   181   91  213 1    
   182   91  214 1    
   183   92   93 2    
   184   92   94 am   BACKBONE|DICT|INTERRES
   185   94   95 1    
   186   94  215 1    
   187   95   96 1    
   188   95   97 1    
   189   95  216 1    
   190   96  217 1    
   191   96  218 1    
   192   96  219 1    
   193   97   98 2    
   194   97   99 am   BACKBONE|DICT|INTERRES
   195   99  100 1    
   196   99  220 1    
   197  100  101 1    
   198  100  102 1    
   199  100  221 1    
   200  101  222 1    
   201  101  223 1    
   202  101  224 1    
   203  102  103 2    
   204  102  104 am   BACKBONE|DICT|INTERRES
   205  104  105 1    
   206  104  225 1    
   207  105  106 1    
   208  105  107 1    
   209  105  226 1    
   210  106  227 1    
   211  106  228 1    
   212  106  229 1    
   213  107  108 2    
   214  107  109 am   BACKBONE|DICT|INTERRES
   215  109  110 1    
   216  109  230 1    
   217  110  111 1    
   218  110  112 1    
   219  110  231 1    
   220  111  232 1    
   221  111  233 1    
   222  111  234 1    
   223  112  113 2    
   224  112  114 am   BACKBONE|DICT|INTERRES
   225  114  115 1    
   226  114  235 1    
   227  115  116 1    
   228  115  117 1    
   229  115  236 1    
   230  116  237 1    
   231  116  238 1    
   232  116  239 1    
   233  117  118 2    
   234  117  119 am   BACKBONE|DICT|INTERRES
   235  119  120 1    
   236  119  240 1    
   237  120  121 1    
   238  120  124 1    
   239  120  241 1    
   240  121  122 am   BACKBONE|DICT|INTERRES
   241  121  123 2    
   242  122  242 1    
   243  122  243 1    
   244  124  125 1    
   245  124  244 1    
   246  124  245 1    
   247  125  126 1    
   248  126  246 1    
   249  126  247 1    
@<TRIPOS>SUBSTRUCTURE
     1 UNK         1 GROUP             0       ****    0 ROOT    
