@<TRIPOS>MOLECULE
3R540
247   249    1
SMALL
USER_CHARGES


@<TRIPOS>ATOM
      1 CA          0.6908  -17.9005  -48.9314 C.3       0 UNK        -0.1800 
      2 C           1.2727  -16.5588  -49.3310 C.2       0 UNK         0.5000 
      3 O           1.4642  -15.6916  -48.4831 O.2       0 UNK        -0.5000 
      4 N           1.5483  -16.3793  -50.6288 N.am      1 UNK        -0.5000 
      5 CA          2.2557  -15.2315  -51.2118 C.3       1 UNK         0.1400 
      6 C6          3.7489  -15.1846  -50.7703 C.3       23 UNK        -0.0398 
      7 S7          4.7906  -16.4722  -51.5556 S.3       23 UNK        -0.2404 
      8 C8          4.6250  -17.9444  -50.4695 C.3       23 UNK        -0.0205 
      9 C9          3.5383  -18.9565  -50.8586 C.ar      23 UNK        -0.0193 
     10 C10         2.7455  -18.8028  -52.0018 C.ar      23 UNK        -0.1150 
     11 C11         1.6909  -19.6738  -52.2695 C.ar      23 UNK        -0.0193 
     12 C12         1.4797  -20.7714  -51.4334 C.ar      23 UNK        -0.1150 
     13 C13         2.2967  -20.9913  -50.3191 C.ar      23 UNK        -0.0193 
     14 C14         3.3160  -20.0682  -50.0341 C.ar      23 UNK        -0.1150 
     15 C15         2.0647  -22.2646  -49.4994 C.3       23 UNK        -0.0205 
     16 S16         2.7614  -22.2930  -47.8120 S.3       23 UNK        -0.2404 
     17 C17         1.3947  -21.6027  -46.8223 C.3       23 UNK        -0.0398 
     18 CA          0.6152  -22.6789  -46.0166 C.3       11 UNK         0.1400 
     19 N           0.1573  -22.1517  -44.7249 N.am      11 UNK        -0.5000 
     20 C          -0.4562  -22.8474  -43.7547 C.2       10 UNK         0.5000 
     21 O          -0.6378  -24.0639  -43.8058 O.2       10 UNK        -0.5000 
     22 CA         -1.0327  -22.0483  -42.5658 C.3       10 UNK         0.1400 
     23 CB         -0.1451  -22.2064  -41.3235 C.3       10 UNK        -0.1800 
     24 N          -1.2384  -20.6227  -42.8501 N.am      10 UNK        -0.5000 
     25 C          -2.0769  -20.1426  -43.7817 C.2       9 UNK         0.5000 
     26 O          -2.7826  -20.8559  -44.4939 O.2       9 UNK        -0.5000 
     27 CA         -2.0774  -18.6197  -43.9980 C.3       9 UNK         0.1400 
     28 CB         -3.0034  -17.9352  -42.9832 C.3       9 UNK        -0.1800 
     29 N          -0.7234  -18.0587  -43.9366 N.am      9 UNK        -0.5000 
     30 C           0.2170  -18.3039  -44.8626 C.2       8 UNK         0.5000 
     31 O          -0.0088  -18.9280  -45.8980 O.2       8 UNK        -0.5000 
     32 CA          1.6652  -17.8833  -44.5456 C.3       8 UNK         0.1400 
     33 CB          1.9744  -16.4512  -44.9891 C.3       8 UNK        -0.1800 
     34 N           1.9831  -18.0299  -43.1286 N.am      8 UNK        -0.5000 
     35 C           2.2131  -19.2073  -42.5340 C.2       7 UNK         0.5000 
     36 O           2.2364  -20.2793  -43.1380 O.2       7 UNK        -0.5000 
     37 CA          2.4350  -19.1922  -41.0090 C.3       7 UNK         0.1400 
     38 CB          3.9367  -19.1825  -40.6868 C.3       7 UNK        -0.1800 
     39 N           1.7940  -18.0646  -40.3292 N.am      7 UNK        -0.5000 
     40 C           0.4735  -17.8455  -40.2639 C.2       6 UNK         0.5000 
     41 O          -0.3601  -18.5900  -40.7844 O.2       6 UNK        -0.5000 
     42 CA          0.0051  -16.5886  -39.4930 C.3       6 UNK         0.1400 
     43 CB          1.1582  -15.6519  -39.0656 C.3       6 UNK        -0.1800 
     44 N          -1.0177  -15.8048  -40.1967 N.am      6 UNK        -0.5000 
     45 C          -0.9608  -15.3299  -41.4487 C.2       5 UNK         0.5000 
     46 O          -0.0656  -15.5978  -42.2530 O.2       5 UNK        -0.5000 
     47 CA         -2.0819  -14.3593  -41.8491 C.3       5 UNK         0.1400 
     48 CB         -1.7489  -12.9286  -41.3889 C.3       5 UNK        -0.1800 
     49 N          -2.2715  -14.3805  -43.2966 N.am      5 UNK        -0.5000 
     50 C          -3.3973  -14.0414  -43.9356 C.2       4 UNK         0.5000 
     51 O          -4.3974  -13.6116  -43.3574 O.2       4 UNK        -0.5000 
     52 CA         -3.4039  -14.2077  -45.4724 C.3       4 UNK         0.1400 
     53 CB         -4.7517  -13.8270  -46.1118 C.3       4 UNK        -0.1800 
     54 N          -2.3444  -13.4306  -46.1182 N.am      4 UNK        -0.5000 
     55 C          -1.0593  -13.7944  -46.1692 C.2       3 UNK         0.5000 
     56 O          -0.6452  -14.8510  -45.6955 O.2       3 UNK        -0.5000 
     57 CA         -0.1021  -12.8336  -46.8898 C.3       3 UNK         0.1400 
     58 CB          1.3411  -12.9384  -46.3672 C.3       3 UNK        -0.1800 
     59 N          -0.1205  -13.1311  -48.3187 N.am      3 UNK        -0.5000 
     60 C          -0.9071  -12.5188  -49.2144 C.2       2 UNK         0.5000 
     61 O          -1.6823  -11.6112  -48.9089 O.2       2 UNK        -0.5000 
     62 CA         -0.8707  -13.0043  -50.6822 C.3       2 UNK         0.1400 
     63 CB         -0.7788  -11.8320  -51.6802 C.3       2 UNK        -0.1800 
     64 N           0.1421  -14.0248  -50.9742 N.am      2 UNK        -0.5000 
     65 C           1.4807  -13.9107  -50.9698 C.2       1 UNK         0.5000 
     66 O           2.0828  -12.8571  -50.7594 O.2       1 UNK        -0.5000 
     67 C          -0.5318  -23.3049  -46.8497 C.2       11 UNK         0.5000 
     68 O          -0.2737  -24.1633  -47.6965 O.2       11 UNK        -0.5000 
     69 N          -1.7895  -22.9193  -46.5694 N.am      12 UNK        -0.5000 
     70 CA         -3.0008  -23.4984  -47.1566 C.3       12 UNK         0.1400 
     71 CB         -4.2296  -22.6950  -46.7091 C.3       12 UNK        -0.1800 
     72 C          -3.1962  -24.9926  -46.8401 C.2       12 UNK         0.5000 
     73 O          -3.9062  -25.6643  -47.5850 O.2       12 UNK        -0.5000 
     74 N          -2.5400  -25.5086  -45.7901 N.am      13 UNK        -0.5000 
     75 CA         -2.4891  -26.9401  -45.4851 C.3       13 UNK         0.1400 
     76 CB         -1.8751  -27.1399  -44.0916 C.3       13 UNK        -0.1800 
     77 C          -1.7092  -27.7538  -46.5395 C.2       13 UNK         0.5000 
     78 O          -1.9879  -28.9417  -46.7064 O.2       13 UNK        -0.5000 
     79 N          -0.7607  -27.1060  -47.2311 N.am      14 UNK        -0.5000 
     80 CA          0.0338  -27.6939  -48.3062 C.3       14 UNK         0.1400 
     81 CB          1.4910  -27.2203  -48.1751 C.3       14 UNK        -0.1800 
     82 C          -0.5358  -27.3190  -49.6838 C.2       14 UNK         0.5000 
     83 O          -0.6991  -28.1967  -50.5318 O.2       14 UNK        -0.5000 
     84 N          -0.8187  -26.0246  -49.8886 N.am      15 UNK        -0.5000 
     85 CA         -1.2205  -25.4677  -51.1844 C.3       15 UNK         0.1400 
     86 CB         -0.7793  -23.9991  -51.2429 C.3       15 UNK        -0.1800 
     87 C          -2.7236  -25.5938  -51.5000 C.2       15 UNK         0.5000 
     88 O          -3.1172  -25.3004  -52.6285 O.2       15 UNK        -0.5000 
     89 N          -3.5378  -25.9849  -50.5088 N.am      16 UNK        -0.5000 
     90 CA         -4.9973  -26.1690  -50.5581 C.3       16 UNK         0.1400 
     91 CB         -5.3962  -27.2106  -51.6249 C.3       16 UNK        -0.1800 
     92 C          -5.8137  -24.8621  -50.6847 C.2       16 UNK         0.5000 
     93 O          -7.0372  -24.9310  -50.8122 O.2       16 UNK        -0.5000 
     94 N          -5.1482  -23.7018  -50.6189 N.am      17 UNK        -0.5000 
     95 CA         -5.7479  -22.3679  -50.6767 C.3       17 UNK         0.1400 
     96 CB         -6.2839  -22.0545  -52.0869 C.3       17 UNK        -0.1800 
     97 C          -4.7284  -21.3074  -50.2451 C.2       17 UNK         0.5000 
     98 O          -5.0632  -20.4360  -49.4425 O.2       17 UNK        -0.5000 
     99 N          -3.5000  -21.4099  -50.7792 N.am      18 UNK        -0.5000 
    100 CA        -2.3729  -20.4997  -50.5474 C.3       18 UNK         0.1400 
    101 CB        -1.8150  -20.6815  -49.1224 C.3       18 UNK        -0.1800 
    102 C         -2.7369  -19.0466  -50.9046 C.2       18 UNK         0.5000 
    103 O         -3.1115  -18.8022  -52.0520 O.2       18 UNK        -0.5000 
    104 N         -2.6630  -18.1220  -49.9353 N.am      19 UNK        -0.5000 
    105 CA        -2.9510  -16.6919  -50.0918 C.3       19 UNK         0.1400 
    106 CB        -2.7273  -15.9745  -48.7511 C.3       19 UNK        -0.1800 
    107 C         -4.3574  -16.3712  -50.6353 C.2       19 UNK         0.5000 
    108 O         -4.5295  -15.3266  -51.2626 O.2       19 UNK        -0.5000 
    109 N         -5.3224  -17.2800  -50.4321 N.am      20 UNK        -0.5000 
    110 CA        -6.6671  -17.1916  -51.0042 C.3       20 UNK         0.1400 
    111 CB        -7.5751  -18.2245  -50.3194 C.3       20 UNK        -0.1800 
    112 C         -6.6968  -17.3760  -52.5369 C.2       20 UNK         0.5000 
    113 O         -7.6524  -16.9271  -53.1712 O.2       20 UNK        -0.5000 
    114 N         -5.6669  -18.0224  -53.1012 N.am      21 UNK        -0.5000 
    115 CA        -5.4989  -18.2407  -54.5350 C.3       21 UNK         0.1400 
    116 CB        -5.1744  -19.7213  -54.7929 C.3       21 UNK        -0.1800 
    117 C         -4.3995  -17.3334  -55.1090 C.2       21 UNK         0.5000 
    118 O         -4.6500  -16.6435  -56.0983 O.2       21 UNK        -0.5000 
    119 N         -3.2062  -17.3549  -54.4983 N.am      22 UNK        -0.5000 
    120 CA        -2.0133  -16.6391  -54.9854 C.3       22 UNK         0.1400 
    121 C         -1.8219  -15.2018  -54.4180 C.2       22 UNK         0.5000 
    122 N         -2.6783  -14.7061  -53.5343 N.am      22 UNK        -0.7600 
    123 O         -0.8877  -14.5071  -54.8079 O.2       22 UNK        -0.5000 
    124 C124       -0.7319  -17.5084  -54.8836 C.3       23 UNK        -0.0398 
    125 S125       -0.1790  -17.8714  -53.1839 S.3       23 UNK        -0.2404 
    126 C126        0.7817  -19.3957  -53.4555 C.3       23 UNK        -0.0205 
    127 H127        0.4128  -18.4815  -49.8096 H         1 UNK         0.0600 
    128 H128       -0.1920  -17.7636  -48.3099 H         1 UNK         0.0600 
    129 H129        1.4222  -18.4703  -48.3587 H         1 UNK         0.0600 
    130 H130        1.3536  -17.1337  -51.2745 H         1 UNK         0.3000 
    131 H131        2.2334  -15.3757  -52.2932 H         1 UNK         0.0600 
    132 H132        3.8472  -15.2369  -49.6854 H         1 UNK         0.0800 
    133 H133        4.1994  -14.2337  -51.0580 H         1 UNK         0.0800 
    134 H134        4.4565  -17.6140  -49.4437 H         1 UNK         0.0800 
    135 H135        5.5830  -18.4657  -50.4694 H         1 UNK         0.0800 
    136 H136        2.8985  -17.9716  -52.6733 H         1 UNK         0.1150 
    137 H137        0.6840  -21.4659  -51.6596 H         1 UNK         0.1150 
    138 H138        3.9495  -20.2103  -49.1708 H         1 UNK         0.1150 
    139 H139        0.9963  -22.4683  -49.4344 H         1 UNK         0.0800 
    140 H140        2.4999  -23.0982  -50.0517 H         1 UNK         0.0800 
    141 H141        0.7356  -20.9990  -47.4478 H         1 UNK         0.0800 
    142 H142        1.8658  -20.8976  -46.1362 H         1 UNK         0.0800 
    143 H143        1.3009  -23.4932  -45.7735 H         1 UNK         0.0600 
    144 H144        0.2731  -21.1575  -44.5845 H         1 UNK         0.3000 
    145 H145       -2.0114  -22.4742  -42.3357 H         1 UNK         0.0600 
    146 H146       -0.5099  -21.6046  -40.4908 H         1 UNK         0.0600 
    147 H147       -0.1279  -23.2454  -40.9923 H         1 UNK         0.0600 
    148 H148        0.8847  -21.9178  -41.5271 H         1 UNK         0.0600 
    149 H149       -0.7323  -19.9599  -42.2718 H         1 UNK         0.3000 
    150 H150       -2.4789  -18.4300  -44.9959 H         1 UNK         0.0600 
    151 H151       -3.9889  -18.4029  -42.9778 H         1 UNK         0.0600 
    152 H152       -3.1542  -16.8897  -43.2357 H         1 UNK         0.0600 
    153 H153       -2.6127  -17.9885  -41.9677 H         1 UNK         0.0600 
    154 H154       -0.4691  -17.5296  -43.1110 H         1 UNK         0.3000 
    155 H155        2.3208  -18.5439  -45.1172 H         1 UNK         0.0600 
    156 H156        1.4501  -15.7138  -44.3830 H         1 UNK         0.0600 
    157 H157        1.6749  -16.3000  -46.0242 H         1 UNK         0.0600 
    158 H158        3.0413  -16.2389  -44.9240 H         1 UNK         0.0600 
    159 H159        1.9327  -17.1945  -42.5621 H         1 UNK         0.3000 
    160 H160        2.0073  -20.1091  -40.6016 H         1 UNK         0.0600 
    161 H161        4.4195  -18.2725  -41.0454 H         1 UNK         0.0600 
    162 H162        4.4419  -20.0285  -41.1548 H         1 UNK         0.0600 
    163 H163        4.1111  -19.2558  -39.6131 H         1 UNK         0.0600 
    164 H164        2.4105  -17.4024  -39.8809 H         1 UNK         0.3000 
    165 H165       -0.4695  -16.9612  -38.5843 H         1 UNK         0.0600 
    166 H166        0.7769  -14.7974  -38.5062 H         1 UNK         0.0600 
    167 H167        1.8689  -16.1607  -38.4132 H         1 UNK         0.0600 
    168 H168        1.7054  -15.2618  -39.9251 H         1 UNK         0.0600 
    169 H169       -1.8198  -15.5573  -39.6346 H         1 UNK         0.3000 
    170 H170       -3.0037  -14.6907  -41.3660 H         1 UNK         0.0600 
    171 H171       -1.5854  -12.8892  -40.3113 H         1 UNK         0.0600 
    172 H172       -0.8457  -12.5545  -41.8726 H         1 UNK         0.0600 
    173 H173       -2.5609  -12.2381  -41.6172 H         1 UNK         0.0600 
    174 H174       -1.4841  -14.7369  -43.8339 H         1 UNK         0.3000 
    175 H175       -3.2369  -15.2679  -45.6745 H         1 UNK         0.0600 
    176 H176       -4.9894  -12.7742  -45.9543 H         1 UNK         0.0600 
    177 H177       -4.7456  -14.0116  -47.1861 H         1 UNK         0.0600 
    178 H178       -5.5663  -14.4162  -45.6888 H         1 UNK         0.0600 
    179 H179       -2.6178  -12.5514  -46.5348 H         1 UNK         0.3000 
    180 H180       -0.4393  -11.8114  -46.7058 H         1 UNK         0.0600 
    181 H181        1.7714  -13.9225  -46.5487 H         1 UNK         0.0600 
    182 H182        1.3807  -12.7573  -45.2925 H         1 UNK         0.0600 
    183 H183        1.9855  -12.2022  -46.8475 H         1 UNK         0.0600 
    184 H184        0.4565  -13.9144  -48.6088 H         1 UNK         0.3000 
    185 H185       -1.8310  -13.4946  -50.8479 H         1 UNK         0.0600 
    186 H186       -1.6391  -11.1686  -51.5852 H         1 UNK         0.0600 
    187 H187        0.1144  -11.2289  -51.5164 H         1 UNK         0.0600 
    188 H188       -0.7577  -12.1894  -52.7099 H         1 UNK         0.0600 
    189 H189       -0.2217  -14.9494  -51.1538 H         1 UNK         0.3000 
    190 H190       -1.9390  -22.2142  -45.8551 H         1 UNK         0.3000 
    191 H191       -2.9176  -23.4125  -48.2411 H         1 UNK         0.0600 
    192 H192       -4.3885  -22.7724  -45.6329 H         1 UNK         0.0600 
    193 H193       -5.1333  -23.0560  -47.2020 H         1 UNK         0.0600 
    194 H194       -4.1278  -21.6386  -46.9563 H         1 UNK         0.0600 
    195 H195       -1.9700  -24.9017  -45.2108 H         1 UNK         0.3000 
    196 H196       -3.5131  -27.3192  -45.4642 H         1 UNK         0.0600 
    197 H197       -1.8838  -28.1932  -43.8087 H         1 UNK         0.0600 
    198 H198       -2.4334  -26.5937  -43.3310 H         1 UNK         0.0600 
    199 H199       -0.8395  -26.7996  -44.0566 H         1 UNK         0.0600 
    200 H200       -0.6179  -26.1185  -47.0576 H         1 UNK         0.3000 
    201 H201        0.0308  -28.7831  -48.2264 H         1 UNK         0.0600 
    202 H202        1.9197  -27.5319  -47.2226 H         1 UNK         0.0600 
    203 H203        1.5763  -26.1347  -48.2390 H         1 UNK         0.0600 
    204 H204        2.1116  -27.6450  -48.9651 H         1 UNK         0.0600 
    205 H205       -0.6349  -25.3593  -49.1423 H         1 UNK         0.3000 
    206 H206       -0.6902  -26.0009  -51.9765 H         1 UNK         0.0600 
    207 H207        0.3057  -23.9237  -51.1844 H         1 UNK         0.0600 
    208 H208       -1.0825  -23.5254  -52.1776 H         1 UNK         0.0600 
    209 H209       -1.2064  -23.4243  -50.4237 H         1 UNK         0.0600 
    210 H210       -3.1271  -26.1626  -49.6006 H         1 UNK         0.3000 
    211 H211       -5.2740  -26.5920  -49.5921 H         1 UNK         0.0600 
    212 H212       -5.2512  -26.8346  -52.6378 H         1 UNK         0.0600 
    213 H213       -6.4479  -27.4829  -51.5300 H         1 UNK         0.0600 
    214 H214       -4.8153  -28.1268  -51.5187 H         1 UNK         0.0600 
    215 H215       -4.1526  -23.7399  -50.4638 H         1 UNK         0.3000 
    216 H216       -6.5779  -22.3311  -49.9680 H         1 UNK         0.0600 
    217 H217       -6.6408  -21.0260  -52.1524 H         1 UNK         0.0600 
    218 H218       -7.1216  -22.7000  -52.3496 H         1 UNK         0.0600 
    219 H219       -5.5128  -22.1852  -52.8468 H         1 UNK         0.0600 
    220 H220       -3.3594  -22.0908  -51.5112 H         1 UNK         0.3000 
    221 H221       -1.5900  -20.7875  -51.2494 H         1 UNK         0.0600 
    222 H222       -2.5538  -20.4679  -48.3502 H         1 UNK         0.0600 
    223 H223       -1.4718  -21.7014  -48.9864 H         1 UNK         0.0600 
    224 H224       -0.9515  -20.0485  -48.9396 H         1 UNK         0.0600 
    225 H225       -2.3985  -18.4260  -49.0100 H         1 UNK         0.3000 
    226 H226       -2.2348  -16.2968  -50.8149 H         1 UNK         0.0600 
    227 H227       -1.6870  -16.0252  -48.4338 H         1 UNK         0.0600 
    228 H228       -2.9824  -14.9165  -48.8239 H         1 UNK         0.0600 
    229 H229       -3.3418  -16.4040  -47.9594 H         1 UNK         0.0600 
    230 H230       -5.0987  -18.1276  -49.9252 H         1 UNK         0.3000 
    231 H231       -7.0617  -16.1969  -50.7865 H         1 UNK         0.0600 
    232 H232       -7.5893  -18.0844  -49.2384 H         1 UNK         0.0600 
    233 H233       -7.2491  -19.2445  -50.5212 H         1 UNK         0.0600 
    234 H234       -8.6032  -18.1346  -50.6723 H         1 UNK         0.0600 
    235 H235       -4.8928  -18.3212  -52.5158 H         1 UNK         0.3000 
    236 H236       -6.4239  -18.0110  -55.0680 H         1 UNK         0.0600 
    237 H237       -4.9668  -19.8989  -55.8489 H         1 UNK         0.0600 
    238 H238       -4.3045  -20.0546  -54.2257 H         1 UNK         0.0600 
    239 H239       -6.0167  -20.3560  -54.5202 H         1 UNK         0.0600 
    240 H240       -3.0768  -17.9253  -53.6655 H         1 UNK         0.3000 
    241 H241       -2.1500  -16.4732  -56.0555 H         1 UNK         0.0600 
    242 H242       -2.5552  -13.7592  -53.2189 H         1 UNK         0.3800 
    243 H243       -3.4596  -15.2450  -53.1891 H         1 UNK         0.3800 
    244 H244        0.0929  -17.0260  -55.4108 H         1 UNK         0.0800 
    245 H245       -0.9007  -18.4518  -55.4046 H         1 UNK         0.0800 
    246 H246        0.0977  -20.2273  -53.6318 H         1 UNK         0.0800 
    247 H247        1.3919  -19.2924  -54.3542 H         1 UNK         0.0800 
@<TRIPOS>BOND
     1    1    2 1    
     2    1  127 1    
     3    1  128 1    
     4    1  129 1    
     5    2    3 2    
     6    2    4 am   BACKBONE|DICT|INTERRES
     7    4    5 1    
     8    4  130 1    
     9    5    6 1    
    10    5   65 1    
    11    5  131 1    
    12    6    7 1    
    13    6  132 1    
    14    6  133 1    
    15    7    8 1    
    16    8    9 1    
    17    8  134 1    
    18    8  135 1    
    19    9   10 ar   
    20    9   14 ar   
    21   10   11 ar   
    22   10  136 1    
    23   11   12 ar   
    24   11  126 1    
    25   12   13 ar   
    26   12  137 1    
    27   13   14 ar   
    28   13   15 1    
    29   14  138 1    
    30   15   16 1    
    31   15  139 1    
    32   15  140 1    
    33   16   17 1    
    34   17   18 1    
    35   17  141 1    
    36   17  142 1    
    37   18   19 1    
    38   18   67 1    
    39   18  143 1    
    40   19   20 am   BACKBONE|DICT|INTERRES
    41   19  144 1    
    42   20   21 2    
    43   20   22 1    
    44   22   23 1    
    45   22   24 1    
    46   22  145 1    
    47   23  146 1    
    48   23  147 1    
    49   23  148 1    
    50   24   25 am   BACKBONE|DICT|INTERRES
    51   24  149 1    
    52   25   26 2    
    53   25   27 1    
    54   27   28 1    
    55   27   29 1    
    56   27  150 1    
    57   28  151 1    
    58   28  152 1    
    59   28  153 1    
    60   29   30 am   BACKBONE|DICT|INTERRES
    61   29  154 1    
    62   30   31 2    
    63   30   32 1    
    64   32   33 1    
    65   32   34 1    
    66   32  155 1    
    67   33  156 1    
    68   33  157 1    
    69   33  158 1    
    70   34   35 am   BACKBONE|DICT|INTERRES
    71   34  159 1    
    72   35   36 2    
    73   35   37 1    
    74   37   38 1    
    75   37   39 1    
    76   37  160 1    
    77   38  161 1    
    78   38  162 1    
    79   38  163 1    
    80   39   40 am   BACKBONE|DICT|INTERRES
    81   39  164 1    
    82   40   41 2    
    83   40   42 1    
    84   42   43 1    
    85   42   44 1    
    86   42  165 1    
    87   43  166 1    
    88   43  167 1    
    89   43  168 1    
    90   44   45 am   BACKBONE|DICT|INTERRES
    91   44  169 1    
    92   45   46 2    
    93   45   47 1    
    94   47   48 1    
    95   47   49 1    
    96   47  170 1    
    97   48  171 1    
    98   48  172 1    
    99   48  173 1    
   100   49   50 am   BACKBONE|DICT|INTERRES
   101   49  174 1    
   102   50   51 2    
   103   50   52 1    
   104   52   53 1    
   105   52   54 1    
   106   52  175 1    
   107   53  176 1    
   108   53  177 1    
   109   53  178 1    
   110   54   55 am   BACKBONE|DICT|INTERRES
   111   54  179 1    
   112   55   56 2    
   113   55   57 1    
   114   57   58 1    
   115   57   59 1    
   116   57  180 1    
   117   58  181 1    
   118   58  182 1    
   119   58  183 1    
   120   59   60 am   BACKBONE|DICT|INTERRES
   121   59  184 1    
   122   60   61 2    
   123   60   62 1    
   124   62   63 1    
   125   62   64 1    
   126   62  185 1    
   127   63  186 1    
   128   63  187 1    
   129   63  188 1    
   130   64   65 am   BACKBONE|DICT|INTERRES
   131   64  189 1    
   132   65   66 2    
   133   67   68 2    
   134   67   69 am   BACKBONE|DICT|INTERRES
   135   69   70 1    
   136   69  190 1    
   137   70   71 1    
   138   70   72 1    
   139   70  191 1    
   140   71  192 1    
   141   71  193 1    
   142   71  194 1    
   143   72   73 2    
   144   72   74 am   BACKBONE|DICT|INTERRES
   145   74   75 1    
   146   74  195 1    
   147   75   76 1    
   148   75   77 1    
   149   75  196 1    
   150   76  197 1    
   151   76  198 1    
   152   76  199 1    
   153   77   78 2    
   154   77   79 am   BACKBONE|DICT|INTERRES
   155   79   80 1    
   156   79  200 1    
   157   80   81 1    
   158   80   82 1    
   159   80  201 1    
   160   81  202 1    
   161   81  203 1    
   162   81  204 1    
   163   82   83 2    
   164   82   84 am   BACKBONE|DICT|INTERRES
   165   84   85 1    
   166   84  205 1    
   167   85   86 1    
   168   85   87 1    
   169   85  206 1    
   170   86  207 1    
   171   86  208 1    
   172   86  209 1    
   173   87   88 2    
   174   87   89 am   BACKBONE|DICT|INTERRES
   175   89   90 1    
   176   89  210 1    
   177   90   91 1    
   178   90   92 1    
   179   90  211 1    
   180   91  212 1    
   181   91  213 1    
   182   91  214 1    
   183   92   93 2    
   184   92   94 am   BACKBONE|DICT|INTERRES
   185   94   95 1    
   186   94  215 1    
   187   95   96 1    
   188   95   97 1    
   189   95  216 1    
   190   96  217 1    
   191   96  218 1    
   192   96  219 1    
   193   97   98 2    
   194   97   99 am   BACKBONE|DICT|INTERRES
   195   99  100 1    
   196   99  220 1    
   197  100  101 1    
   198  100  102 1    
   199  100  221 1    
   200  101  222 1    
   201  101  223 1    
   202  101  224 1    
   203  102  103 2    
   204  102  104 am   BACKBONE|DICT|INTERRES
   205  104  105 1    
   206  104  225 1    
   207  105  106 1    
   208  105  107 1    
   209  105  226 1    
   210  106  227 1    
   211  106  228 1    
   212  106  229 1    
   213  107  108 2    
   214  107  109 am   BACKBONE|DICT|INTERRES
   215  109  110 1    
   216  109  230 1    
   217  110  111 1    
   218  110  112 1    
   219  110  231 1    
   220  111  232 1    
   221  111  233 1    
   222  111  234 1    
   223  112  113 2    
   224  112  114 am   BACKBONE|DICT|INTERRES
   225  114  115 1    
   226  114  235 1    
   227  115  116 1    
   228  115  117 1    
   229  115  236 1    
   230  116  237 1    
   231  116  238 1    
   232  116  239 1    
   233  117  118 2    
   234  117  119 am   BACKBONE|DICT|INTERRES
   235  119  120 1    
   236  119  240 1    
   237  120  121 1    
   238  120  124 1    
   239  120  241 1    
   240  121  122 am   BACKBONE|DICT|INTERRES
   241  121  123 2    
   242  122  242 1    
   243  122  243 1    
   244  124  125 1    
   245  124  244 1    
   246  124  245 1    
   247  125  126 1    
   248  126  246 1    
   249  126  247 1    
@<TRIPOS>SUBSTRUCTURE
     1 UNK         1 GROUP             0       ****    0 ROOT    
