@<TRIPOS>MOLECULE
3R540
247   249    1
SMALL
USER_CHARGES


@<TRIPOS>ATOM
      1 CA         -3.4079  -15.6508  -48.3392 C.3       0 UNK        -0.1800 
      2 C          -1.9969  -15.0918  -48.2290 C.2       0 UNK         0.5000 
      3 O          -1.3066  -15.3641  -47.2483 O.2       0 UNK        -0.5000 
      4 N          -1.5758  -14.3023  -49.2262 N.am      1 UNK        -0.5000 
      5 CA         -0.2643  -13.6511  -49.3730 C.3       1 UNK         0.1400 
      6 C6          0.9515  -14.6207  -49.3637 C.3       23 UNK        -0.0398 
      7 S7          0.7914  -15.9761  -50.5664 S.3       23 UNK        -0.2404 
      8 C8          2.5284  -16.4594  -50.7834 C.3       23 UNK        -0.0205 
      9 C9          2.6073  -17.8086  -51.4746 C.ar      23 UNK        -0.0193 
     10 C10         2.7054  -17.8909  -52.8640 C.ar      23 UNK        -0.1150 
     11 C11         2.7022  -19.1340  -53.5026 C.ar      23 UNK        -0.0193 
     12 C12         2.6309  -20.2995  -52.7298 C.ar      23 UNK        -0.1150 
     13 C13         2.5693  -20.2377  -51.3314 C.ar      23 UNK        -0.0193 
     14 C14         2.5536  -18.9787  -50.7166 C.ar      23 UNK        -0.1150 
     15 C15         2.5239  -21.5509  -50.5393 C.3       23 UNK        -0.0205 
     16 S16         2.6576  -21.4086  -48.7166 S.3       23 UNK        -0.2404 
     17 C17         1.0036  -20.7747  -48.2819 C.3       23 UNK        -0.0398 
     18 CA          0.1821  -21.7990  -47.4623 C.3       11 UNK         0.1400 
     19 N           0.5231  -21.8077  -46.0361 N.am      11 UNK        -0.5000 
     20 C           0.0173  -22.6708  -45.1409 C.2       10 UNK         0.5000 
     21 O          -0.7261  -23.6075  -45.4340 O.2       10 UNK        -0.5000 
     22 CA          0.3412  -22.4105  -43.6598 C.3       10 UNK         0.1400 
     23 CB          1.7518  -22.9047  -43.3069 C.3       10 UNK        -0.1800 
     24 N           0.1967  -21.0006  -43.2958 N.am      10 UNK        -0.5000 
     25 C          -0.9550  -20.3150  -43.3516 C.2       9 UNK         0.5000 
     26 O          -2.0345  -20.8150  -43.6662 O.2       9 UNK        -0.5000 
     27 CA         -0.8842  -18.8079  -43.0470 C.3       9 UNK         0.1400 
     28 CB         -0.8453  -18.5682  -41.5311 C.3       9 UNK        -0.1800 
     29 N           0.2633  -18.1578  -43.6807 N.am      9 UNK        -0.5000 
     30 C           0.4741  -18.1004  -45.0042 C.2       8 UNK         0.5000 
     31 O          -0.3052  -18.5504  -45.8424 O.2       8 UNK        -0.5000 
     32 CA          1.8150  -17.5049  -45.4656 C.3       8 UNK         0.1400 
     33 CB          1.7848  -15.9737  -45.4421 C.3       8 UNK        -0.1800 
     34 N           2.9281  -17.9742  -44.6454 N.am      8 UNK        -0.5000 
     35 C           3.3743  -19.2365  -44.6261 C.2       7 UNK         0.5000 
     36 O           2.9162  -20.1364  -45.3301 O.2       7 UNK        -0.5000 
     37 CA          4.4901  -19.5453  -43.6122 C.3       7 UNK         0.1400 
     38 CB          5.8614  -19.1378  -44.1714 C.3       7 UNK        -0.1800 
     39 N           4.2708  -18.8820  -42.3239 N.am      7 UNK        -0.5000 
     40 C           3.2732  -19.1908  -41.4837 C.2       6 UNK         0.5000 
     41 O           2.4475  -20.0759  -41.7033 O.2       6 UNK        -0.5000 
     42 CA          3.1564  -18.3522  -40.1983 C.3       6 UNK         0.1400 
     43 CB          4.0802  -18.9098  -39.1052 C.3       6 UNK        -0.1800 
     44 N           3.4344  -16.9257  -40.3892 N.am      6 UNK        -0.5000 
     45 C           2.7167  -16.1070  -41.1690 C.2       5 UNK         0.5000 
     46 O           1.7999  -16.4869  -41.9009 O.2       5 UNK        -0.5000 
     47 CA          3.1107  -14.6210  -41.1526 C.3       5 UNK         0.1400 
     48 CB          3.9990  -14.2867  -42.3606 C.3       5 UNK        -0.1800 
     49 N           1.9162  -13.7811  -41.1890 N.am      5 UNK        -0.5000 
     50 C           1.1445  -13.5043  -40.1263 C.2       4 UNK         0.5000 
     51 O           1.4290  -13.8334  -38.9739 O.2       4 UNK        -0.5000 
     52 CA         -0.1735  -12.7445  -40.3918 C.3       4 UNK         0.1400 
     53 CB          0.0440  -11.2280  -40.2787 C.3       4 UNK        -0.1800 
     54 N          -0.7161  -13.0510  -41.7141 N.am      4 UNK        -0.5000 
     55 C          -1.2663  -14.2232  -42.0501 C.2       3 UNK         0.5000 
     56 O          -1.6380  -15.0470  -41.2143 O.2       3 UNK        -0.5000 
     57 CA         -1.4016  -14.5558  -43.5562 C.3       3 UNK         0.1400 
     58 CB         -2.8096  -15.0763  -43.8961 C.3       3 UNK        -0.1800 
     59 N          -1.0499  -13.4940  -44.5130 N.am      3 UNK        -0.5000 
     60 C           0.1437  -12.9030  -44.6704 C.2       2 UNK         0.5000 
     61 O           1.0950  -13.0745  -43.9074 O.2       2 UNK        -0.5000 
     62 CA          0.3024  -12.0244  -45.9201 C.3       2 UNK         0.1400 
     63 CB          1.7032  -11.3798  -46.0121 C.3       2 UNK        -0.1800 
     64 N           0.0397  -12.8756  -47.0756 N.am      2 UNK        -0.5000 
     65 C          -0.0666  -12.5084  -48.3555 C.2       1 UNK         0.5000 
     66 O          -0.0181  -11.3414  -48.7462 O.2       1 UNK        -0.5000 
     67 C          -1.3250  -21.5806  -47.6823 C.2       11 UNK         0.5000 
     68 O          -1.9284  -22.3611  -48.4119 O.2       11 UNK        -0.5000 
     69 N          -1.9110  -20.5616  -47.0378 N.am      12 UNK        -0.5000 
     70 CA         -3.3369  -20.2341  -47.1184 C.3       12 UNK         0.1400 
     71 CB         -3.6181  -18.9558  -46.3133 C.3       12 UNK        -0.1800 
     72 C          -4.2492  -21.3874  -46.6597 C.2       12 UNK         0.5000 
     73 O          -5.2126  -21.7144  -47.3560 O.2       12 UNK        -0.5000 
     74 N          -3.9019  -22.0042  -45.5216 N.am      13 UNK        -0.5000 
     75 CA         -4.5961  -23.1566  -44.9485 C.3       13 UNK         0.1400 
     76 CB         -4.0337  -23.4480  -43.5489 C.3       13 UNK        -0.1800 
     77 C          -4.5188  -24.4113  -45.8367 C.2       13 UNK         0.5000 
     78 O          -5.5241  -25.1073  -45.9850 O.2       13 UNK        -0.5000 
     79 N          -3.3396  -24.6712  -46.4183 N.am      14 UNK        -0.5000 
     80 CA         -3.1103  -25.7746  -47.3511 C.3       14 UNK         0.1400 
     81 CB         -1.5995  -25.9766  -47.5446 C.3       14 UNK        -0.1800 
     82 C          -3.8057  -25.5554  -48.7068 C.2       14 UNK         0.5000 
     83 O          -4.3614  -26.5027  -49.2644 O.2       14 UNK        -0.5000 
     84 N          -3.7531  -24.3156  -49.2095 N.am      15 UNK        -0.5000 
     85 CA         -4.3159  -23.9000  -50.4895 C.3       15 UNK         0.1400 
     86 CB         -3.8321  -22.4789  -50.8245 C.3       15 UNK        -0.1800 
     87 C          -5.8472  -23.9340  -50.5177 C.2       15 UNK         0.5000 
     88 O          -6.4240  -24.4080  -51.4971 O.2       15 UNK        -0.5000 
     89 N          -6.4740  -23.3595  -49.4777 N.am      16 UNK        -0.5000 
     90 CA         -7.9217  -23.1442  -49.3374 C.3       16 UNK         0.1400 
     91 CB         -8.6392  -24.4880  -49.0975 C.3       16 UNK        -0.1800 
     92 C          -8.5377  -22.3405  -50.5097 C.2       16 UNK         0.5000 
     93 O          -9.7158  -22.5111  -50.8258 O.2       16 UNK        -0.5000 
     94 N          -7.7033  -21.5054  -51.1501 N.am      17 UNK        -0.5000 
     95 CA         -7.9423  -20.7312  -52.3731 C.3       17 UNK         0.1400 
     96 CB         -9.0590  -19.6891  -52.1540 C.3       17 UNK        -0.1800 
     97 C          -8.1722  -21.5806  -53.6469 C.2       17 UNK         0.5000 
     98 O          -8.5857  -21.0228  -54.6650 O.2       17 UNK        -0.5000 
     99 N          -7.8975  -22.8937  -53.5998 N.am      18 UNK        -0.5000 
    100 CA        -8.0583  -23.8033  -54.7370 C.3       18 UNK         0.1400 
    101 CB        -8.2744  -25.2368  -54.2264 C.3       18 UNK        -0.1800 
    102 C         -6.8584  -23.7371  -55.6980 C.2       18 UNK         0.5000 
    103 O         -7.0511  -23.6484  -56.9113 O.2       18 UNK        -0.5000 
    104 N         -5.6461  -23.7631  -55.1356 N.am      19 UNK        -0.5000 
    105 CA        -4.3631  -23.6661  -55.8261 C.3       19 UNK         0.1400 
    106 CB        -4.0341  -24.9870  -56.5458 C.3       19 UNK        -0.1800 
    107 C         -3.2976  -23.3355  -54.7736 C.2       19 UNK         0.5000 
    108 O         -3.4580  -23.7431  -53.6236 O.2       19 UNK        -0.5000 
    109 N         -2.2435  -22.6150  -55.1802 N.am      20 UNK        -0.5000 
    110 CA        -1.2217  -21.9885  -54.3259 C.3       20 UNK         0.1400 
    111 CB        -0.4772  -23.0264  -53.4555 C.3       20 UNK        -0.1800 
    112 C         -1.7922  -20.8047  -53.5102 C.2       20 UNK         0.5000 
    113 O         -2.9089  -20.3583  -53.7854 O.2       20 UNK        -0.5000 
    114 N         -0.9911  -20.2786  -52.5669 N.am      21 UNK        -0.5000 
    115 CA        -1.2230  -19.0336  -51.8141 C.3       21 UNK         0.1400 
    116 CB        -2.3893  -19.1898  -50.8202 C.3       21 UNK        -0.1800 
    117 C         -1.3839  -17.8365  -52.7749 C.2       21 UNK         0.5000 
    118 O         -2.4078  -17.1516  -52.7810 O.2       21 UNK        -0.5000 
    119 N         -0.3679  -17.6893  -53.6303 N.am      22 UNK        -0.5000 
    120 CA        -0.3588  -16.9006  -54.8688 C.3       22 UNK         0.1400 
    121 C         -0.4576  -15.3556  -54.7073 C.2       22 UNK         0.5000 
    122 N         -0.2925  -14.7946  -53.5172 N.am      22 UNK        -0.7600 
    123 O         -0.6870  -14.6519  -55.6872 O.2       22 UNK        -0.5000 
    124 C124        0.8523  -17.2785  -55.7681 C.3       23 UNK        -0.0398 
    125 S125        1.1934  -19.0784  -55.8622 S.3       23 UNK        -0.2404 
    126 C126        2.8090  -19.2175  -55.0216 C.3       23 UNK        -0.0205 
    127 H127       -3.9764  -15.1612  -49.1301 H         1 UNK         0.0600 
    128 H128       -3.9429  -15.5111  -47.3999 H         1 UNK         0.0600 
    129 H129       -3.3714  -16.7174  -48.5568 H         1 UNK         0.0600 
    130 H130       -2.2165  -14.1143  -49.9842 H         1 UNK         0.3000 
    131 H131       -0.2874  -13.1829  -50.3586 H         1 UNK         0.0600 
    132 H132        1.0974  -15.0707  -48.3816 H         1 UNK         0.0800 
    133 H133        1.8668  -14.0685  -49.5847 H         1 UNK         0.0800 
    134 H134        3.0523  -15.6978  -51.3630 H         1 UNK         0.0800 
    135 H135        3.0225  -16.5100  -49.8117 H         1 UNK         0.0800 
    136 H136        2.7669  -16.9818  -53.4439 H         1 UNK         0.1150 
    137 H137        2.6439  -21.2630  -53.2205 H         1 UNK         0.1150 
    138 H138        2.4930  -18.8852  -49.6434 H         1 UNK         0.1150 
    139 H139        1.6074  -22.0889  -50.7854 H         1 UNK         0.0800 
    140 H140        3.3470  -22.1816  -50.8784 H         1 UNK         0.0800 
    141 H141        0.4900  -20.5063  -49.2074 H         1 UNK         0.0800 
    142 H142        1.1192  -19.8417  -47.7300 H         1 UNK         0.0800 
    143 H143        0.4018  -22.7975  -47.8471 H         1 UNK         0.0600 
    144 H144        1.1694  -21.0921  -45.7188 H         1 UNK         0.3000 
    145 H145       -0.3735  -22.9793  -43.0613 H         1 UNK         0.0600 
    146 H146        1.8698  -23.9593  -43.5587 H         1 UNK         0.0600 
    147 H147        2.5216  -22.3509  -43.8441 H         1 UNK         0.0600 
    148 H148        1.9494  -22.8013  -42.2399 H         1 UNK         0.0600 
    149 H149        1.0332  -20.5291  -42.9645 H         1 UNK         0.3000 
    150 H150       -1.7872  -18.3400  -43.4442 H         1 UNK         0.0600 
    151 H151       -0.7951  -17.5058  -41.2991 H         1 UNK         0.0600 
    152 H152        0.0161  -19.0479  -41.0673 H         1 UNK         0.0600 
    153 H153       -1.7403  -18.9656  -41.0513 H         1 UNK         0.0600 
    154 H154        0.9380  -17.7210  -43.0577 H         1 UNK         0.3000 
    155 H155        1.9873  -17.8246  -46.4955 H         1 UNK         0.0600 
    156 H156        0.9495  -15.5933  -46.0260 H         1 UNK         0.0600 
    157 H157        2.6973  -15.5492  -45.8606 H         1 UNK         0.0600 
    158 H158        1.6724  -15.5960  -44.4272 H         1 UNK         0.0600 
    159 H159        3.3259  -17.3115  -43.9973 H         1 UNK         0.3000 
    160 H160        4.4977  -20.6245  -43.4440 H         1 UNK         0.0600 
    161 H161        6.0538  -19.6287  -45.1264 H         1 UNK         0.0600 
    162 H162        6.6646  -19.4242  -43.4923 H         1 UNK         0.0600 
    163 H163        5.9282  -18.0616  -44.3360 H         1 UNK         0.0600 
    164 H164        4.9080  -18.1417  -42.0698 H         1 UNK         0.3000 
    165 H165        2.1268  -18.4401  -39.8456 H         1 UNK         0.0600 
    166 H166        3.9301  -18.3900  -38.1587 H         1 UNK         0.0600 
    167 H167        3.8810  -19.9677  -38.9279 H         1 UNK         0.0600 
    168 H168        5.1319  -18.8150  -39.3781 H         1 UNK         0.0600 
    169 H169        4.1821  -16.5381  -39.8319 H         1 UNK         0.3000 
    170 H170        3.6714  -14.4058  -40.2406 H         1 UNK         0.0600 
    171 H171        4.3007  -13.2393  -42.3476 H         1 UNK         0.0600 
    172 H172        4.9091  -14.8878  -42.3570 H         1 UNK         0.0600 
    173 H173        3.4858  -14.4715  -43.3045 H         1 UNK         0.0600 
    174 H174        1.5923  -13.5149  -42.1150 H         1 UNK         0.3000 
    175 H175       -0.8982  -13.0467  -39.6329 H         1 UNK         0.0600 
    176 H176        0.7564  -10.8668  -41.0216 H         1 UNK         0.0600 
    177 H177       -0.8907  -10.6844  -40.4171 H         1 UNK         0.0600 
    178 H178        0.4321  -10.9623  -39.2946 H         1 UNK         0.0600 
    179 H179       -0.4048  -12.4602  -42.4723 H         1 UNK         0.3000 
    180 H180       -0.7036  -15.3763  -43.7326 H         1 UNK         0.0600 
    181 H181       -2.8578  -15.4405  -44.9229 H         1 UNK         0.0600 
    182 H182       -3.5642  -14.2974  -43.7771 H         1 UNK         0.0600 
    183 H183       -3.0916  -15.9108  -43.2527 H         1 UNK         0.0600 
    184 H184       -1.7676  -13.2773  -45.1895 H         1 UNK         0.3000 
    185 H185       -0.4522  -11.2368  -45.8772 H         1 UNK         0.0600 
    186 H186        2.4850  -12.1342  -46.1101 H         1 UNK         0.0600 
    187 H187        1.7822  -10.7037  -46.8629 H         1 UNK         0.0600 
    188 H188        1.9222  -10.7928  -45.1193 H         1 UNK         0.0600 
    189 H189       -0.1345  -13.8556  -46.8642 H         1 UNK         0.3000 
    190 H190       -1.3352  -19.9376  -46.4754 H         1 UNK         0.3000 
    191 H191       -3.5680  -20.0289  -48.1647 H         1 UNK         0.0600 
    192 H192       -3.4426  -19.1021  -45.2476 H         1 UNK         0.0600 
    193 H193       -4.6539  -18.6374  -46.4353 H         1 UNK         0.0600 
    194 H194       -2.9818  -18.1338  -46.6406 H         1 UNK         0.0600 
    195 H195       -3.1100  -21.6443  -44.9939 H         1 UNK         0.3000 
    196 H196       -5.6496  -22.8901  -44.8428 H         1 UNK         0.0600 
    197 H197       -4.5408  -24.2985  -43.0916 H         1 UNK         0.0600 
    198 H198       -4.1680  -22.5936  -42.8853 H         1 UNK         0.0600 
    199 H199       -2.9682  -23.6785  -43.5841 H         1 UNK         0.0600 
    200 H200       -2.5439  -24.0745  -46.2138 H         1 UNK         0.3000 
    201 H201       -3.5190  -26.6858  -46.9093 H         1 UNK         0.0600 
    202 H202       -1.1098  -26.2114  -46.5994 H         1 UNK         0.0600 
    203 H203       -1.1235  -25.0848  -47.9544 H         1 UNK         0.0600 
    204 H204       -1.3992  -26.8015  -48.2294 H         1 UNK         0.0600 
    205 H205       -3.2114  -23.6099  -48.7144 H         1 UNK         0.3000 
    206 H206       -3.9507  -24.5884  -51.2529 H         1 UNK         0.0600 
    207 H207       -4.2927  -22.1045  -51.7395 H         1 UNK         0.0600 
    208 H208       -4.0716  -21.7719  -50.0303 H         1 UNK         0.0600 
    209 H209       -2.7536  -22.4594  -50.9777 H         1 UNK         0.0600 
    210 H210       -5.9050  -22.9608  -48.7349 H         1 UNK         0.3000 
    211 H211       -8.0536  -22.5314  -48.4447 H         1 UNK         0.0600 
    212 H212       -8.5998  -25.1300  -49.9781 H         1 UNK         0.0600 
    213 H213       -9.6901  -24.3340  -48.8506 H         1 UNK         0.0600 
    214 H214       -8.1879  -25.0309  -48.2667 H         1 UNK         0.0600 
    215 H215       -6.7614  -21.4521  -50.7903 H         1 UNK         0.3000 
    216 H216       -7.0180  -20.1809  -52.5548 H         1 UNK         0.0600 
    217 H217       -9.1206  -18.9974  -52.9948 H         1 UNK         0.0600 
    218 H218       -8.8730  -19.0930  -51.2606 H         1 UNK         0.0600 
    219 H219      -10.0372  -20.1583  -52.0477 H         1 UNK         0.0600 
    220 H220       -7.5327  -23.2995  -52.7437 H         1 UNK         0.3000 
    221 H221       -8.9521  -23.5164  -55.2954 H         1 UNK         0.0600 
    222 H222       -7.4059  -25.6115  -53.6841 H         1 UNK         0.0600 
    223 H223       -9.1345  -25.2917  -53.5589 H         1 UNK         0.0600 
    224 H224       -8.4608  -25.9201  -55.0558 H         1 UNK         0.0600 
    225 H225       -5.5615  -23.8262  -54.1276 H         1 UNK         0.3000 
    226 H226       -4.4107  -22.8505  -56.5505 H         1 UNK         0.0600 
    227 H227       -4.7681  -25.2152  -57.3185 H         1 UNK         0.0600 
    228 H228       -3.0594  -24.9346  -57.0322 H         1 UNK         0.0600 
    229 H229       -4.0095  -25.8259  -55.8491 H         1 UNK         0.0600 
    230 H230       -2.2159  -22.3293  -56.1488 H         1 UNK         0.3000 
    231 H231       -0.4926  -21.5579  -55.0133 H         1 UNK         0.0600 
    232 H232       -1.0838  -23.3698  -52.6171 H         1 UNK         0.0600 
    233 H233       -0.1936  -23.9003  -54.0419 H         1 UNK         0.0600 
    234 H234        0.4413  -22.6101  -53.0427 H         1 UNK         0.0600 
    235 H235       -0.0887  -20.7065  -52.4242 H         1 UNK         0.3000 
    236 H236       -0.3222  -18.8463  -51.2289 H         1 UNK         0.0600 
    237 H237       -3.3413  -19.3540  -51.3254 H         1 UNK         0.0600 
    238 H238       -2.2140  -20.0306  -50.1513 H         1 UNK         0.0600 
    239 H239       -2.4933  -18.2976  -50.2027 H         1 UNK         0.0600 
    240 H240        0.4296  -18.2996  -53.5230 H         1 UNK         0.3000 
    241 H241       -1.2611  -17.1941  -55.4084 H         1 UNK         0.0600 
    242 H242       -0.3601  -13.7937  -53.4296 H         1 UNK         0.3800 
    243 H243       -0.1118  -15.3639  -52.7032 H         1 UNK         0.3800 
    244 H244        0.6737  -16.9264  -56.7854 H         1 UNK         0.0800 
    245 H245        1.7530  -16.7595  -55.4403 H         1 UNK         0.0800 
    246 H246        3.4872  -18.4484  -55.3943 H         1 UNK         0.0800 
    247 H247        3.2603  -20.1701  -55.3032 H         1 UNK         0.0800 
@<TRIPOS>BOND
     1    1    2 1    
     2    1  127 1    
     3    1  128 1    
     4    1  129 1    
     5    2    3 2    
     6    2    4 am   BACKBONE|DICT|INTERRES
     7    4    5 1    
     8    4  130 1    
     9    5    6 1    
    10    5   65 1    
    11    5  131 1    
    12    6    7 1    
    13    6  132 1    
    14    6  133 1    
    15    7    8 1    
    16    8    9 1    
    17    8  134 1    
    18    8  135 1    
    19    9   10 ar   
    20    9   14 ar   
    21   10   11 ar   
    22   10  136 1    
    23   11   12 ar   
    24   11  126 1    
    25   12   13 ar   
    26   12  137 1    
    27   13   14 ar   
    28   13   15 1    
    29   14  138 1    
    30   15   16 1    
    31   15  139 1    
    32   15  140 1    
    33   16   17 1    
    34   17   18 1    
    35   17  141 1    
    36   17  142 1    
    37   18   19 1    
    38   18   67 1    
    39   18  143 1    
    40   19   20 am   BACKBONE|DICT|INTERRES
    41   19  144 1    
    42   20   21 2    
    43   20   22 1    
    44   22   23 1    
    45   22   24 1    
    46   22  145 1    
    47   23  146 1    
    48   23  147 1    
    49   23  148 1    
    50   24   25 am   BACKBONE|DICT|INTERRES
    51   24  149 1    
    52   25   26 2    
    53   25   27 1    
    54   27   28 1    
    55   27   29 1    
    56   27  150 1    
    57   28  151 1    
    58   28  152 1    
    59   28  153 1    
    60   29   30 am   BACKBONE|DICT|INTERRES
    61   29  154 1    
    62   30   31 2    
    63   30   32 1    
    64   32   33 1    
    65   32   34 1    
    66   32  155 1    
    67   33  156 1    
    68   33  157 1    
    69   33  158 1    
    70   34   35 am   BACKBONE|DICT|INTERRES
    71   34  159 1    
    72   35   36 2    
    73   35   37 1    
    74   37   38 1    
    75   37   39 1    
    76   37  160 1    
    77   38  161 1    
    78   38  162 1    
    79   38  163 1    
    80   39   40 am   BACKBONE|DICT|INTERRES
    81   39  164 1    
    82   40   41 2    
    83   40   42 1    
    84   42   43 1    
    85   42   44 1    
    86   42  165 1    
    87   43  166 1    
    88   43  167 1    
    89   43  168 1    
    90   44   45 am   BACKBONE|DICT|INTERRES
    91   44  169 1    
    92   45   46 2    
    93   45   47 1    
    94   47   48 1    
    95   47   49 1    
    96   47  170 1    
    97   48  171 1    
    98   48  172 1    
    99   48  173 1    
   100   49   50 am   BACKBONE|DICT|INTERRES
   101   49  174 1    
   102   50   51 2    
   103   50   52 1    
   104   52   53 1    
   105   52   54 1    
   106   52  175 1    
   107   53  176 1    
   108   53  177 1    
   109   53  178 1    
   110   54   55 am   BACKBONE|DICT|INTERRES
   111   54  179 1    
   112   55   56 2    
   113   55   57 1    
   114   57   58 1    
   115   57   59 1    
   116   57  180 1    
   117   58  181 1    
   118   58  182 1    
   119   58  183 1    
   120   59   60 am   BACKBONE|DICT|INTERRES
   121   59  184 1    
   122   60   61 2    
   123   60   62 1    
   124   62   63 1    
   125   62   64 1    
   126   62  185 1    
   127   63  186 1    
   128   63  187 1    
   129   63  188 1    
   130   64   65 am   BACKBONE|DICT|INTERRES
   131   64  189 1    
   132   65   66 2    
   133   67   68 2    
   134   67   69 am   BACKBONE|DICT|INTERRES
   135   69   70 1    
   136   69  190 1    
   137   70   71 1    
   138   70   72 1    
   139   70  191 1    
   140   71  192 1    
   141   71  193 1    
   142   71  194 1    
   143   72   73 2    
   144   72   74 am   BACKBONE|DICT|INTERRES
   145   74   75 1    
   146   74  195 1    
   147   75   76 1    
   148   75   77 1    
   149   75  196 1    
   150   76  197 1    
   151   76  198 1    
   152   76  199 1    
   153   77   78 2    
   154   77   79 am   BACKBONE|DICT|INTERRES
   155   79   80 1    
   156   79  200 1    
   157   80   81 1    
   158   80   82 1    
   159   80  201 1    
   160   81  202 1    
   161   81  203 1    
   162   81  204 1    
   163   82   83 2    
   164   82   84 am   BACKBONE|DICT|INTERRES
   165   84   85 1    
   166   84  205 1    
   167   85   86 1    
   168   85   87 1    
   169   85  206 1    
   170   86  207 1    
   171   86  208 1    
   172   86  209 1    
   173   87   88 2    
   174   87   89 am   BACKBONE|DICT|INTERRES
   175   89   90 1    
   176   89  210 1    
   177   90   91 1    
   178   90   92 1    
   179   90  211 1    
   180   91  212 1    
   181   91  213 1    
   182   91  214 1    
   183   92   93 2    
   184   92   94 am   BACKBONE|DICT|INTERRES
   185   94   95 1    
   186   94  215 1    
   187   95   96 1    
   188   95   97 1    
   189   95  216 1    
   190   96  217 1    
   191   96  218 1    
   192   96  219 1    
   193   97   98 2    
   194   97   99 am   BACKBONE|DICT|INTERRES
   195   99  100 1    
   196   99  220 1    
   197  100  101 1    
   198  100  102 1    
   199  100  221 1    
   200  101  222 1    
   201  101  223 1    
   202  101  224 1    
   203  102  103 2    
   204  102  104 am   BACKBONE|DICT|INTERRES
   205  104  105 1    
   206  104  225 1    
   207  105  106 1    
   208  105  107 1    
   209  105  226 1    
   210  106  227 1    
   211  106  228 1    
   212  106  229 1    
   213  107  108 2    
   214  107  109 am   BACKBONE|DICT|INTERRES
   215  109  110 1    
   216  109  230 1    
   217  110  111 1    
   218  110  112 1    
   219  110  231 1    
   220  111  232 1    
   221  111  233 1    
   222  111  234 1    
   223  112  113 2    
   224  112  114 am   BACKBONE|DICT|INTERRES
   225  114  115 1    
   226  114  235 1    
   227  115  116 1    
   228  115  117 1    
   229  115  236 1    
   230  116  237 1    
   231  116  238 1    
   232  116  239 1    
   233  117  118 2    
   234  117  119 am   BACKBONE|DICT|INTERRES
   235  119  120 1    
   236  119  240 1    
   237  120  121 1    
   238  120  124 1    
   239  120  241 1    
   240  121  122 am   BACKBONE|DICT|INTERRES
   241  121  123 2    
   242  122  242 1    
   243  122  243 1    
   244  124  125 1    
   245  124  244 1    
   246  124  245 1    
   247  125  126 1    
   248  126  246 1    
   249  126  247 1    
@<TRIPOS>SUBSTRUCTURE
     1 UNK         1 GROUP             0       ****    0 ROOT    
