@<TRIPOS>MOLECULE
3R540
247   249    1
SMALL
USER_CHARGES


@<TRIPOS>ATOM
      1 CA          2.1121   -8.0026  -49.8531 C.3       0 UNK        -0.1800 
      2 C           1.5450   -9.3193  -49.3409 C.2       0 UNK         0.5000 
      3 O           0.3808   -9.3716  -48.9435 O.2       0 UNK        -0.5000 
      4 N           2.3638  -10.3785  -49.3404 N.am      1 UNK        -0.5000 
      5 CA          1.9758  -11.7358  -48.9508 C.3       1 UNK         0.1400 
      6 C6          3.2264  -12.6107  -48.6635 C.3       23 UNK        -0.0398 
      7 S7          2.8783  -14.3806  -48.3400 S.3       23 UNK        -0.2404 
      8 C8          3.6542  -15.1392  -49.8010 C.3       23 UNK        -0.0205 
      9 C9          3.0093  -16.4668  -50.1580 C.ar      23 UNK        -0.0193 
     10 C10         2.1669  -16.5588  -51.2691 C.ar      23 UNK        -0.1150 
     11 C11         1.5938  -17.7818  -51.6271 C.ar      23 UNK        -0.0193 
     12 C12         1.8719  -18.9198  -50.8644 C.ar      23 UNK        -0.1150 
     13 C13         2.6985  -18.8370  -49.7383 C.ar      23 UNK        -0.0193 
     14 C14         3.2690  -17.6076  -49.3943 C.ar      23 UNK        -0.1150 
     15 C15         2.9885  -20.0711  -48.8959 C.3       23 UNK        -0.0205 
     16 S16         1.6070  -20.4711  -47.7791 S.3       23 UNK        -0.2404 
     17 C17         0.4982  -21.3919  -48.9024 C.3       23 UNK        -0.0398 
     18 CA         -0.4579  -22.3767  -48.1902 C.3       11 UNK         0.1400 
     19 N           0.2438  -23.2929  -47.2890 N.am      11 UNK        -0.5000 
     20 C          -0.3098  -24.3522  -46.6853 C.2       10 UNK         0.5000 
     21 O          -1.4781  -24.7027  -46.8574 O.2       10 UNK        -0.5000 
     22 CA          0.5677  -25.1110  -45.6722 C.3       10 UNK         0.1400 
     23 CB          1.2813  -26.2836  -46.3594 C.3       10 UNK        -0.1800 
     24 N           1.5589  -24.2769  -44.9790 N.am      10 UNK        -0.5000 
     25 C           1.2778  -23.1890  -44.2485 C.2       9 UNK         0.5000 
     26 O           0.1465  -22.7067  -44.1518 O.2       9 UNK        -0.5000 
     27 CA          2.4581  -22.5034  -43.5414 C.3       9 UNK         0.1400 
     28 CB          3.1052  -21.4659  -44.4682 C.3       9 UNK        -0.1800 
     29 N           1.9988  -21.8452  -42.3178 N.am      9 UNK        -0.5000 
     30 C           1.7284  -22.5007  -41.1793 C.2       8 UNK         0.5000 
     31 O           1.9702  -23.6997  -41.0261 O.2       8 UNK        -0.5000 
     32 CA          1.0426  -21.7253  -40.0312 C.3       8 UNK         0.1400 
     33 CB          1.5995  -22.1134  -38.6449 C.3       8 UNK        -0.1800 
     34 N           1.0111  -20.2674  -40.1964 N.am      8 UNK        -0.5000 
     35 C           2.0474  -19.4184  -40.1911 C.2       7 UNK         0.5000 
     36 O           3.2253  -19.7498  -40.0409 O.2       7 UNK        -0.5000 
     37 CA          1.6938  -17.9351  -40.4120 C.3       7 UNK         0.1400 
     38 CB          2.0476  -17.0946  -39.1753 C.3       7 UNK        -0.1800 
     39 N           2.3577  -17.3669  -41.5845 N.am      7 UNK        -0.5000 
     40 C           2.2775  -17.8434  -42.8335 C.2       6 UNK         0.5000 
     41 O           1.6237  -18.8409  -43.1442 O.2       6 UNK        -0.5000 
     42 CA          3.0015  -17.0134  -43.9080 C.3       6 UNK         0.1400 
     43 CB          3.3371  -17.8223  -45.1745 C.3       6 UNK        -0.1800 
     44 N           2.1529  -15.8811  -44.2682 N.am      6 UNK        -0.5000 
     45 C           2.1382  -14.7013  -43.6310 C.2       5 UNK         0.5000 
     46 O           2.9089  -14.4224  -42.7111 O.2       5 UNK        -0.5000 
     47 CA          1.0920  -13.6560  -44.0716 C.3       5 UNK         0.1400 
     48 CB          1.7393  -12.5805  -44.9567 C.3       5 UNK        -0.1800 
     49 N          -0.0442  -14.2401  -44.7850 N.am      5 UNK        -0.5000 
     50 C          -1.0415  -14.9184  -44.2012 C.2       4 UNK         0.5000 
     51 O          -1.1475  -15.0595  -42.9824 O.2       4 UNK        -0.5000 
     52 CA         -2.0924  -15.5607  -45.1312 C.3       4 UNK         0.1400 
     53 CB         -3.3372  -14.6666  -45.2335 C.3       4 UNK        -0.1800 
     54 N          -1.6210  -15.8638  -46.4869 N.am      4 UNK        -0.5000 
     55 C          -0.5935  -16.6607  -46.8035 C.2       3 UNK         0.5000 
     56 O           0.1565  -17.1553  -45.9674 O.2       3 UNK        -0.5000 
     57 CA         -0.3341  -16.9341  -48.2934 C.3       3 UNK         0.1400 
     58 CB         -1.2640  -18.0406  -48.8142 C.3       3 UNK        -0.1800 
     59 N          -0.3621  -15.7402  -49.1468 N.am      3 UNK        -0.5000 
     60 C          -1.3946  -14.9486  -49.4698 C.2       2 UNK         0.5000 
     61 O          -2.5444  -15.1104  -49.0584 O.2       2 UNK        -0.5000 
     62 CA         -1.0330  -13.7122  -50.3066 C.3       2 UNK         0.1400 
     63 CB         -2.2454  -12.8260  -50.6436 C.3       2 UNK        -0.1800 
     64 N          -0.0648  -12.9392  -49.5366 N.am      2 UNK        -0.5000 
     65 C           1.0350  -12.3497  -50.0132 C.2       1 UNK         0.5000 
     66 O           1.3396  -12.3082  -51.2073 O.2       1 UNK        -0.5000 
     67 C          -1.6425  -21.6432  -47.5214 C.2       11 UNK         0.5000 
     68 O          -2.6250  -21.3469  -48.2021 O.2       11 UNK        -0.5000 
     69 N          -1.5424  -21.3846  -46.2120 N.am      12 UNK        -0.5000 
     70 CA         -2.5947  -20.7766  -45.4043 C.3       12 UNK         0.1400 
     71 CB         -1.9636  -19.7609  -44.4391 C.3       12 UNK        -0.1800 
     72 C          -3.3700  -21.8456  -44.6196 C.2       12 UNK         0.5000 
     73 O          -4.5974  -21.7852  -44.5631 O.2       12 UNK        -0.5000 
     74 N          -2.6426  -22.7954  -44.0175 N.am      13 UNK        -0.5000 
     75 CA         -3.1800  -23.7877  -43.0888 C.3       13 UNK         0.1400 
     76 CB         -2.0219  -24.4049  -42.2890 C.3       13 UNK        -0.1800 
     77 C          -4.0217  -24.8891  -43.7563 C.2       13 UNK         0.5000 
     78 O          -4.9677  -25.3702  -43.1307 O.2       13 UNK        -0.5000 
     79 N          -3.6651  -25.2807  -44.9870 N.am      14 UNK        -0.5000 
     80 CA         -4.3168  -26.3650  -45.7230 C.3       14 UNK         0.1400 
     81 CB         -3.3054  -27.4962  -45.9754 C.3       14 UNK        -0.1800 
     82 C          -4.9223  -25.8641  -47.0408 C.2       14 UNK         0.5000 
     83 O          -6.0868  -26.1543  -47.3170 O.2       14 UNK        -0.5000 
     84 N          -4.1331  -25.1263  -47.8344 N.am      15 UNK        -0.5000 
     85 CA         -4.5322  -24.6562  -49.1655 C.3       15 UNK         0.1400 
     86 CB         -3.2720  -24.3766  -49.9962 C.3       15 UNK        -0.1800 
     87 C          -5.4508  -23.4172  -49.1294 C.2       15 UNK         0.5000 
     88 O          -6.1129  -23.1309  -50.1297 O.2       15 UNK        -0.5000 
     89 N          -5.4645  -22.7112  -47.9874 N.am      16 UNK        -0.5000 
     90 CA         -6.3082  -21.5585  -47.6524 C.3       16 UNK         0.1400 
     91 CB         -7.7558  -22.0304  -47.4058 C.3       16 UNK        -0.1800 
     92 C          -6.2244  -20.4009  -48.6696 C.2       16 UNK         0.5000 
     93 O          -7.2460  -19.7897  -48.9874 O.2       16 UNK        -0.5000 
     94 N          -5.0171  -20.1515  -49.1995 N.am      17 UNK        -0.5000 
     95 CA         -4.6452  -19.1791  -50.2394 C.3       17 UNK         0.1400 
     96 CB         -4.9756  -17.7402  -49.7995 C.3       17 UNK        -0.1800 
     97 C          -5.2262  -19.4690  -51.6418 C.2       17 UNK         0.5000 
     98 O          -4.5699  -19.1725  -52.6435 O.2       17 UNK        -0.5000 
     99 N          -6.4360  -20.0356  -51.7029 N.am      18 UNK        -0.5000 
    100 CA        -7.1718  -20.3775  -52.9161 C.3       18 UNK         0.1400 
    101 CB        -8.5991  -20.8047  -52.5407 C.3       18 UNK        -0.1800 
    102 C         -6.4669  -21.4648  -53.7399 C.2       18 UNK         0.5000 
    103 O         -6.1790  -21.2426  -54.9160 O.2       18 UNK        -0.5000 
    104 N         -6.1501  -22.6004  -53.1007 N.am      19 UNK        -0.5000 
    105 CA        -5.4362  -23.7114  -53.7387 C.3       19 UNK         0.1400 
    106 CB        -5.7558  -25.0250  -53.0099 C.3       19 UNK        -0.1800 
    107 C         -3.9184  -23.4609  -53.8504 C.2       19 UNK         0.5000 
    108 O         -3.2485  -24.1516  -54.6182 O.2       19 UNK        -0.5000 
    109 N         -3.4097  -22.4514  -53.1264 N.am      20 UNK        -0.5000 
    110 CA        -2.0583  -21.9073  -53.2925 C.3       20 UNK         0.1400 
    111 CB        -1.6531  -21.1475  -52.0195 C.3       20 UNK        -0.1800 
    112 C         -1.9405  -20.9899  -54.5299 C.2       20 UNK         0.5000 
    113 O         -0.8228  -20.6481  -54.9163 O.2       20 UNK        -0.5000 
    114 N         -3.0870  -20.6209  -55.1245 N.am      21 UNK        -0.5000 
    115 CA        -3.2575  -19.7866  -56.3144 C.3       21 UNK         0.1400 
    116 CB        -2.6370  -20.4603  -57.5568 C.3       21 UNK        -0.1800 
    117 C         -2.7911  -18.3324  -56.1073 C.2       21 UNK         0.5000 
    118 O         -2.2328  -17.7295  -57.0268 O.2       21 UNK        -0.5000 
    119 N         -3.0471  -17.7851  -54.9131 N.am      22 UNK        -0.5000 
    120 CA        -2.7371  -16.3894  -54.5628 C.3       22 UNK         0.1400 
    121 C         -3.8160  -15.6782  -53.7000 C.2       22 UNK         0.5000 
    122 N         -4.8320  -16.3624  -53.1910 N.am      22 UNK        -0.7600 
    123 O         -3.7563  -14.4643  -53.5279 O.2       22 UNK        -0.5000 
    124 C124       -1.3003  -16.2176  -54.0073 C.3       23 UNK        -0.0398 
    125 S125       -0.9632  -17.1939  -52.4991 S.3       23 UNK        -0.2404 
    126 C126        0.6937  -17.8650  -52.8501 C.3       23 UNK        -0.0205 
    127 H127        2.0589   -7.2425  -49.0738 H         1 UNK         0.0600 
    128 H128        3.1533   -8.1015  -50.1610 H         1 UNK         0.0600 
    129 H129        1.5358   -7.6546  -50.7104 H         1 UNK         0.0600 
    130 H130        3.2989  -10.2761  -49.7079 H         1 UNK         0.3000 
    131 H131        1.4196  -11.6568  -48.0139 H         1 UNK         0.0600 
    132 H132        3.7479  -12.2147  -47.7911 H         1 UNK         0.0800 
    133 H133        3.9380  -12.5257  -49.4859 H         1 UNK         0.0800 
    134 H134        4.7182  -15.2843  -49.6090 H         1 UNK         0.0800 
    135 H135        3.5857  -14.4619  -50.6539 H         1 UNK         0.0800 
    136 H136        1.9588  -15.6797  -51.8635 H         1 UNK         0.1150 
    137 H137        1.4426  -19.8691  -51.1470 H         1 UNK         0.1150 
    138 H138        3.9139  -17.5346  -48.5298 H         1 UNK         0.1150 
    139 H139        3.2188  -20.9208  -49.5398 H         1 UNK         0.0800 
    140 H140        3.8798  -19.9065  -48.2886 H         1 UNK         0.0800 
    141 H141       -0.0637  -20.6792  -49.5066 H         1 UNK         0.0800 
    142 H142        1.1108  -21.9551  -49.6073 H         1 UNK         0.0800 
    143 H143       -0.8850  -23.0035  -48.9716 H         1 UNK         0.0600 
    144 H144        1.1996  -23.0543  -47.0684 H         1 UNK         0.3000 
    145 H145       -0.1017  -25.5216  -44.9145 H         1 UNK         0.0600 
    146 H146        1.8204  -26.8963  -45.6367 H         1 UNK         0.0600 
    147 H147        0.5660  -26.9347  -46.8644 H         1 UNK         0.0600 
    148 H148        1.9958  -25.9376  -47.1074 H         1 UNK         0.0600 
    149 H149        2.5158  -24.5969  -45.0231 H         1 UNK         0.3000 
    150 H150        3.2080  -23.2544  -43.2841 H         1 UNK         0.0600 
    151 H151        3.5342  -21.9405  -45.3513 H         1 UNK         0.0600 
    152 H152        3.9084  -20.9307  -43.9619 H         1 UNK         0.0600 
    153 H153        2.3778  -20.7318  -44.8156 H         1 UNK         0.0600 
    154 H154        1.7417  -20.8682  -42.4037 H         1 UNK         0.3000 
    155 H155       -0.0011  -22.0415  -40.0564 H         1 UNK         0.0600 
    156 H156        1.0905  -21.5705  -37.8484 H         1 UNK         0.0600 
    157 H157        2.6670  -21.9075  -38.5634 H         1 UNK         0.0600 
    158 H158        1.4589  -23.1771  -38.4494 H         1 UNK         0.0600 
    159 H159        0.0917  -19.8825  -40.3638 H         1 UNK         0.3000 
    160 H160        0.6181  -17.8492  -40.5798 H         1 UNK         0.0600 
    161 H161        3.1211  -17.0956  -38.9818 H         1 UNK         0.0600 
    162 H162        1.5529  -17.4838  -38.2844 H         1 UNK         0.0600 
    163 H163        1.7291  -16.0590  -39.2969 H         1 UNK         0.0600 
    164 H164        2.8892  -16.5207  -41.4325 H         1 UNK         0.3000 
    165 H165        3.9448  -16.6538  -43.4914 H         1 UNK         0.0600 
    166 H166        2.4542  -18.2821  -45.6183 H         1 UNK         0.0600 
    167 H167        3.7984  -17.1912  -45.9341 H         1 UNK         0.0600 
    168 H168        4.0404  -18.6229  -44.9462 H         1 UNK         0.0600 
    169 H169        1.4296  -16.0880  -44.9509 H         1 UNK         0.3000 
    170 H170        0.7188  -13.1675  -43.1689 H         1 UNK         0.0600 
    171 H171        2.5558  -12.0829  -44.4320 H         1 UNK         0.0600 
    172 H172        2.1517  -13.0098  -45.8679 H         1 UNK         0.0600 
    173 H173        1.0195  -11.8122  -45.2396 H         1 UNK         0.0600 
    174 H174       -0.0294  -14.1883  -45.7917 H         1 UNK         0.3000 
    175 H175       -2.3880  -16.5066  -44.6734 H         1 UNK         0.0600 
    176 H176       -3.1100  -13.7182  -45.7220 H         1 UNK         0.0600 
    177 H177       -4.1283  -15.1556  -45.8026 H         1 UNK         0.0600 
    178 H178       -3.7408  -14.4404  -44.2457 H         1 UNK         0.0600 
    179 H179       -2.1765  -15.5048  -47.2596 H         1 UNK         0.3000 
    180 H180        0.6840  -17.3167  -48.3547 H         1 UNK         0.0600 
    181 H181       -1.2189  -18.9106  -48.1621 H         1 UNK         0.0600 
    182 H182       -2.3020  -17.7185  -48.8468 H         1 UNK         0.0600 
    183 H183       -0.9760  -18.3657  -49.8123 H         1 UNK         0.0600 
    184 H184        0.5451  -15.4782  -49.5078 H         1 UNK         0.3000 
    185 H185       -0.5881  -14.0705  -51.2376 H         1 UNK         0.0600 
    186 H186       -2.7086  -12.4176  -49.7447 H         1 UNK         0.0600 
    187 H187       -1.9557  -11.9905  -51.2808 H         1 UNK         0.0600 
    188 H188       -3.0076  -13.3943  -51.1768 H         1 UNK         0.0600 
    189 H189       -0.2284  -12.9237  -48.5402 H         1 UNK         0.3000 
    190 H190       -0.7158  -21.6933  -45.7128 H         1 UNK         0.3000 
    191 H191       -3.3026  -20.2408  -46.0404 H         1 UNK         0.0600 
    192 H192       -2.7223  -19.2858  -43.8163 H         1 UNK         0.0600 
    193 H193       -1.4513  -18.9718  -44.9858 H         1 UNK         0.0600 
    194 H194       -1.2338  -20.2267  -43.7752 H         1 UNK         0.0600 
    195 H195       -1.6278  -22.7608  -44.0990 H         1 UNK         0.3000 
    196 H196       -3.8296  -23.2653  -42.3830 H         1 UNK         0.0600 
    197 H197       -2.3919  -25.1150  -41.5484 H         1 UNK         0.0600 
    198 H198       -1.4600  -23.6396  -41.7532 H         1 UNK         0.0600 
    199 H199       -1.3249  -24.9382  -42.9352 H         1 UNK         0.0600 
    200 H200       -2.8808  -24.8311  -45.4460 H         1 UNK         0.3000 
    201 H201       -5.1377  -26.7884  -45.1407 H         1 UNK         0.0600 
    202 H202       -2.9227  -27.8956  -45.0361 H         1 UNK         0.0600 
    203 H203       -2.4527  -27.1612  -46.5661 H         1 UNK         0.0600 
    204 H204       -3.7716  -28.3224  -46.5136 H         1 UNK         0.0600 
    205 H205       -3.1724  -24.9486  -47.5503 H         1 UNK         0.3000 
    206 H206       -5.0820  -25.4631  -49.6542 H         1 UNK         0.0600 
    207 H207       -2.4893  -25.1134  -49.8139 H         1 UNK         0.0600 
    208 H208       -3.4912  -24.4005  -51.0610 H         1 UNK         0.0600 
    209 H209       -2.8712  -23.3905  -49.7822 H         1 UNK         0.0600 
    210 H210       -4.8496  -23.0256  -47.2513 H         1 UNK         0.3000 
    211 H211       -5.9285  -21.1546  -46.7147 H         1 UNK         0.0600 
    212 H212       -8.2157  -22.4107  -48.3187 H         1 UNK         0.0600 
    213 H213       -8.3792  -21.2149  -47.0375 H         1 UNK         0.0600 
    214 H214       -7.7883  -22.8237  -46.6588 H         1 UNK         0.0600 
    215 H215       -4.2400  -20.7189  -48.8636 H         1 UNK         0.3000 
    216 H216       -3.5616  -19.2528  -50.3256 H         1 UNK         0.0600 
    217 H217       -6.0454  -17.5346  -49.8456 H         1 UNK         0.0600 
    218 H218       -4.4744  -17.0152  -50.4416 H         1 UNK         0.0600 
    219 H219       -4.6452  -17.5478  -48.7790 H         1 UNK         0.0600 
    220 H220       -6.9117  -20.1928  -50.8196 H         1 UNK         0.3000 
    221 H221       -7.2358  -19.4791  -53.5336 H         1 UNK         0.0600 
    222 H222       -8.6009  -21.6664  -51.8716 H         1 UNK         0.0600 
    223 H223       -9.1320  -19.9953  -52.0413 H         1 UNK         0.0600 
    224 H224       -9.1738  -21.0738  -53.4278 H         1 UNK         0.0600 
    225 H225       -6.3682  -22.7012  -52.1131 H         1 UNK         0.3000 
    226 H226       -5.8060  -23.8178  -54.7610 H         1 UNK         0.0600 
    227 H227       -6.8180  -25.2594  -53.0793 H         1 UNK         0.0600 
    228 H228       -5.2105  -25.8617  -53.4485 H         1 UNK         0.0600 
    229 H229       -5.4984  -24.9817  -51.9554 H         1 UNK         0.0600 
    230 H230       -4.0363  -21.9360  -52.5266 H         1 UNK         0.3000 
    231 H231       -1.3628  -22.7384  -53.4263 H         1 UNK         0.0600 
    232 H232       -2.1983  -20.2107  -51.9185 H         1 UNK         0.0600 
    233 H233       -1.8253  -21.7405  -51.1227 H         1 UNK         0.0600 
    234 H234       -0.5928  -20.8965  -52.0459 H         1 UNK         0.0600 
    235 H235       -3.9535  -20.9384  -54.7101 H         1 UNK         0.3000 
    236 H236       -4.3336  -19.7291  -56.4836 H         1 UNK         0.0600 
    237 H237       -3.0002  -21.4814  -57.6735 H         1 UNK         0.0600 
    238 H238       -2.8987  -19.9184  -58.4663 H         1 UNK         0.0600 
    239 H239       -1.5488  -20.4949  -57.5001 H         1 UNK         0.0600 
    240 H240       -3.4766  -18.3485  -54.1879 H         1 UNK         0.3000 
    241 H241       -2.7710  -15.8138  -55.4899 H         1 UNK         0.0600 
    242 H242       -4.8672  -17.3727  -53.2472 H         1 UNK         0.3800 
    243 H243       -5.5317  -15.8667  -52.6634 H         1 UNK         0.3800 
    244 H244       -1.0910  -15.1682  -53.7933 H         1 UNK         0.0800 
    245 H245       -0.5956  -16.5018  -54.7891 H         1 UNK         0.0800 
    246 H246        1.1692  -17.3180  -53.6648 H         1 UNK         0.0800 
    247 H247        0.5945  -18.8958  -53.1928 H         1 UNK         0.0800 
@<TRIPOS>BOND
     1    1    2 1    
     2    1  127 1    
     3    1  128 1    
     4    1  129 1    
     5    2    3 2    
     6    2    4 am   BACKBONE|DICT|INTERRES
     7    4    5 1    
     8    4  130 1    
     9    5    6 1    
    10    5   65 1    
    11    5  131 1    
    12    6    7 1    
    13    6  132 1    
    14    6  133 1    
    15    7    8 1    
    16    8    9 1    
    17    8  134 1    
    18    8  135 1    
    19    9   10 ar   
    20    9   14 ar   
    21   10   11 ar   
    22   10  136 1    
    23   11   12 ar   
    24   11  126 1    
    25   12   13 ar   
    26   12  137 1    
    27   13   14 ar   
    28   13   15 1    
    29   14  138 1    
    30   15   16 1    
    31   15  139 1    
    32   15  140 1    
    33   16   17 1    
    34   17   18 1    
    35   17  141 1    
    36   17  142 1    
    37   18   19 1    
    38   18   67 1    
    39   18  143 1    
    40   19   20 am   BACKBONE|DICT|INTERRES
    41   19  144 1    
    42   20   21 2    
    43   20   22 1    
    44   22   23 1    
    45   22   24 1    
    46   22  145 1    
    47   23  146 1    
    48   23  147 1    
    49   23  148 1    
    50   24   25 am   BACKBONE|DICT|INTERRES
    51   24  149 1    
    52   25   26 2    
    53   25   27 1    
    54   27   28 1    
    55   27   29 1    
    56   27  150 1    
    57   28  151 1    
    58   28  152 1    
    59   28  153 1    
    60   29   30 am   BACKBONE|DICT|INTERRES
    61   29  154 1    
    62   30   31 2    
    63   30   32 1    
    64   32   33 1    
    65   32   34 1    
    66   32  155 1    
    67   33  156 1    
    68   33  157 1    
    69   33  158 1    
    70   34   35 am   BACKBONE|DICT|INTERRES
    71   34  159 1    
    72   35   36 2    
    73   35   37 1    
    74   37   38 1    
    75   37   39 1    
    76   37  160 1    
    77   38  161 1    
    78   38  162 1    
    79   38  163 1    
    80   39   40 am   BACKBONE|DICT|INTERRES
    81   39  164 1    
    82   40   41 2    
    83   40   42 1    
    84   42   43 1    
    85   42   44 1    
    86   42  165 1    
    87   43  166 1    
    88   43  167 1    
    89   43  168 1    
    90   44   45 am   BACKBONE|DICT|INTERRES
    91   44  169 1    
    92   45   46 2    
    93   45   47 1    
    94   47   48 1    
    95   47   49 1    
    96   47  170 1    
    97   48  171 1    
    98   48  172 1    
    99   48  173 1    
   100   49   50 am   BACKBONE|DICT|INTERRES
   101   49  174 1    
   102   50   51 2    
   103   50   52 1    
   104   52   53 1    
   105   52   54 1    
   106   52  175 1    
   107   53  176 1    
   108   53  177 1    
   109   53  178 1    
   110   54   55 am   BACKBONE|DICT|INTERRES
   111   54  179 1    
   112   55   56 2    
   113   55   57 1    
   114   57   58 1    
   115   57   59 1    
   116   57  180 1    
   117   58  181 1    
   118   58  182 1    
   119   58  183 1    
   120   59   60 am   BACKBONE|DICT|INTERRES
   121   59  184 1    
   122   60   61 2    
   123   60   62 1    
   124   62   63 1    
   125   62   64 1    
   126   62  185 1    
   127   63  186 1    
   128   63  187 1    
   129   63  188 1    
   130   64   65 am   BACKBONE|DICT|INTERRES
   131   64  189 1    
   132   65   66 2    
   133   67   68 2    
   134   67   69 am   BACKBONE|DICT|INTERRES
   135   69   70 1    
   136   69  190 1    
   137   70   71 1    
   138   70   72 1    
   139   70  191 1    
   140   71  192 1    
   141   71  193 1    
   142   71  194 1    
   143   72   73 2    
   144   72   74 am   BACKBONE|DICT|INTERRES
   145   74   75 1    
   146   74  195 1    
   147   75   76 1    
   148   75   77 1    
   149   75  196 1    
   150   76  197 1    
   151   76  198 1    
   152   76  199 1    
   153   77   78 2    
   154   77   79 am   BACKBONE|DICT|INTERRES
   155   79   80 1    
   156   79  200 1    
   157   80   81 1    
   158   80   82 1    
   159   80  201 1    
   160   81  202 1    
   161   81  203 1    
   162   81  204 1    
   163   82   83 2    
   164   82   84 am   BACKBONE|DICT|INTERRES
   165   84   85 1    
   166   84  205 1    
   167   85   86 1    
   168   85   87 1    
   169   85  206 1    
   170   86  207 1    
   171   86  208 1    
   172   86  209 1    
   173   87   88 2    
   174   87   89 am   BACKBONE|DICT|INTERRES
   175   89   90 1    
   176   89  210 1    
   177   90   91 1    
   178   90   92 1    
   179   90  211 1    
   180   91  212 1    
   181   91  213 1    
   182   91  214 1    
   183   92   93 2    
   184   92   94 am   BACKBONE|DICT|INTERRES
   185   94   95 1    
   186   94  215 1    
   187   95   96 1    
   188   95   97 1    
   189   95  216 1    
   190   96  217 1    
   191   96  218 1    
   192   96  219 1    
   193   97   98 2    
   194   97   99 am   BACKBONE|DICT|INTERRES
   195   99  100 1    
   196   99  220 1    
   197  100  101 1    
   198  100  102 1    
   199  100  221 1    
   200  101  222 1    
   201  101  223 1    
   202  101  224 1    
   203  102  103 2    
   204  102  104 am   BACKBONE|DICT|INTERRES
   205  104  105 1    
   206  104  225 1    
   207  105  106 1    
   208  105  107 1    
   209  105  226 1    
   210  106  227 1    
   211  106  228 1    
   212  106  229 1    
   213  107  108 2    
   214  107  109 am   BACKBONE|DICT|INTERRES
   215  109  110 1    
   216  109  230 1    
   217  110  111 1    
   218  110  112 1    
   219  110  231 1    
   220  111  232 1    
   221  111  233 1    
   222  111  234 1    
   223  112  113 2    
   224  112  114 am   BACKBONE|DICT|INTERRES
   225  114  115 1    
   226  114  235 1    
   227  115  116 1    
   228  115  117 1    
   229  115  236 1    
   230  116  237 1    
   231  116  238 1    
   232  116  239 1    
   233  117  118 2    
   234  117  119 am   BACKBONE|DICT|INTERRES
   235  119  120 1    
   236  119  240 1    
   237  120  121 1    
   238  120  124 1    
   239  120  241 1    
   240  121  122 am   BACKBONE|DICT|INTERRES
   241  121  123 2    
   242  122  242 1    
   243  122  243 1    
   244  124  125 1    
   245  124  244 1    
   246  124  245 1    
   247  125  126 1    
   248  126  246 1    
   249  126  247 1    
@<TRIPOS>SUBSTRUCTURE
     1 UNK         1 GROUP             0       ****    0 ROOT    
