@<TRIPOS>MOLECULE
3R540
247   249    1
SMALL
USER_CHARGES


@<TRIPOS>ATOM
      1 CA         -6.6061  -13.1797  -44.4776 C.3       0 UNK        -0.1800 
      2 C          -5.3266  -13.4963  -45.2362 C.2       0 UNK         0.5000 
      3 O          -4.3719  -12.7225  -45.1761 O.2       0 UNK        -0.5000 
      4 N          -5.2917  -14.6390  -45.9340 N.am      1 UNK        -0.5000 
      5 CA         -4.1725  -15.1309  -46.7537 C.3       1 UNK         0.1400 
      6 C6         -4.5382  -16.4435  -47.4888 C.3       23 UNK        -0.0398 
      7 S7         -5.1286  -17.7708  -46.3752 S.3       23 UNK        -0.2404 
      8 C8         -4.0469  -19.1599  -46.8229 C.3       23 UNK        -0.0205 
      9 C9         -2.6078  -18.9623  -46.3767 C.ar      23 UNK        -0.0193 
     10 C10        -1.6329  -18.5801  -47.3000 C.ar      23 UNK        -0.1150 
     11 C11        -0.2902  -18.4883  -46.9226 C.ar      23 UNK        -0.0193 
     12 C12         0.0663  -18.7475  -45.5956 C.ar      23 UNK        -0.1150 
     13 C13        -0.9037  -19.1046  -44.6544 C.ar      23 UNK        -0.0193 
     14 C14        -2.2400  -19.2121  -45.0523 C.ar      23 UNK        -0.1150 
     15 C15        -0.5069  -19.3523  -43.2058 C.3       23 UNK        -0.0205 
     16 S16         0.1377  -21.0342  -42.9380 S.3       23 UNK        -0.2404 
     17 C17        -1.3621  -22.0475  -43.1758 C.3       23 UNK        -0.0398 
     18 CA         -1.3250  -22.8253  -44.5114 C.3       11 UNK         0.1400 
     19 N          -0.2072  -23.7750  -44.5537 N.am      11 UNK        -0.5000 
     20 C           0.1213  -24.5711  -45.5793 C.2       10 UNK         0.5000 
     21 O          -0.5435  -24.6694  -46.6118 O.2       10 UNK        -0.5000 
     22 CA          1.4120  -25.3909  -45.3891 C.3       10 UNK         0.1400 
     23 CB          1.7880  -26.2335  -46.6265 C.3       10 UNK        -0.1800 
     24 N           2.5344  -24.5524  -44.9461 N.am      10 UNK        -0.5000 
     25 C           3.1180  -23.5556  -45.6300 C.2       9 UNK         0.5000 
     26 O           2.7945  -23.2236  -46.7730 O.2       9 UNK        -0.5000 
     27 CA          4.2778  -22.8336  -44.9105 C.3       9 UNK         0.1400 
     28 CB          5.4021  -23.8162  -44.5339 C.3       9 UNK        -0.1800 
     29 N           4.8557  -21.7862  -45.7512 N.am      9 UNK        -0.5000 
     30 C           4.3976  -20.5340  -45.8542 C.2       8 UNK         0.5000 
     31 O           3.4810  -20.0711  -45.1710 O.2       8 UNK        -0.5000 
     32 CA          5.0771  -19.6742  -46.9355 C.3       8 UNK         0.1400 
     33 CB          4.4342  -19.9215  -48.3068 C.3       8 UNK        -0.1800 
     34 N           5.0240  -18.2450  -46.6339 N.am      8 UNK        -0.5000 
     35 C           5.7759  -17.6346  -45.7135 C.2       7 UNK         0.5000 
     36 O           6.5854  -18.2260  -44.9969 O.2       7 UNK        -0.5000 
     37 CA          5.6379  -16.1054  -45.5816 C.3       7 UNK         0.1400 
     38 CB          6.4040  -15.3836  -46.7071 C.3       7 UNK        -0.1800 
     39 N           4.2672  -15.5904  -45.4612 N.am      7 UNK        -0.5000 
     40 C           3.2727  -15.5813  -46.3610 C.2       6 UNK         0.5000 
     41 O           3.3294  -16.1576  -47.4496 O.2       6 UNK        -0.5000 
     42 CA          2.0009  -14.8028  -45.9427 C.3       6 UNK         0.1400 
     43 CB          2.3437  -13.4959  -45.1921 C.3       6 UNK        -0.1800 
     44 N           1.0768  -14.5008  -47.0426 N.am      6 UNK        -0.5000 
     45 C           1.3411  -13.8050  -48.1602 C.2       5 UNK         0.5000 
     46 O           2.4425  -13.3362  -48.4509 O.2       5 UNK        -0.5000 
     47 CA          0.1421  -13.5184  -49.0748 C.3       5 UNK         0.1400 
     48 CB         -0.4512  -14.8005  -49.6857 C.3       5 UNK        -0.1800 
     49 N          -0.8804  -12.8051  -48.3111 N.am      5 UNK        -0.5000 
     50 C          -1.1081  -11.4884  -48.4035 C.2       4 UNK         0.5000 
     51 O          -0.5456  -10.7484  -49.2120 O.2       4 UNK        -0.5000 
     52 CA         -2.1336  -10.8844  -47.4283 C.3       4 UNK         0.1400 
     53 CB         -3.5614  -11.0495  -47.9708 C.3       4 UNK        -0.1800 
     54 N          -2.0580  -11.4431  -46.0778 N.am      4 UNK        -0.5000 
     55 C          -1.0641  -11.2053  -45.2095 C.2       3 UNK         0.5000 
     56 O          -0.0679  -10.5349  -45.4813 O.2       3 UNK        -0.5000 
     57 CA         -1.2064  -11.7997  -43.7976 C.3       3 UNK         0.1400 
     58 CB         -2.1219  -10.9183  -42.9334 C.3       3 UNK        -0.1800 
     59 N          -1.7544  -13.1534  -43.8471 N.am      3 UNK        -0.5000 
     60 C          -1.0876  -14.2676  -43.5161 C.2       2 UNK         0.5000 
     61 O           0.0463  -14.2705  -43.0378 O.2       2 UNK        -0.5000 
     62 CA         -1.7930  -15.6187  -43.7543 C.3       2 UNK         0.1400 
     63 CB         -2.2910  -16.2071  -42.4258 C.3       2 UNK        -0.1800 
     64 N          -2.9197  -15.5518  -44.6839 N.am      2 UNK        -0.5000 
     65 C          -2.8366  -15.2522  -45.9866 C.2       1 UNK         0.5000 
     66 O          -1.7768  -15.0040  -46.5641 O.2       1 UNK        -0.5000 
     67 C          -2.6991  -23.4649  -44.8004 C.2       11 UNK         0.5000 
     68 O          -3.5386  -22.8183  -45.4226 O.2       11 UNK        -0.5000 
     69 N          -2.9004  -24.7231  -44.3820 N.am      12 UNK        -0.5000 
     70 CA         -4.1214  -25.4900  -44.6439 C.3       12 UNK         0.1400 
     71 CB         -4.1174  -26.7621  -43.7832 C.3       12 UNK        -0.1800 
     72 C          -4.3002  -25.8422  -46.1334 C.2       12 UNK         0.5000 
     73 O          -5.4169  -25.7699  -46.6479 O.2       12 UNK        -0.5000 
     74 N          -3.1937  -26.1858  -46.8074 N.am      13 UNK        -0.5000 
     75 CA         -3.1609  -26.4499  -48.2458 C.3       13 UNK         0.1400 
     76 CB         -1.8754  -27.2086  -48.6084 C.3       13 UNK        -0.1800 
     77 C          -3.2788  -25.1473  -49.0519 C.2       13 UNK         0.5000 
     78 O          -4.0018  -25.1098  -50.0470 O.2       13 UNK        -0.5000 
     79 N          -2.6096  -24.0874  -48.5785 N.am      14 UNK        -0.5000 
     80 CA         -2.6887  -22.7442  -49.1471 C.3       14 UNK         0.1400 
     81 CB         -1.6470  -21.8384  -48.4847 C.3       14 UNK        -0.1800 
     82 C          -4.0972  -22.1323  -49.0385 C.2       14 UNK         0.5000 
     83 O          -4.5247  -21.4492  -49.9654 O.2       14 UNK        -0.5000 
     84 N          -4.8150  -22.4058  -47.9401 N.am      15 UNK        -0.5000 
     85 CA         -6.2107  -22.0074  -47.7458 C.3       15 UNK         0.1400 
     86 CB         -6.6417  -22.2886  -46.2984 C.3       15 UNK        -0.1800 
     87 C          -7.1615  -22.6949  -48.7405 C.2       15 UNK         0.5000 
     88 O          -8.0515  -22.0359  -49.2776 O.2       15 UNK        -0.5000 
     89 N          -6.9295  -23.9893  -49.0029 N.am      16 UNK        -0.5000 
     90 CA         -7.6615  -24.7738  -49.9999 C.3       16 UNK         0.1400 
     91 CB         -7.3395  -26.2649  -49.8178 C.3       16 UNK        -0.1800 
     92 C          -7.3713  -24.3151  -51.4429 C.2       16 UNK         0.5000 
     93 O          -8.2856  -24.2852  -52.2672 O.2       16 UNK        -0.5000 
     94 N          -6.1144  -23.9357  -51.7116 N.am      17 UNK        -0.5000 
     95 CA         -5.6583  -23.3725  -52.9851 C.3       17 UNK         0.1400 
     96 CB         -4.1260  -23.4741  -53.0478 C.3       17 UNK        -0.1800 
     97 C          -6.1079  -21.9136  -53.2182 C.2       17 UNK         0.5000 
     98 O          -6.0487  -21.4483  -54.3569 O.2       17 UNK        -0.5000 
     99 N          -6.5394  -21.2293  -52.1472 N.am      18 UNK        -0.5000 
    100 CA        -6.8791  -19.8053  -52.0632 C.3       18 UNK         0.1400 
    101 CB        -8.0940  -19.4617  -52.9505 C.3       18 UNK        -0.1800 
    102 C         -5.6456  -18.9169  -52.3271 C.2       18 UNK         0.5000 
    103 O         -5.6764  -18.0400  -53.1928 O.2       18 UNK        -0.5000 
    104 N         -4.5751  -19.1957  -51.5703 N.am      19 UNK        -0.5000 
    105 CA        -3.2159  -18.6728  -51.7053 C.3       19 UNK         0.1400 
    106 CB        -3.1600  -17.1455  -51.4776 C.3       19 UNK        -0.1800 
    107 C         -2.5791  -19.1625  -53.0214 C.2       19 UNK         0.5000 
    108 O         -2.7033  -20.3489  -53.3317 O.2       19 UNK        -0.5000 
    109 N         -1.8788  -18.2752  -53.7448 N.am      20 UNK        -0.5000 
    110 CA        -1.1600  -18.4783  -55.0147 C.3       20 UNK         0.1400 
    111 CB        -2.1095  -18.9409  -56.1365 C.3       20 UNK        -0.1800 
    112 C          0.0707  -19.4016  -54.9057 C.2       20 UNK         0.5000 
    113 O          1.1563  -19.0245  -55.3499 O.2       20 UNK        -0.5000 
    114 N         -0.1003  -20.5626  -54.2612 N.am      21 UNK        -0.5000 
    115 CA         0.9340  -21.5488  -53.9347 C.3       21 UNK         0.1400 
    116 CB         0.2581  -22.7681  -53.2872 C.3       21 UNK        -0.1800 
    117 C          2.0455  -20.9988  -53.0168 C.2       21 UNK         0.5000 
    118 O          3.1493  -21.5446  -53.0026 O.2       21 UNK        -0.5000 
    119 N          1.7364  -19.9177  -52.2906 N.am      22 UNK        -0.5000 
    120 CA         2.6695  -19.1344  -51.4696 C.3       22 UNK         0.1400 
    121 C          3.7364  -18.3445  -52.2863 C.2       22 UNK         0.5000 
    122 N          3.5831  -18.1645  -53.5944 N.am      22 UNK        -0.7600 
    123 O          4.7252  -17.8879  -51.7205 O.2       22 UNK        -0.5000 
    124 C124        1.9150  -18.1762  -50.5109 C.3       23 UNK        -0.0398 
    125 S125        0.6557  -19.0234  -49.4970 S.3       23 UNK        -0.2404 
    126 C126        0.7750  -18.0929  -47.9356 C.3       23 UNK        -0.0205 
    127 H127       -7.3586  -13.9575  -44.6088 H         1 UNK         0.0600 
    128 H128       -7.0247  -12.2367  -44.8290 H         1 UNK         0.0600 
    129 H129       -6.3954  -13.0846  -43.4125 H         1 UNK         0.0600 
    130 H130       -6.1006  -15.2444  -45.9173 H         1 UNK         0.3000 
    131 H131       -4.0033  -14.3760  -47.5228 H         1 UNK         0.0600 
    132 H132       -5.3348  -16.2431  -48.2064 H         1 UNK         0.0800 
    133 H133       -3.6968  -16.7927  -48.0874 H         1 UNK         0.0800 
    134 H134       -4.4333  -20.0646  -46.3540 H         1 UNK         0.0800 
    135 H135       -4.0996  -19.3265  -47.8998 H         1 UNK         0.0800 
    136 H136       -1.9126  -18.3836  -48.3249 H         1 UNK         0.1150 
    137 H137        1.1012  -18.6735  -45.2911 H         1 UNK         0.1150 
    138 H138       -2.9976  -19.4961  -44.3360 H         1 UNK         0.1150 
    139 H139        0.2601  -18.6333  -42.9141 H         1 UNK         0.0800 
    140 H140       -1.3520  -19.1780  -42.5389 H         1 UNK         0.0800 
    141 H141       -2.2420  -21.4051  -43.1198 H         1 UNK         0.0800 
    142 H142       -1.4455  -22.7379  -42.3348 H         1 UNK         0.0800 
    143 H143       -1.1453  -22.1034  -45.3095 H         1 UNK         0.0600 
    144 H144        0.4140  -23.7457  -43.7587 H         1 UNK         0.3000 
    145 H145        1.2112  -26.0884  -44.5747 H         1 UNK         0.0600 
    146 H146        2.7082  -26.7929  -46.4583 H         1 UNK         0.0600 
    147 H147        1.0054  -26.9579  -46.8539 H         1 UNK         0.0600 
    148 H148        1.9269  -25.6175  -47.5153 H         1 UNK         0.0600 
    149 H149        2.8783  -24.7524  -44.0172 H         1 UNK         0.3000 
    150 H150        3.8822  -22.3866  -43.9959 H         1 UNK         0.0600 
    151 H151        5.7871  -24.3416  -45.4089 H         1 UNK         0.0600 
    152 H152        5.0567  -24.5686  -43.8245 H         1 UNK         0.0600 
    153 H153        6.2368  -23.2964  -44.0628 H         1 UNK         0.0600 
    154 H154        5.5765  -22.0885  -46.3898 H         1 UNK         0.3000 
    155 H155        6.1283  -19.9642  -46.9980 H         1 UNK         0.0600 
    156 H156        3.3654  -19.7157  -48.2896 H         1 UNK         0.0600 
    157 H157        4.5567  -20.9605  -48.6151 H         1 UNK         0.0600 
    158 H158        4.8891  -19.2970  -49.0759 H         1 UNK         0.0600 
    159 H159        4.3540  -17.6764  -47.1453 H         1 UNK         0.3000 
    160 H160        6.1256  -15.8367  -44.6431 H         1 UNK         0.0600 
    161 H161        5.9776  -15.5909  -47.6891 H         1 UNK         0.0600 
    162 H162        7.4475  -15.6997  -46.7327 H         1 UNK         0.0600 
    163 H163        6.3951  -14.3036  -46.5599 H         1 UNK         0.0600 
    164 H164        4.0826  -15.1265  -44.5830 H         1 UNK         0.3000 
    165 H165        1.4498  -15.4531  -45.2620 H         1 UNK         0.0600 
    166 H166        1.4497  -12.9021  -45.0090 H         1 UNK         0.0600 
    167 H167        2.7904  -13.6961  -44.2180 H         1 UNK         0.0600 
    168 H168        3.0393  -12.8744  -45.7575 H         1 UNK         0.0600 
    169 H169        0.1241  -14.8271  -46.9077 H         1 UNK         0.3000 
    170 H170        0.5015  -12.9049  -49.9036 H         1 UNK         0.0600 
    171 H171        0.3138  -15.3662  -50.2176 H         1 UNK         0.0600 
    172 H172       -0.8863  -15.4600  -48.9365 H         1 UNK         0.0600 
    173 H173       -1.2345  -14.5595  -50.4041 H         1 UNK         0.0600 
    174 H174       -1.3502  -13.3397  -47.5890 H         1 UNK         0.3000 
    175 H175       -1.9276   -9.8142  -47.3571 H         1 UNK         0.0600 
    176 H176       -3.8401  -12.0987  -48.0626 H         1 UNK         0.0600 
    177 H177       -4.2893  -10.5665  -47.3186 H         1 UNK         0.0600 
    178 H178       -3.6585  -10.5968  -48.9584 H         1 UNK         0.0600 
    179 H179       -2.8770  -11.9571  -45.7598 H         1 UNK         0.3000 
    180 H180       -0.2142  -11.8019  -43.3416 H         1 UNK         0.0600 
    181 H181       -1.7438   -9.8966  -42.8795 H         1 UNK         0.0600 
    182 H182       -2.1816  -11.2975  -41.9132 H         1 UNK         0.0600 
    183 H183       -3.1359  -10.8740  -43.3331 H         1 UNK         0.0600 
    184 H184       -2.6865  -13.2424  -44.2363 H         1 UNK         0.3000 
    185 H185       -1.0517  -16.2971  -44.1796 H         1 UNK         0.0600 
    186 H186       -2.7671  -17.1759  -42.5762 H         1 UNK         0.0600 
    187 H187       -1.4645  -16.3549  -41.7295 H         1 UNK         0.0600 
    188 H188       -3.0154  -15.5499  -41.9430 H         1 UNK         0.0600 
    189 H189       -3.8354  -15.7306  -44.2989 H         1 UNK         0.3000 
    190 H190       -2.1619  -25.1923  -43.8788 H         1 UNK         0.3000 
    191 H191       -4.9762  -24.8798  -44.3441 H         1 UNK         0.0600 
    192 H192       -4.0736  -26.5194  -42.7213 H         1 UNK         0.0600 
    193 H193       -5.0253  -27.3449  -43.9448 H         1 UNK         0.0600 
    194 H194       -3.2683  -27.4057  -44.0166 H         1 UNK         0.0600 
    195 H195       -2.3013  -26.1441  -46.3357 H         1 UNK         0.3000 
    196 H196       -4.0123  -27.0839  -48.5032 H         1 UNK         0.0600 
    197 H197       -1.8619  -27.4618  -49.6692 H         1 UNK         0.0600 
    198 H198       -1.7966  -28.1415  -48.0501 H         1 UNK         0.0600 
    199 H199       -0.9825  -26.6178  -48.4034 H         1 UNK         0.0600 
    200 H200       -1.9921  -24.2174  -47.7815 H         1 UNK         0.3000 
    201 H201       -2.4388  -22.8201  -50.2069 H         1 UNK         0.0600 
    202 H202       -1.6204  -20.8690  -48.9806 H         1 UNK         0.0600 
    203 H203       -0.6451  -22.2640  -48.5469 H         1 UNK         0.0600 
    204 H204       -1.8753  -21.6636  -47.4345 H         1 UNK         0.0600 
    205 H205       -4.3664  -22.8852  -47.1652 H         1 UNK         0.3000 
    206 H206       -6.2805  -20.9310  -47.9158 H         1 UNK         0.0600 
    207 H207       -6.0418  -21.7200  -45.5882 H         1 UNK         0.0600 
    208 H208       -7.6830  -22.0064  -46.1390 H         1 UNK         0.0600 
    209 H209       -6.5449  -23.3447  -46.0462 H         1 UNK         0.0600 
    210 H210       -6.1832  -24.4605  -48.5080 H         1 UNK         0.3000 
    211 H211       -8.7293  -24.6356  -49.8173 H         1 UNK         0.0600 
    212 H212       -6.2844  -26.4768  -49.9900 H         1 UNK         0.0600 
    213 H213       -7.9140  -26.8749  -50.5159 H         1 UNK         0.0600 
    214 H214       -7.5870  -26.6014  -48.8108 H         1 UNK         0.0600 
    215 H215       -5.4057  -24.0721  -50.9972 H         1 UNK         0.3000 
    216 H216       -6.0724  -23.9767  -53.7948 H         1 UNK         0.0600 
    217 H217       -3.7485  -23.1200  -54.0080 H         1 UNK         0.0600 
    218 H218       -3.7895  -24.5035  -52.9237 H         1 UNK         0.0600 
    219 H219       -3.6545  -22.8699  -52.2728 H         1 UNK         0.0600 
    220 H220       -6.5062  -21.7128  -51.2596 H         1 UNK         0.3000 
    221 H221       -7.1717  -19.6252  -51.0276 H         1 UNK         0.0600 
    222 H222       -7.8696  -19.5645  -54.0123 H         1 UNK         0.0600 
    223 H223       -8.9421  -20.1072  -52.7224 H         1 UNK         0.0600 
    224 H224       -8.4146  -18.4326  -52.7852 H         1 UNK         0.0600 
    225 H225       -4.6476  -20.0030  -50.9510 H         1 UNK         0.3000 
    226 H226       -2.6400  -19.1404  -50.9051 H         1 UNK         0.0600 
    227 H227       -2.1295  -16.7990  -51.3940 H         1 UNK         0.0600 
    228 H228       -3.6357  -16.5890  -52.2856 H         1 UNK         0.0600 
    229 H229       -3.6625  -16.8719  -50.5505 H         1 UNK         0.0600 
    230 H230       -1.8302  -17.3327  -53.3843 H         1 UNK         0.3000 
    231 H231       -0.7838  -17.4939  -55.2977 H         1 UNK         0.0600 
    232 H232       -2.5176  -19.9340  -55.9471 H         1 UNK         0.0600 
    233 H233       -1.5880  -18.9820  -57.0935 H         1 UNK         0.0600 
    234 H234       -2.9467  -18.2524  -56.2515 H         1 UNK         0.0600 
    235 H235       -1.0401  -20.7564  -53.9198 H         1 UNK         0.3000 
    236 H236        1.4033  -21.8636  -54.8687 H         1 UNK         0.0600 
    237 H237       -0.4810  -23.2110  -53.9552 H         1 UNK         0.0600 
    238 H238        0.9889  -23.5428  -53.0516 H         1 UNK         0.0600 
    239 H239       -0.2487  -22.4998  -52.3590 H         1 UNK         0.0600 
    240 H240        0.7961  -19.5603  -52.3526 H         1 UNK         0.3000 
    241 H241        3.2231  -19.8496  -50.8604 H         1 UNK         0.0600 
    242 H242        2.7780  -18.5329  -54.0867 H         1 UNK         0.3800 
    243 H243        4.2856  -17.6543  -54.1059 H         1 UNK         0.3800 
    244 H244        2.6233  -17.6746  -49.8481 H         1 UNK         0.0800 
    245 H245        1.4161  -17.3881  -51.0768 H         1 UNK         0.0800 
    246 H246        1.7664  -18.2502  -47.5121 H         1 UNK         0.0800 
    247 H247        0.6872  -17.0282  -48.1419 H         1 UNK         0.0800 
@<TRIPOS>BOND
     1    1    2 1    
     2    1  127 1    
     3    1  128 1    
     4    1  129 1    
     5    2    3 2    
     6    2    4 am   BACKBONE|DICT|INTERRES
     7    4    5 1    
     8    4  130 1    
     9    5    6 1    
    10    5   65 1    
    11    5  131 1    
    12    6    7 1    
    13    6  132 1    
    14    6  133 1    
    15    7    8 1    
    16    8    9 1    
    17    8  134 1    
    18    8  135 1    
    19    9   10 ar   
    20    9   14 ar   
    21   10   11 ar   
    22   10  136 1    
    23   11   12 ar   
    24   11  126 1    
    25   12   13 ar   
    26   12  137 1    
    27   13   14 ar   
    28   13   15 1    
    29   14  138 1    
    30   15   16 1    
    31   15  139 1    
    32   15  140 1    
    33   16   17 1    
    34   17   18 1    
    35   17  141 1    
    36   17  142 1    
    37   18   19 1    
    38   18   67 1    
    39   18  143 1    
    40   19   20 am   BACKBONE|DICT|INTERRES
    41   19  144 1    
    42   20   21 2    
    43   20   22 1    
    44   22   23 1    
    45   22   24 1    
    46   22  145 1    
    47   23  146 1    
    48   23  147 1    
    49   23  148 1    
    50   24   25 am   BACKBONE|DICT|INTERRES
    51   24  149 1    
    52   25   26 2    
    53   25   27 1    
    54   27   28 1    
    55   27   29 1    
    56   27  150 1    
    57   28  151 1    
    58   28  152 1    
    59   28  153 1    
    60   29   30 am   BACKBONE|DICT|INTERRES
    61   29  154 1    
    62   30   31 2    
    63   30   32 1    
    64   32   33 1    
    65   32   34 1    
    66   32  155 1    
    67   33  156 1    
    68   33  157 1    
    69   33  158 1    
    70   34   35 am   BACKBONE|DICT|INTERRES
    71   34  159 1    
    72   35   36 2    
    73   35   37 1    
    74   37   38 1    
    75   37   39 1    
    76   37  160 1    
    77   38  161 1    
    78   38  162 1    
    79   38  163 1    
    80   39   40 am   BACKBONE|DICT|INTERRES
    81   39  164 1    
    82   40   41 2    
    83   40   42 1    
    84   42   43 1    
    85   42   44 1    
    86   42  165 1    
    87   43  166 1    
    88   43  167 1    
    89   43  168 1    
    90   44   45 am   BACKBONE|DICT|INTERRES
    91   44  169 1    
    92   45   46 2    
    93   45   47 1    
    94   47   48 1    
    95   47   49 1    
    96   47  170 1    
    97   48  171 1    
    98   48  172 1    
    99   48  173 1    
   100   49   50 am   BACKBONE|DICT|INTERRES
   101   49  174 1    
   102   50   51 2    
   103   50   52 1    
   104   52   53 1    
   105   52   54 1    
   106   52  175 1    
   107   53  176 1    
   108   53  177 1    
   109   53  178 1    
   110   54   55 am   BACKBONE|DICT|INTERRES
   111   54  179 1    
   112   55   56 2    
   113   55   57 1    
   114   57   58 1    
   115   57   59 1    
   116   57  180 1    
   117   58  181 1    
   118   58  182 1    
   119   58  183 1    
   120   59   60 am   BACKBONE|DICT|INTERRES
   121   59  184 1    
   122   60   61 2    
   123   60   62 1    
   124   62   63 1    
   125   62   64 1    
   126   62  185 1    
   127   63  186 1    
   128   63  187 1    
   129   63  188 1    
   130   64   65 am   BACKBONE|DICT|INTERRES
   131   64  189 1    
   132   65   66 2    
   133   67   68 2    
   134   67   69 am   BACKBONE|DICT|INTERRES
   135   69   70 1    
   136   69  190 1    
   137   70   71 1    
   138   70   72 1    
   139   70  191 1    
   140   71  192 1    
   141   71  193 1    
   142   71  194 1    
   143   72   73 2    
   144   72   74 am   BACKBONE|DICT|INTERRES
   145   74   75 1    
   146   74  195 1    
   147   75   76 1    
   148   75   77 1    
   149   75  196 1    
   150   76  197 1    
   151   76  198 1    
   152   76  199 1    
   153   77   78 2    
   154   77   79 am   BACKBONE|DICT|INTERRES
   155   79   80 1    
   156   79  200 1    
   157   80   81 1    
   158   80   82 1    
   159   80  201 1    
   160   81  202 1    
   161   81  203 1    
   162   81  204 1    
   163   82   83 2    
   164   82   84 am   BACKBONE|DICT|INTERRES
   165   84   85 1    
   166   84  205 1    
   167   85   86 1    
   168   85   87 1    
   169   85  206 1    
   170   86  207 1    
   171   86  208 1    
   172   86  209 1    
   173   87   88 2    
   174   87   89 am   BACKBONE|DICT|INTERRES
   175   89   90 1    
   176   89  210 1    
   177   90   91 1    
   178   90   92 1    
   179   90  211 1    
   180   91  212 1    
   181   91  213 1    
   182   91  214 1    
   183   92   93 2    
   184   92   94 am   BACKBONE|DICT|INTERRES
   185   94   95 1    
   186   94  215 1    
   187   95   96 1    
   188   95   97 1    
   189   95  216 1    
   190   96  217 1    
   191   96  218 1    
   192   96  219 1    
   193   97   98 2    
   194   97   99 am   BACKBONE|DICT|INTERRES
   195   99  100 1    
   196   99  220 1    
   197  100  101 1    
   198  100  102 1    
   199  100  221 1    
   200  101  222 1    
   201  101  223 1    
   202  101  224 1    
   203  102  103 2    
   204  102  104 am   BACKBONE|DICT|INTERRES
   205  104  105 1    
   206  104  225 1    
   207  105  106 1    
   208  105  107 1    
   209  105  226 1    
   210  106  227 1    
   211  106  228 1    
   212  106  229 1    
   213  107  108 2    
   214  107  109 am   BACKBONE|DICT|INTERRES
   215  109  110 1    
   216  109  230 1    
   217  110  111 1    
   218  110  112 1    
   219  110  231 1    
   220  111  232 1    
   221  111  233 1    
   222  111  234 1    
   223  112  113 2    
   224  112  114 am   BACKBONE|DICT|INTERRES
   225  114  115 1    
   226  114  235 1    
   227  115  116 1    
   228  115  117 1    
   229  115  236 1    
   230  116  237 1    
   231  116  238 1    
   232  116  239 1    
   233  117  118 2    
   234  117  119 am   BACKBONE|DICT|INTERRES
   235  119  120 1    
   236  119  240 1    
   237  120  121 1    
   238  120  124 1    
   239  120  241 1    
   240  121  122 am   BACKBONE|DICT|INTERRES
   241  121  123 2    
   242  122  242 1    
   243  122  243 1    
   244  124  125 1    
   245  124  244 1    
   246  124  245 1    
   247  125  126 1    
   248  126  246 1    
   249  126  247 1    
@<TRIPOS>SUBSTRUCTURE
     1 UNK         1 GROUP             0       ****    0 ROOT    
