@<TRIPOS>MOLECULE
3R540
247   249    1
SMALL
USER_CHARGES


@<TRIPOS>ATOM
      1 CA         -0.1272  -12.6370  -50.1886 C.3       0 UNK        -0.1800 
      2 C          -0.6520  -13.0286  -48.8098 C.2       0 UNK         0.5000 
      3 O          -1.7346  -13.6029  -48.7173 O.2       0 UNK        -0.5000 
      4 N           0.0634  -12.7490  -47.7149 N.am      1 UNK        -0.5000 
      5 CA          1.3128  -11.9922  -47.6214 C.3       1 UNK         0.1400 
      6 C6          2.5271  -12.8918  -47.2751 C.3       23 UNK        -0.0398 
      7 S7          3.0334  -14.0104  -48.6217 S.3       23 UNK        -0.2404 
      8 C8          2.1216  -15.5124  -48.1576 C.3       23 UNK        -0.0205 
      9 C9          2.5226  -16.7233  -48.9830 C.ar      23 UNK        -0.0193 
     10 C10         2.3400  -16.7394  -50.3689 C.ar      23 UNK        -0.1150 
     11 C11         2.6883  -17.8695  -51.1149 C.ar      23 UNK        -0.0193 
     12 C12         3.2074  -18.9920  -50.4626 C.ar      23 UNK        -0.1150 
     13 C13         3.3559  -19.0019  -49.0724 C.ar      23 UNK        -0.0193 
     14 C14         3.0348  -17.8547  -48.3455 C.ar      23 UNK        -0.1150 
     15 C15         3.8432  -20.2462  -48.3393 C.3       23 UNK        -0.0205 
     16 S16         2.9400  -21.7614  -48.8052 S.3       23 UNK        -0.2404 
     17 C17         1.1842  -21.2978  -48.5910 C.3       23 UNK        -0.0398 
     18 CA          0.4173  -22.3625  -47.7675 C.3       11 UNK         0.1400 
     19 N           0.4768  -22.1138  -46.3236 N.am      11 UNK        -0.5000 
     20 C           0.1297  -23.0167  -45.3958 C.2       10 UNK         0.5000 
     21 O          -0.2476  -24.1575  -45.6631 O.2       10 UNK        -0.5000 
     22 CA          0.1616  -22.5603  -43.9267 C.3       10 UNK         0.1400 
     23 CB          1.6022  -22.5093  -43.3963 C.3       10 UNK        -0.1800 
     24 N          -0.4968  -21.2693  -43.7213 N.am      10 UNK        -0.5000 
     25 C          -1.8004  -21.0441  -43.9410 C.2       9 UNK         0.5000 
     26 O          -2.5880  -21.9110  -44.3175 O.2       9 UNK        -0.5000 
     27 CA         -2.3102  -19.6056  -43.7437 C.3       9 UNK         0.1400 
     28 CB         -2.5635  -19.3165  -42.2568 C.3       9 UNK        -0.1800 
     29 N          -1.4049  -18.5979  -44.2929 N.am      9 UNK        -0.5000 
     30 C          -1.0674  -18.4909  -45.5863 C.2       8 UNK         0.5000 
     31 O          -1.5058  -19.2178  -46.4765 O.2       8 UNK        -0.5000 
     32 CA         -0.0025  -17.4356  -45.9298 C.3       8 UNK         0.1400 
     33 CB         -0.5995  -16.0185  -45.8964 C.3       8 UNK        -0.1800 
     34 N           1.1519  -17.5131  -45.0332 N.am      8 UNK        -0.5000 
     35 C           1.9232  -18.6008  -44.8785 C.2       7 UNK         0.5000 
     36 O           1.7827  -19.6418  -45.5200 O.2       7 UNK        -0.5000 
     37 CA          3.0103  -18.5235  -43.7965 C.3       7 UNK         0.1400 
     38 CB          4.2528  -17.7922  -44.3258 C.3       7 UNK        -0.1800 
     39 N           2.5150  -17.8656  -42.5875 N.am      7 UNK        -0.5000 
     40 C           1.6050  -18.4037  -41.7616 C.2       6 UNK         0.5000 
     41 O           1.1319  -19.5305  -41.9069 O.2       6 UNK        -0.5000 
     42 CA          1.1060  -17.5144  -40.6084 C.3       6 UNK         0.1400 
     43 CB          2.0789  -17.5660  -39.4212 C.3       6 UNK        -0.1800 
     44 N           0.9135  -16.1234  -41.0206 N.am      6 UNK        -0.5000 
     45 C          -0.0099  -15.7162  -41.9035 C.2       5 UNK         0.5000 
     46 O          -0.8335  -16.4682  -42.4225 O.2       5 UNK        -0.5000 
     47 CA          0.0207  -14.2310  -42.3082 C.3       5 UNK         0.1400 
     48 CB         -0.8883  -13.3997  -41.3919 C.3       5 UNK        -0.1800 
     49 N           1.3686  -13.6614  -42.2942 N.am      5 UNK        -0.5000 
     50 C           2.3718  -14.0258  -43.1018 C.2       4 UNK         0.5000 
     51 O           2.2600  -14.9090  -43.9552 O.2       4 UNK        -0.5000 
     52 CA          3.7168  -13.2916  -42.9015 C.3       4 UNK         0.1400 
     53 CB          4.7472  -13.6300  -43.9928 C.3       4 UNK        -0.1800 
     54 N           3.5676  -11.8360  -42.8360 N.am      4 UNK        -0.5000 
     55 C           3.1304  -11.1182  -41.7949 C.2       3 UNK         0.5000 
     56 O           2.7637  -11.6266  -40.7346 O.2       3 UNK        -0.5000 
     57 CA          3.0506   -9.5866  -41.9681 C.3       3 UNK         0.1400 
     58 CB          4.4329   -8.9322  -41.7811 C.3       3 UNK        -0.1800 
     59 N           2.4052   -9.1447  -43.2144 N.am      3 UNK        -0.5000 
     60 C           2.8236   -9.3028  -44.4770 C.2       2 UNK         0.5000 
     61 O           3.8858   -9.8452  -44.7934 O.2       2 UNK        -0.5000 
     62 CA          1.8831   -8.7927  -45.5831 C.3       2 UNK         0.1400 
     63 CB          2.4077   -7.4786  -46.1812 C.3       2 UNK        -0.1800 
     64 N           1.7683   -9.7947  -46.6420 N.am      2 UNK        -0.5000 
     65 C           1.1211  -10.9579  -46.5007 C.2       1 UNK         0.5000 
     66 O           0.4332  -11.2447  -45.5163 O.2       1 UNK        -0.5000 
     67 C          -1.0319  -22.5473  -48.2664 C.2       11 UNK         0.5000 
     68 O          -1.2685  -23.4283  -49.0938 O.2       11 UNK        -0.5000 
     69 N          -1.9840  -21.7680  -47.7320 N.am      12 UNK        -0.5000 
     70 CA         -3.4152  -21.9146  -48.0073 C.3       12 UNK         0.1400 
     71 CB         -4.1947  -20.7594  -47.3618 C.3       12 UNK        -0.1800 
     72 C          -3.9713  -23.2752  -47.5494 C.2       12 UNK         0.5000 
     73 O          -4.6979  -23.9166  -48.3080 O.2       12 UNK        -0.5000 
     74 N          -3.5862  -23.7096  -46.3412 N.am      13 UNK        -0.5000 
     75 CA         -3.9343  -25.0132  -45.7759 C.3       13 UNK         0.1400 
     76 CB         -3.5247  -25.0628  -44.2964 C.3       13 UNK        -0.1800 
     77 C          -3.3139  -26.1874  -46.5541 C.2       13 UNK         0.5000 
     78 O          -3.9930  -27.1921  -46.7653 O.2       13 UNK        -0.5000 
     79 N          -2.0555  -26.0325  -46.9914 N.am      14 UNK        -0.5000 
     80 CA         -1.3369  -27.0048  -47.8183 C.3       14 UNK         0.1400 
     81 CB          0.1436  -26.6075  -47.9173 C.3       14 UNK        -0.1800 
     82 C          -1.9538  -27.1656  -49.2204 C.2       14 UNK         0.5000 
     83 O          -2.0609  -28.2903  -49.7108 O.2       14 UNK        -0.5000 
     84 N          -2.3730  -26.0456  -49.8263 N.am      15 UNK        -0.5000 
     85 CA         -3.0957  -26.0104  -51.0996 C.3       15 UNK         0.1400 
     86 CB         -3.0908  -24.5718  -51.6357 C.3       15 UNK        -0.1800 
     87 C          -4.5417  -26.5326  -50.9907 C.2       15 UNK         0.5000 
     88 O          -5.0997  -26.9788  -51.9937 O.2       15 UNK        -0.5000 
     89 N          -5.1257  -26.4385  -49.7878 N.am      16 UNK        -0.5000 
     90 CA         -6.4727  -26.8326  -49.3584 C.3       16 UNK         0.1400 
     91 CB         -6.7298  -28.3334  -49.5894 C.3       16 UNK        -0.1800 
     92 C          -7.5933  -25.9636  -49.9575 C.2       16 UNK         0.5000 
     93 O          -8.4405  -25.4683  -49.2137 O.2       16 UNK        -0.5000 
     94 N          -7.5667  -25.7701  -51.2812 N.am      17 UNK        -0.5000 
     95 CA         -8.4561  -24.8713  -52.0178 C.3       17 UNK         0.1400 
     96 CB         -8.4247  -25.2519  -53.5054 C.3       17 UNK        -0.1800 
     97 C          -8.0792  -23.3885  -51.8353 C.2       17 UNK         0.5000 
     98 O          -8.9433  -22.5244  -51.9879 O.2       17 UNK        -0.5000 
     99 N          -6.7994  -23.1300  -51.5214 N.am      18 UNK        -0.5000 
    100 CA        -6.1431  -21.8413  -51.2691 C.3       18 UNK         0.1400 
    101 CB        -6.7611  -21.1260  -50.0541 C.3       18 UNK        -0.1800 
    102 C         -6.0802  -20.9179  -52.4990 C.2       18 UNK         0.5000 
    103 O         -4.9850  -20.5754  -52.9467 O.2       18 UNK        -0.5000 
    104 N         -7.2475  -20.5570  -53.0446 N.am      19 UNK        -0.5000 
    105 CA        -7.4264  -19.6728  -54.2001 C.3       19 UNK         0.1400 
    106 CB        -8.9179  -19.3307  -54.3335 C.3       19 UNK        -0.1800 
    107 C         -6.8850  -20.2554  -55.5203 C.2       19 UNK         0.5000 
    108 O         -6.5965  -19.4965  -56.4457 O.2       19 UNK        -0.5000 
    109 N         -6.7352  -21.5859  -55.5758 N.am      20 UNK        -0.5000 
    110 CA        -6.0845  -22.3129  -56.6671 C.3       20 UNK         0.1400 
    111 CB        -6.4501  -23.8009  -56.5514 C.3       20 UNK        -0.1800 
    112 C         -4.5504  -22.1397  -56.6784 C.2       20 UNK         0.5000 
    113 O         -3.9228  -22.4221  -57.7001 O.2       20 UNK        -0.5000 
    114 N         -3.9797  -21.6982  -55.5504 N.am      21 UNK        -0.5000 
    115 CA        -2.5614  -21.4309  -55.3565 C.3       21 UNK         0.1400 
    116 CB        -2.0350  -22.3527  -54.2372 C.3       21 UNK        -0.1800 
    117 C         -2.3851  -19.9274  -55.0735 C.2       21 UNK         0.5000 
    118 O         -2.7498  -19.1078  -55.9186 O.2       21 UNK        -0.5000 
    119 N         -1.8164  -19.5887  -53.9119 N.am      22 UNK        -0.5000 
    120 CA        -1.4793  -18.2182  -53.4952 C.3       22 UNK         0.1400 
    121 C         -2.6811  -17.3733  -52.9796 C.2       22 UNK         0.5000 
    122 N         -3.8656  -17.9347  -52.7721 N.am      22 UNK        -0.7600 
    123 O         -2.5368  -16.1717  -52.7723 O.2       22 UNK        -0.5000 
    124 C124       -0.3171  -18.2153  -52.4687 C.3       23 UNK        -0.0398 
    125 S125        1.1777  -19.0457  -53.1151 S.3       23 UNK        -0.2404 
    126 C126        2.4952  -17.8898  -52.6233 C.3       23 UNK        -0.0205 
    127 H127       -0.1535  -11.5548  -50.3147 H         1 UNK         0.0600 
    128 H128        0.8940  -12.9846  -50.3380 H         1 UNK         0.0600 
    129 H129       -0.7429  -13.0810  -50.9712 H         1 UNK         0.0600 
    130 H130       -0.3410  -12.9508  -46.8101 H         1 UNK         0.3000 
    131 H131        1.5147  -11.4495  -48.5459 H         1 UNK         0.0600 
    132 H132        2.3314  -13.4719  -46.3713 H         1 UNK         0.0800 
    133 H133        3.3993  -12.2755  -47.0475 H         1 UNK         0.0800 
    134 H134        2.2873  -15.7083  -47.0971 H         1 UNK         0.0800 
    135 H135        1.0529  -15.3456  -48.2849 H         1 UNK         0.0800 
    136 H136        1.9295  -15.8698  -50.8629 H         1 UNK         0.1150 
    137 H137        3.4628  -19.8720  -51.0362 H         1 UNK         0.1150 
    138 H138        3.1658  -17.8493  -47.2746 H         1 UNK         0.1150 
    139 H139        4.9030  -20.3877  -48.5535 H         1 UNK         0.0800 
    140 H140        3.7626  -20.1175  -47.2592 H         1 UNK         0.0800 
    141 H141        0.7729  -21.1926  -49.5971 H         1 UNK         0.0800 
    142 H142        1.0935  -20.3133  -48.1293 H         1 UNK         0.0800 
    143 H143        0.8985  -23.3279  -47.9382 H         1 UNK         0.0600 
    144 H144        0.8063  -21.1984  -46.0260 H         1 UNK         0.3000 
    145 H145       -0.3835  -23.3032  -43.3406 H         1 UNK         0.0600 
    146 H146        1.6225  -22.2645  -42.3343 H         1 UNK         0.0600 
    147 H147        2.0958  -23.4743  -43.5168 H         1 UNK         0.0600 
    148 H148        2.2021  -21.7672  -43.9223 H         1 UNK         0.0600 
    149 H149        0.0810  -20.5137  -43.3690 H         1 UNK         0.3000 
    150 H150       -3.2614  -19.5154  -44.2714 H         1 UNK         0.0600 
    151 H151       -3.2500  -20.0474  -41.8276 H         1 UNK         0.0600 
    152 H152       -3.0086  -18.3311  -42.1178 H         1 UNK         0.0600 
    153 H153       -1.6410  -19.3505  -41.6766 H         1 UNK         0.0600 
    154 H154       -1.0217  -17.9273  -43.6317 H         1 UNK         0.3000 
    155 H155        0.3545  -17.6356  -46.9417 H         1 UNK         0.0600 
    156 H156       -1.1367  -15.8232  -44.9692 H         1 UNK         0.0600 
    157 H157       -1.3077  -15.8806  -46.7143 H         1 UNK         0.0600 
    158 H158        0.1684  -15.2525  -45.9959 H         1 UNK         0.0600 
    159 H159        1.3700  -16.6836  -44.4916 H         1 UNK         0.3000 
    160 H160        3.3026  -19.5426  -43.5352 H         1 UNK         0.0600 
    161 H161        5.0218  -17.7082  -43.5579 H         1 UNK         0.0600 
    162 H162        4.0141  -16.7886  -44.6768 H         1 UNK         0.0600 
    163 H163        4.6899  -18.3332  -45.1660 H         1 UNK         0.0600 
    164 H164        2.8175  -16.9163  -42.4288 H         1 UNK         0.3000 
    165 H165        0.1420  -17.9073  -40.2779 H         1 UNK         0.0600 
    166 H166        1.6955  -16.9990  -38.5727 H         1 UNK         0.0600 
    167 H167        2.2277  -18.5927  -39.0839 H         1 UNK         0.0600 
    168 H168        3.0575  -17.1608  -39.6817 H         1 UNK         0.0600 
    169 H169        1.5464  -15.4378  -40.6360 H         1 UNK         0.3000 
    170 H170       -0.3619  -14.1565  -43.3279 H         1 UNK         0.0600 
    171 H171       -1.9078  -13.7877  -41.3970 H         1 UNK         0.0600 
    172 H172       -0.5370  -13.4093  -40.3594 H         1 UNK         0.0600 
    173 H173       -0.9346  -12.3615  -41.7213 H         1 UNK         0.0600 
    174 H174        1.5591  -12.9369  -41.6095 H         1 UNK         0.3000 
    175 H175        4.1231  -13.6367  -41.9487 H         1 UNK         0.0600 
    176 H176        4.3989  -13.3352  -44.9823 H         1 UNK         0.0600 
    177 H177        5.6952  -13.1242  -43.8090 H         1 UNK         0.0600 
    178 H178        4.9557  -14.6995  -44.0200 H         1 UNK         0.0600 
    179 H179        3.8138  -11.3149  -43.6741 H         1 UNK         0.3000 
    180 H180        2.4106   -9.2192  -41.1643 H         1 UNK         0.0600 
    181 H181        5.1508   -9.2649  -42.5311 H         1 UNK         0.0600 
    182 H182        4.8490   -9.1791  -40.8036 H         1 UNK         0.0600 
    183 H183        4.3656   -7.8458  -41.8401 H         1 UNK         0.0600 
    184 H184        1.5014   -8.7123  -43.0797 H         1 UNK         0.3000 
    185 H185        0.8914   -8.6110  -45.1628 H         1 UNK         0.0600 
    186 H186        2.4859   -6.7060  -45.4152 H         1 UNK         0.0600 
    187 H187        3.3970   -7.6028  -46.6239 H         1 UNK         0.0600 
    188 H188        1.7383   -7.1021  -46.9549 H         1 UNK         0.0600 
    189 H189        2.3418   -9.6428  -47.4592 H         1 UNK         0.3000 
    190 H190       -1.7196  -21.0215  -47.0944 H         1 UNK         0.3000 
    191 H191       -3.5526  -21.8508  -49.0883 H         1 UNK         0.0600 
    192 H192       -4.0213  -20.7078  -46.2877 H         1 UNK         0.0600 
    193 H193       -5.2682  -20.8735  -47.5095 H         1 UNK         0.0600 
    194 H194       -3.9062  -19.8011  -47.7938 H         1 UNK         0.0600 
    195 H195       -3.0270  -23.0967  -45.7532 H         1 UNK         0.3000 
    196 H196       -5.0199  -25.1191  -45.8293 H         1 UNK         0.0600 
    197 H197       -2.4511  -24.9200  -44.1703 H         1 UNK         0.0600 
    198 H198       -3.7841  -26.0236  -43.8502 H         1 UNK         0.0600 
    199 H199       -4.0337  -24.2891  -43.7215 H         1 UNK         0.0600 
    200 H200       -1.5407  -25.2020  -46.7132 H         1 UNK         0.3000 
    201 H201       -1.3936  -27.9736  -47.3177 H         1 UNK         0.0600 
    202 H202        0.6038  -26.5502  -46.9307 H         1 UNK         0.0600 
    203 H203        0.2692  -25.6397  -48.4024 H         1 UNK         0.0600 
    204 H204        0.7062  -27.3403  -48.4969 H         1 UNK         0.0600 
    205 H205       -2.1785  -25.1494  -49.3885 H         1 UNK         0.3000 
    206 H206       -2.5685  -26.6449  -51.8149 H         1 UNK         0.0600 
    207 H207       -2.0726  -24.2277  -51.8176 H         1 UNK         0.0600 
    208 H208       -3.6349  -24.4982  -52.5783 H         1 UNK         0.0600 
    209 H209       -3.5519  -23.8811  -50.9299 H         1 UNK         0.0600 
    210 H210       -4.5939  -25.9586  -49.0715 H         1 UNK         0.3000 
    211 H211       -6.4899  -26.6634  -48.2805 H         1 UNK         0.0600 
    212 H212       -6.7486  -28.5900  -50.6487 H         1 UNK         0.0600 
    213 H213       -7.6900  -28.6311  -49.1664 H         1 UNK         0.0600 
    214 H214       -5.9610  -28.9401  -49.1105 H         1 UNK         0.0600 
    215 H215       -6.8265  -26.2309  -51.8046 H         1 UNK         0.3000 
    216 H216       -9.4758  -25.0030  -51.6496 H         1 UNK         0.0600 
    217 H217       -9.0582  -24.5888  -54.0962 H         1 UNK         0.0600 
    218 H218       -8.7880  -26.2683  -53.6579 H         1 UNK         0.0600 
    219 H219       -7.4149  -25.1948  -53.9119 H         1 UNK         0.0600 
    220 H220       -6.1978  -23.9343  -51.4251 H         1 UNK         0.3000 
    221 H221       -5.1116  -22.0802  -51.0093 H         1 UNK         0.0600 
    222 H222       -7.7937  -20.8251  -50.2322 H         1 UNK         0.0600 
    223 H223       -6.7519  -21.7730  -49.1770 H         1 UNK         0.0600 
    224 H224       -6.1980  -20.2256  -49.8057 H         1 UNK         0.0600 
    225 H225       -8.0885  -20.9645  -52.6438 H         1 UNK         0.3000 
    226 H226       -6.8770  -18.7499  -54.0034 H         1 UNK         0.0600 
    227 H227       -9.2915  -18.8399  -53.4346 H         1 UNK         0.0600 
    228 H228       -9.0918  -18.6520  -55.1696 H         1 UNK         0.0600 
    229 H229       -9.5204  -20.2241  -54.5031 H         1 UNK         0.0600 
    230 H230       -7.0185  -22.1276  -54.7735 H         1 UNK         0.3000 
    231 H231       -6.4705  -21.9346  -57.6160 H         1 UNK         0.0600 
    232 H232       -7.5306  -23.9464  -56.5481 H         1 UNK         0.0600 
    233 H233       -6.0455  -24.2425  -55.6402 H         1 UNK         0.0600 
    234 H234       -6.0496  -24.3668  -57.3935 H         1 UNK         0.0600 
    235 H235       -4.5749  -21.4232  -54.7777 H         1 UNK         0.3000 
    236 H236       -1.9972  -21.6468  -56.2658 H         1 UNK         0.0600 
    237 H237       -0.9665  -22.2087  -54.0718 H         1 UNK         0.0600 
    238 H238       -2.5517  -22.1792  -53.2923 H         1 UNK         0.0600 
    239 H239       -2.1766  -23.4009  -54.5014 H         1 UNK         0.0600 
    240 H240       -1.5550  -20.3219  -53.2702 H         1 UNK         0.3000 
    241 H241       -1.1204  -17.6911  -54.3815 H         1 UNK         0.0600 
    242 H242       -4.6231  -17.3600  -52.4417 H         1 UNK         0.3800 
    243 H243       -4.0240  -18.9245  -52.9349 H         1 UNK         0.3800 
    244 H244       -0.0614  -17.1910  -52.1921 H         1 UNK         0.0800 
    245 H245       -0.6168  -18.7136  -51.5452 H         1 UNK         0.0800 
    246 H246        3.4287  -18.1968  -53.0971 H         1 UNK         0.0800 
    247 H247        2.2708  -16.8931  -53.0064 H         1 UNK         0.0800 
@<TRIPOS>BOND
     1    1    2 1    
     2    1  127 1    
     3    1  128 1    
     4    1  129 1    
     5    2    3 2    
     6    2    4 am   BACKBONE|DICT|INTERRES
     7    4    5 1    
     8    4  130 1    
     9    5    6 1    
    10    5   65 1    
    11    5  131 1    
    12    6    7 1    
    13    6  132 1    
    14    6  133 1    
    15    7    8 1    
    16    8    9 1    
    17    8  134 1    
    18    8  135 1    
    19    9   10 ar   
    20    9   14 ar   
    21   10   11 ar   
    22   10  136 1    
    23   11   12 ar   
    24   11  126 1    
    25   12   13 ar   
    26   12  137 1    
    27   13   14 ar   
    28   13   15 1    
    29   14  138 1    
    30   15   16 1    
    31   15  139 1    
    32   15  140 1    
    33   16   17 1    
    34   17   18 1    
    35   17  141 1    
    36   17  142 1    
    37   18   19 1    
    38   18   67 1    
    39   18  143 1    
    40   19   20 am   BACKBONE|DICT|INTERRES
    41   19  144 1    
    42   20   21 2    
    43   20   22 1    
    44   22   23 1    
    45   22   24 1    
    46   22  145 1    
    47   23  146 1    
    48   23  147 1    
    49   23  148 1    
    50   24   25 am   BACKBONE|DICT|INTERRES
    51   24  149 1    
    52   25   26 2    
    53   25   27 1    
    54   27   28 1    
    55   27   29 1    
    56   27  150 1    
    57   28  151 1    
    58   28  152 1    
    59   28  153 1    
    60   29   30 am   BACKBONE|DICT|INTERRES
    61   29  154 1    
    62   30   31 2    
    63   30   32 1    
    64   32   33 1    
    65   32   34 1    
    66   32  155 1    
    67   33  156 1    
    68   33  157 1    
    69   33  158 1    
    70   34   35 am   BACKBONE|DICT|INTERRES
    71   34  159 1    
    72   35   36 2    
    73   35   37 1    
    74   37   38 1    
    75   37   39 1    
    76   37  160 1    
    77   38  161 1    
    78   38  162 1    
    79   38  163 1    
    80   39   40 am   BACKBONE|DICT|INTERRES
    81   39  164 1    
    82   40   41 2    
    83   40   42 1    
    84   42   43 1    
    85   42   44 1    
    86   42  165 1    
    87   43  166 1    
    88   43  167 1    
    89   43  168 1    
    90   44   45 am   BACKBONE|DICT|INTERRES
    91   44  169 1    
    92   45   46 2    
    93   45   47 1    
    94   47   48 1    
    95   47   49 1    
    96   47  170 1    
    97   48  171 1    
    98   48  172 1    
    99   48  173 1    
   100   49   50 am   BACKBONE|DICT|INTERRES
   101   49  174 1    
   102   50   51 2    
   103   50   52 1    
   104   52   53 1    
   105   52   54 1    
   106   52  175 1    
   107   53  176 1    
   108   53  177 1    
   109   53  178 1    
   110   54   55 am   BACKBONE|DICT|INTERRES
   111   54  179 1    
   112   55   56 2    
   113   55   57 1    
   114   57   58 1    
   115   57   59 1    
   116   57  180 1    
   117   58  181 1    
   118   58  182 1    
   119   58  183 1    
   120   59   60 am   BACKBONE|DICT|INTERRES
   121   59  184 1    
   122   60   61 2    
   123   60   62 1    
   124   62   63 1    
   125   62   64 1    
   126   62  185 1    
   127   63  186 1    
   128   63  187 1    
   129   63  188 1    
   130   64   65 am   BACKBONE|DICT|INTERRES
   131   64  189 1    
   132   65   66 2    
   133   67   68 2    
   134   67   69 am   BACKBONE|DICT|INTERRES
   135   69   70 1    
   136   69  190 1    
   137   70   71 1    
   138   70   72 1    
   139   70  191 1    
   140   71  192 1    
   141   71  193 1    
   142   71  194 1    
   143   72   73 2    
   144   72   74 am   BACKBONE|DICT|INTERRES
   145   74   75 1    
   146   74  195 1    
   147   75   76 1    
   148   75   77 1    
   149   75  196 1    
   150   76  197 1    
   151   76  198 1    
   152   76  199 1    
   153   77   78 2    
   154   77   79 am   BACKBONE|DICT|INTERRES
   155   79   80 1    
   156   79  200 1    
   157   80   81 1    
   158   80   82 1    
   159   80  201 1    
   160   81  202 1    
   161   81  203 1    
   162   81  204 1    
   163   82   83 2    
   164   82   84 am   BACKBONE|DICT|INTERRES
   165   84   85 1    
   166   84  205 1    
   167   85   86 1    
   168   85   87 1    
   169   85  206 1    
   170   86  207 1    
   171   86  208 1    
   172   86  209 1    
   173   87   88 2    
   174   87   89 am   BACKBONE|DICT|INTERRES
   175   89   90 1    
   176   89  210 1    
   177   90   91 1    
   178   90   92 1    
   179   90  211 1    
   180   91  212 1    
   181   91  213 1    
   182   91  214 1    
   183   92   93 2    
   184   92   94 am   BACKBONE|DICT|INTERRES
   185   94   95 1    
   186   94  215 1    
   187   95   96 1    
   188   95   97 1    
   189   95  216 1    
   190   96  217 1    
   191   96  218 1    
   192   96  219 1    
   193   97   98 2    
   194   97   99 am   BACKBONE|DICT|INTERRES
   195   99  100 1    
   196   99  220 1    
   197  100  101 1    
   198  100  102 1    
   199  100  221 1    
   200  101  222 1    
   201  101  223 1    
   202  101  224 1    
   203  102  103 2    
   204  102  104 am   BACKBONE|DICT|INTERRES
   205  104  105 1    
   206  104  225 1    
   207  105  106 1    
   208  105  107 1    
   209  105  226 1    
   210  106  227 1    
   211  106  228 1    
   212  106  229 1    
   213  107  108 2    
   214  107  109 am   BACKBONE|DICT|INTERRES
   215  109  110 1    
   216  109  230 1    
   217  110  111 1    
   218  110  112 1    
   219  110  231 1    
   220  111  232 1    
   221  111  233 1    
   222  111  234 1    
   223  112  113 2    
   224  112  114 am   BACKBONE|DICT|INTERRES
   225  114  115 1    
   226  114  235 1    
   227  115  116 1    
   228  115  117 1    
   229  115  236 1    
   230  116  237 1    
   231  116  238 1    
   232  116  239 1    
   233  117  118 2    
   234  117  119 am   BACKBONE|DICT|INTERRES
   235  119  120 1    
   236  119  240 1    
   237  120  121 1    
   238  120  124 1    
   239  120  241 1    
   240  121  122 am   BACKBONE|DICT|INTERRES
   241  121  123 2    
   242  122  242 1    
   243  122  243 1    
   244  124  125 1    
   245  124  244 1    
   246  124  245 1    
   247  125  126 1    
   248  126  246 1    
   249  126  247 1    
@<TRIPOS>SUBSTRUCTURE
     1 UNK         1 GROUP             0       ****    0 ROOT    
