@<TRIPOS>MOLECULE
3R540
247   249    1
SMALL
USER_CHARGES


@<TRIPOS>ATOM
      1 CA          7.9833  -11.1899  -48.0678 C.3       0 UNK        -0.1800 
      2 C           6.5800  -11.7281  -47.8263 C.2       0 UNK         0.5000 
      3 O           5.6190  -10.9600  -47.8540 O.2       0 UNK        -0.5000 
      4 N           6.4631  -13.0441  -47.5973 N.am      1 UNK        -0.5000 
      5 CA          5.2136  -13.7650  -47.3105 C.3       1 UNK         0.1400 
      6 C6          4.1781  -13.6701  -48.4690 C.3       23 UNK        -0.0398 
      7 S7          3.2574  -15.2263  -48.7141 S.3       23 UNK        -0.2404 
      8 C8          3.7993  -15.6836  -50.3892 C.3       23 UNK        -0.0205 
      9 C9          3.1438  -16.9757  -50.8459 C.ar      23 UNK        -0.0193 
     10 C10         1.8967  -16.9486  -51.4752 C.ar      23 UNK        -0.1150 
     11 C11         1.2857  -18.1346  -51.8919 C.ar      23 UNK        -0.0193 
     12 C12         1.9288  -19.3557  -51.6671 C.ar      23 UNK        -0.1150 
     13 C13         3.1802  -19.3960  -51.0421 C.ar      23 UNK        -0.0193 
     14 C14         3.7857  -18.1997  -50.6435 C.ar      23 UNK        -0.1150 
     15 C15         3.8724  -20.7342  -50.8044 C.3       23 UNK        -0.0205 
     16 S16         4.4531  -20.9682  -49.0869 S.3       23 UNK        -0.2404 
     17 C17         2.9252  -20.7096  -48.1210 C.3       23 UNK        -0.0398 
     18 CA          2.2280  -22.0126  -47.6633 C.3       11 UNK         0.1400 
     19 N           1.2265  -21.7386  -46.6296 N.am      11 UNK        -0.5000 
     20 C           0.6432  -22.6571  -45.8475 C.2       10 UNK         0.5000 
     21 O           0.9411  -23.8515  -45.8564 O.2       10 UNK        -0.5000 
     22 CA         -0.4485  -22.1588  -44.8797 C.3       10 UNK         0.1400 
     23 CB          0.1699  -21.7547  -43.5330 C.3       10 UNK        -0.1800 
     24 N          -1.2202  -21.0352  -45.4139 N.am      10 UNK        -0.5000 
     25 C          -2.1130  -21.1384  -46.4089 C.2       9 UNK         0.5000 
     26 O          -2.4295  -22.2057  -46.9294 O.2       9 UNK        -0.5000 
     27 CA         -2.7408  -19.8301  -46.9275 C.3       9 UNK         0.1400 
     28 CB         -3.9145  -19.4030  -46.0344 C.3       9 UNK        -0.1800 
     29 N          -1.7866  -18.7246  -47.0198 N.am      9 UNK        -0.5000 
     30 C          -0.6709  -18.7263  -47.7631 C.2       8 UNK         0.5000 
     31 O          -0.3214  -19.6714  -48.4688 O.2       8 UNK        -0.5000 
     32 CA          0.2473  -17.4976  -47.6188 C.3       8 UNK         0.1400 
     33 CB         -0.3100  -16.2783  -48.3710 C.3       8 UNK        -0.1800 
     34 N           0.4461  -17.1438  -46.2134 N.am      8 UNK        -0.5000 
     35 C           1.0882  -17.9070  -45.3189 C.2       7 UNK         0.5000 
     36 O           1.6175  -18.9831  -45.5896 O.2       7 UNK        -0.5000 
     37 CA          1.0956  -17.4062  -43.8657 C.3       7 UNK         0.1400 
     38 CB          2.1966  -16.3583  -43.6581 C.3       7 UNK        -0.1800 
     39 N          -0.1977  -16.8466  -43.4735 N.am      7 UNK        -0.5000 
     40 C          -1.3082  -17.5802  -43.3028 C.2       6 UNK         0.5000 
     41 O          -1.3401  -18.8047  -43.4199 O.2       6 UNK        -0.5000 
     42 CA         -2.6110  -16.8185  -42.9912 C.3       6 UNK         0.1400 
     43 CB         -2.7668  -16.6176  -41.4766 C.3       6 UNK        -0.1800 
     44 N          -2.6917  -15.5189  -43.6580 N.am      6 UNK        -0.5000 
     45 C          -2.6614  -15.3268  -44.9847 C.2       5 UNK         0.5000 
     46 O          -2.6329  -16.2448  -45.8034 O.2       5 UNK        -0.5000 
     47 CA         -2.6123  -13.8684  -45.4810 C.3       5 UNK         0.1400 
     48 CB         -3.9971  -13.4234  -45.9738 C.3       5 UNK        -0.1800 
     49 N          -2.1317  -12.9163  -44.4729 N.am      5 UNK        -0.5000 
     50 C          -0.8924  -12.8965  -43.9646 C.2       4 UNK         0.5000 
     51 O          -0.0072  -13.6963  -44.2765 O.2       4 UNK        -0.5000 
     52 CA         -0.6223  -11.8512  -42.8778 C.3       4 UNK         0.1400 
     53 CB         -0.9079  -12.4388  -41.4834 C.3       4 UNK        -0.1800 
     54 N           0.7678  -11.4138  -42.9617 N.am      4 UNK        -0.5000 
     55 C           1.2249  -10.2378  -42.5108 C.2       3 UNK         0.5000 
     56 O           0.5034   -9.4022  -41.9631 O.2       3 UNK        -0.5000 
     57 CA          2.7266   -9.9414  -42.6902 C.3       3 UNK         0.1400 
     58 CB          3.3017   -9.0755  -41.5521 C.3       3 UNK        -0.1800 
     59 N           3.5073  -11.1729  -42.8092 N.am      3 UNK        -0.5000 
     60 C           4.5919  -11.3223  -43.5780 C.2       2 UNK         0.5000 
     61 O           5.0736  -10.4145  -44.2590 O.2       2 UNK        -0.5000 
     62 CA          5.2770  -12.7069  -43.5849 C.3       2 UNK         0.1400 
     63 CB          4.5331  -13.7899  -42.7714 C.3       2 UNK        -0.1800 
     64 N           5.5388  -13.1680  -44.9522 N.am      2 UNK        -0.5000 
     65 C           4.6360  -13.3928  -45.9212 C.2       1 UNK         0.5000 
     66 O           3.4187  -13.3086  -45.7514 O.2       1 UNK        -0.5000 
     67 C           1.6215  -22.7875  -48.8524 C.2       11 UNK         0.5000 
     68 O           2.2698  -23.6960  -49.3759 O.2       11 UNK        -0.5000 
     69 N           0.3919  -22.4279  -49.2498 N.am      12 UNK        -0.5000 
     70 CA         -0.3883  -23.1120  -50.2800 C.3       12 UNK         0.1400 
     71 CB         -1.7045  -22.3536  -50.5030 C.3       12 UNK        -0.1800 
     72 C          -0.6663  -24.5833  -49.9153 C.2       12 UNK         0.5000 
     73 O          -0.9444  -24.8859  -48.7538 O.2       12 UNK        -0.5000 
     74 N          -0.6053  -25.4680  -50.9207 N.am      13 UNK        -0.5000 
     75 CA         -0.6693  -26.9289  -50.7752 C.3       13 UNK         0.1400 
     76 CB         -0.4546  -27.5732  -52.1535 C.3       13 UNK        -0.1800 
     77 C          -1.9567  -27.4749  -50.1244 C.2       13 UNK         0.5000 
     78 O          -1.9321  -28.5697  -49.5609 O.2       13 UNK        -0.5000 
     79 N          -3.0486  -26.7049  -50.2022 N.am      14 UNK        -0.5000 
     80 CA         -4.3256  -27.0052  -49.5581 C.3       14 UNK         0.1400 
     81 CB         -5.4162  -26.1549  -50.2221 C.3       14 UNK        -0.1800 
     82 C          -4.3223  -26.7554  -48.0368 C.2       14 UNK         0.5000 
     83 O          -5.1871  -27.2979  -47.3478 O.2       14 UNK        -0.5000 
     84 N          -3.3834  -25.9271  -47.5483 N.am      15 UNK        -0.5000 
     85 CA         -3.2671  -25.4330  -46.1710 C.3       15 UNK         0.1400 
     86 CB         -2.8563  -26.5720  -45.2151 C.3       15 UNK        -0.1800 
     87 C          -4.5294  -24.6711  -45.7044 C.2       15 UNK         0.5000 
     88 O          -4.9518  -24.8097  -44.5544 O.2       15 UNK        -0.5000 
     89 N          -5.1238  -23.8985  -46.6200 N.am      16 UNK        -0.5000 
     90 CA         -6.3619  -23.1525  -46.4427 C.3       16 UNK         0.1400 
     91 CB         -7.5623  -24.0728  -46.7241 C.3       16 UNK        -0.1800 
     92 C          -6.3546  -21.9551  -47.3997 C.2       16 UNK         0.5000 
     93 O          -5.6659  -21.9884  -48.4222 O.2       16 UNK        -0.5000 
     94 N          -7.1155  -20.9120  -47.0536 N.am      17 UNK        -0.5000 
     95 CA         -7.2588  -19.7057  -47.8651 C.3       17 UNK         0.1400 
     96 CB         -7.8427  -18.5806  -46.9976 C.3       17 UNK        -0.1800 
     97 C          -8.1453  -19.9636  -49.0966 C.2       17 UNK         0.5000 
     98 O          -9.1815  -20.6211  -48.9748 O.2       17 UNK        -0.5000 
     99 N          -7.7245  -19.4132  -50.2425 N.am      18 UNK        -0.5000 
    100 CA        -8.3737  -19.4785  -51.5563 C.3       18 UNK         0.1400 
    101 CB        -9.7010  -18.6911  -51.5447 C.3       18 UNK        -0.1800 
    102 C         -8.5254  -20.9163  -52.1019 C.2       18 UNK         0.5000 
    103 O         -9.5436  -21.2378  -52.7183 O.2       18 UNK        -0.5000 
    104 N         -7.5066  -21.7540  -51.8760 N.am      19 UNK        -0.5000 
    105 CA        -7.4416  -23.1402  -52.3295 C.3       19 UNK         0.1400 
    106 CB        -7.9267  -24.0605  -51.1997 C.3       19 UNK        -0.1800 
    107 C         -6.0016  -23.4677  -52.7504 C.2       19 UNK         0.5000 
    108 O         -5.0560  -22.9674  -52.1374 O.2       19 UNK        -0.5000 
    109 N         -5.8472  -24.2947  -53.7921 N.am      20 UNK        -0.5000 
    110 CA        -4.5780  -24.5972  -54.4634 C.3       20 UNK         0.1400 
    111 CB        -3.6454  -25.4319  -53.5535 C.3       20 UNK        -0.1800 
    112 C         -3.9352  -23.3070  -55.0195 C.2       20 UNK         0.5000 
    113 O         -4.5027  -22.7090  -55.9355 O.2       20 UNK        -0.5000 
    114 N         -2.7872  -22.8969  -54.4634 N.am      21 UNK        -0.5000 
    115 CA        -2.0688  -21.6819  -54.8458 C.3       21 UNK         0.1400 
    116 CB        -0.6383  -21.7356  -54.2839 C.3       21 UNK        -0.1800 
    117 C         -2.7887  -20.3938  -54.4007 C.2       21 UNK         0.5000 
    118 O         -2.9390  -19.4790  -55.2114 O.2       21 UNK        -0.5000 
    119 N         -3.2126  -20.3432  -53.1310 N.am      22 UNK        -0.5000 
    120 CA        -3.8374  -19.1707  -52.4912 C.3       22 UNK         0.1400 
    121 C         -4.5080  -19.4749  -51.1174 C.2       22 UNK         0.5000 
    122 N         -4.6441  -20.7247  -50.6959 N.am      22 UNK        -0.7600 
    123 O         -4.9588  -18.5624  -50.4300 O.2       22 UNK        -0.5000 
    124 C124       -2.8900  -17.9378  -52.4148 C.3       23 UNK        -0.0398 
    125 S125       -1.4148  -18.2145  -51.3766 S.3       23 UNK        -0.2404 
    126 C126       -0.0671  -18.0908  -52.5848 C.3       23 UNK        -0.0205 
    127 H127        8.2336  -10.4448  -47.3126 H         1 UNK         0.0600 
    128 H128        8.0400  -10.7160  -49.0477 H         1 UNK         0.0600 
    129 H129        8.7340  -11.9796  -48.0283 H         1 UNK         0.0600 
    130 H130        7.2973  -13.6152  -47.6034 H         1 UNK         0.3000 
    131 H131        5.5218  -14.8080  -47.2216 H         1 UNK         0.0600 
    132 H132        3.4713  -12.8527  -48.3158 H         1 UNK         0.0800 
    133 H133        4.6870  -13.4283  -49.4028 H         1 UNK         0.0800 
    134 H134        3.5533  -14.8792  -51.0842 H         1 UNK         0.0800 
    135 H135        4.8856  -15.7867  -50.4047 H         1 UNK         0.0800 
    136 H136        1.3972  -16.0032  -51.6340 H         1 UNK         0.1150 
    137 H137        1.4500  -20.2739  -51.9773 H         1 UNK         0.1150 
    138 H138        4.7521  -18.2234  -50.1596 H         1 UNK         0.1150 
    139 H139        3.2116  -21.5611  -51.0674 H         1 UNK         0.0800 
    140 H140        4.7297  -20.8055  -51.4747 H         1 UNK         0.0800 
    141 H141        3.2271  -20.1373  -47.2440 H         1 UNK         0.0800 
    142 H142        2.2329  -20.0656  -48.6617 H         1 UNK         0.0800 
    143 H143        2.9856  -22.6545  -47.2088 H         1 UNK         0.0600 
    144 H144        0.9602  -20.7677  -46.5132 H         1 UNK         0.3000 
    145 H145       -1.1349  -22.9890  -44.7003 H         1 UNK         0.0600 
    146 H146       -0.6008  -21.4819  -42.8119 H         1 UNK         0.0600 
    147 H147        0.7420  -22.5773  -43.1020 H         1 UNK         0.0600 
    148 H148        0.8444  -20.9043  -43.6395 H         1 UNK         0.0600 
    149 H149       -1.0635  -20.1295  -44.9852 H         1 UNK         0.3000 
    150 H150       -3.1241  -20.0236  -47.9321 H         1 UNK         0.0600 
    151 H151       -4.6210  -20.2193  -45.8943 H         1 UNK         0.0600 
    152 H152       -4.4587  -18.5658  -46.4718 H         1 UNK         0.0600 
    153 H153       -3.5741  -19.1016  -45.0447 H         1 UNK         0.0600 
    154 H154       -2.0113  -17.8865  -46.4893 H         1 UNK         0.3000 
    155 H155        1.2220  -17.7445  -48.0456 H         1 UNK         0.0600 
    156 H156        0.2650  -15.3786  -48.1530 H         1 UNK         0.0600 
    157 H157       -1.3511  -16.0779  -48.1187 H         1 UNK         0.0600 
    158 H158       -0.2583  -16.4341  -49.4471 H         1 UNK         0.0600 
    159 H159        0.0142  -16.2890  -45.8947 H         1 UNK         0.3000 
    160 H160        1.3111  -18.2582  -43.2171 H         1 UNK         0.0600 
    161 H161        2.0461  -15.4852  -44.2943 H         1 UNK         0.0600 
    162 H162        3.1778  -16.7701  -43.8973 H         1 UNK         0.0600 
    163 H163        2.2282  -16.0204  -42.6223 H         1 UNK         0.0600 
    164 H164       -0.2567  -15.8386  -43.4095 H         1 UNK         0.3000 
    165 H165       -3.4462  -17.4263  -43.3436 H         1 UNK         0.0600 
    166 H166       -1.9754  -15.9865  -41.0699 H         1 UNK         0.0600 
    167 H167       -3.7237  -16.1539  -41.2361 H         1 UNK         0.0600 
    168 H168       -2.7287  -17.5724  -40.9504 H         1 UNK         0.0600 
    169 H169       -2.7273  -14.7059  -43.0623 H         1 UNK         0.3000 
    170 H170       -1.9221  -13.8390  -46.3268 H         1 UNK         0.0600 
    171 H171       -4.3716  -14.0965  -46.7465 H         1 UNK         0.0600 
    172 H172       -4.7285  -13.4134  -45.1647 H         1 UNK         0.0600 
    173 H173       -3.9598  -12.4237  -46.4071 H         1 UNK         0.0600 
    174 H174       -2.8029  -12.2336  -44.1505 H         1 UNK         0.3000 
    175 H175       -1.2797  -10.9966  -43.0531 H         1 UNK         0.0600 
    176 H176       -0.7551  -11.6958  -40.7007 H         1 UNK         0.0600 
    177 H177       -1.9403  -12.7815  -41.4043 H         1 UNK         0.0600 
    178 H178       -0.2608  -13.2899  -41.2669 H         1 UNK         0.0600 
    179 H179        1.3782  -12.0382  -43.4748 H         1 UNK         0.3000 
    180 H180        2.8025   -9.3752  -43.6207 H         1 UNK         0.0600 
    181 H181        4.3537   -8.8462  -41.7230 H         1 UNK         0.0600 
    182 H182        2.7756   -8.1234  -41.4739 H         1 UNK         0.0600 
    183 H183        3.2206   -9.5787  -40.5881 H         1 UNK         0.0600 
    184 H184        3.1798  -11.9604  -42.2674 H         1 UNK         0.3000 
    185 H185        6.2537  -12.5627  -43.1210 H         1 UNK         0.0600 
    186 H186        5.0352  -14.7542  -42.8510 H         1 UNK         0.0600 
    187 H187        4.5004  -13.5345  -41.7117 H         1 UNK         0.0600 
    188 H188        3.5075  -13.9217  -43.1140 H         1 UNK         0.0600 
    189 H189        6.5142  -13.2202  -45.2087 H         1 UNK         0.3000 
    190 H190       -0.0540  -21.6400  -48.7899 H         1 UNK         0.3000 
    191 H191        0.1932  -23.0804  -51.2033 H         1 UNK         0.0600 
    192 H192       -1.5198  -21.3140  -50.7747 H         1 UNK         0.0600 
    193 H193       -2.3255  -22.3543  -49.6065 H         1 UNK         0.0600 
    194 H194       -2.2888  -22.8082  -51.3029 H         1 UNK         0.0600 
    195 H195       -0.3719  -25.1337  -51.8437 H         1 UNK         0.3000 
    196 H196        0.1608  -27.2237  -50.1299 H         1 UNK         0.0600 
    197 H197       -0.4513  -28.6616  -52.0805 H         1 UNK         0.0600 
    198 H198        0.5017  -27.2770  -52.5851 H         1 UNK         0.0600 
    199 H199       -1.2419  -27.2954  -52.8546 H         1 UNK         0.0600 
    200 H200       -2.9747  -25.8173  -50.6745 H         1 UNK         0.3000 
    201 H201       -4.5636  -28.0585  -49.7213 H         1 UNK         0.0600 
    202 H202       -5.5117  -26.3882  -51.2820 H         1 UNK         0.0600 
    203 H203       -5.2025  -25.0893  -50.1276 H         1 UNK         0.0600 
    204 H204       -6.3885  -26.3378  -49.7625 H         1 UNK         0.0600 
    205 H205       -2.6795  -25.5608  -48.1834 H         1 UNK         0.3000 
    206 H206       -2.4524  -24.7088  -46.1776 H         1 UNK         0.0600 
    207 H207       -1.9581  -27.0773  -45.5702 H         1 UNK         0.0600 
    208 H208       -2.6376  -26.1853  -44.2192 H         1 UNK         0.0600 
    209 H209       -3.6436  -27.3190  -45.1108 H         1 UNK         0.0600 
    210 H210       -4.6733  -23.7516  -47.5151 H         1 UNK         0.3000 
    211 H211       -6.4160  -22.7759  -45.4191 H         1 UNK         0.0600 
    212 H212       -7.5264  -24.4774  -47.7366 H         1 UNK         0.0600 
    213 H213       -8.5048  -23.5346  -46.6175 H         1 UNK         0.0600 
    214 H214       -7.5873  -24.9135  -46.0305 H         1 UNK         0.0600 
    215 H215       -7.6928  -20.9696  -46.2278 H         1 UNK         0.3000 
    216 H216       -6.2659  -19.3948  -48.1969 H         1 UNK         0.0600 
    217 H217       -7.9370  -17.6573  -47.5706 H         1 UNK         0.0600 
    218 H218       -7.2001  -18.3676  -46.1431 H         1 UNK         0.0600 
    219 H219       -8.8335  -18.8356  -46.6195 H         1 UNK         0.0600 
    220 H220       -6.8260  -18.9353  -50.2329 H         1 UNK         0.3000 
    221 H221       -7.7008  -18.9692  -52.2476 H         1 UNK         0.0600 
    222 H222      -10.4506  -19.1698  -50.9139 H         1 UNK         0.0600 
    223 H223       -9.5534  -17.6753  -51.1781 H         1 UNK         0.0600 
    224 H224      -10.1198  -18.6140  -52.5487 H         1 UNK         0.0600 
    225 H225       -6.6850  -21.4234  -51.3853 H         1 UNK         0.3000 
    226 H226       -8.0851  -23.2778  -53.2009 H         1 UNK         0.0600 
    227 H227       -8.9680  -23.8573  -50.9492 H         1 UNK         0.0600 
    228 H228       -7.8613  -25.1092  -51.4905 H         1 UNK         0.0600 
    229 H229       -7.3369  -23.9225  -50.2928 H         1 UNK         0.0600 
    230 H230       -6.6735  -24.6533  -54.2496 H         1 UNK         0.3000 
    231 H231       -4.8228  -25.2125  -55.3304 H         1 UNK         0.0600 
    232 H232       -2.7210  -25.6869  -54.0728 H         1 UNK         0.0600 
    233 H233       -4.1192  -26.3725  -53.2735 H         1 UNK         0.0600 
    234 H234       -3.3784  -24.9116  -52.6343 H         1 UNK         0.0600 
    235 H235       -2.3998  -23.4430  -53.7105 H         1 UNK         0.3000 
    236 H236       -1.9968  -21.6635  -55.9356 H         1 UNK         0.0600 
    237 H237       -0.6247  -21.6987  -53.1948 H         1 UNK         0.0600 
    238 H238       -0.1240  -22.6443  -54.5967 H         1 UNK         0.0600 
    239 H239       -0.0490  -20.8932  -54.6473 H         1 UNK         0.0600 
    240 H240       -3.0698  -21.1407  -52.5320 H         1 UNK         0.3000 
    241 H241       -4.6737  -18.8899  -53.1333 H         1 UNK         0.0600 
    242 H242       -5.0167  -20.9269  -49.7720 H         1 UNK         0.3800 
    243 H243       -4.4716  -21.5258  -51.2975 H         1 UNK         0.3800 
    244 H244       -2.5806  -17.6321  -53.4138 H         1 UNK         0.0800 
    245 H245       -3.4243  -17.0753  -52.0133 H         1 UNK         0.0800 
    246 H246       -0.1658  -17.1618  -53.1483 H         1 UNK         0.0800 
    247 H247       -0.1504  -18.9027  -53.3068 H         1 UNK         0.0800 
@<TRIPOS>BOND
     1    1    2 1    
     2    1  127 1    
     3    1  128 1    
     4    1  129 1    
     5    2    3 2    
     6    2    4 am   BACKBONE|DICT|INTERRES
     7    4    5 1    
     8    4  130 1    
     9    5    6 1    
    10    5   65 1    
    11    5  131 1    
    12    6    7 1    
    13    6  132 1    
    14    6  133 1    
    15    7    8 1    
    16    8    9 1    
    17    8  134 1    
    18    8  135 1    
    19    9   10 ar   
    20    9   14 ar   
    21   10   11 ar   
    22   10  136 1    
    23   11   12 ar   
    24   11  126 1    
    25   12   13 ar   
    26   12  137 1    
    27   13   14 ar   
    28   13   15 1    
    29   14  138 1    
    30   15   16 1    
    31   15  139 1    
    32   15  140 1    
    33   16   17 1    
    34   17   18 1    
    35   17  141 1    
    36   17  142 1    
    37   18   19 1    
    38   18   67 1    
    39   18  143 1    
    40   19   20 am   BACKBONE|DICT|INTERRES
    41   19  144 1    
    42   20   21 2    
    43   20   22 1    
    44   22   23 1    
    45   22   24 1    
    46   22  145 1    
    47   23  146 1    
    48   23  147 1    
    49   23  148 1    
    50   24   25 am   BACKBONE|DICT|INTERRES
    51   24  149 1    
    52   25   26 2    
    53   25   27 1    
    54   27   28 1    
    55   27   29 1    
    56   27  150 1    
    57   28  151 1    
    58   28  152 1    
    59   28  153 1    
    60   29   30 am   BACKBONE|DICT|INTERRES
    61   29  154 1    
    62   30   31 2    
    63   30   32 1    
    64   32   33 1    
    65   32   34 1    
    66   32  155 1    
    67   33  156 1    
    68   33  157 1    
    69   33  158 1    
    70   34   35 am   BACKBONE|DICT|INTERRES
    71   34  159 1    
    72   35   36 2    
    73   35   37 1    
    74   37   38 1    
    75   37   39 1    
    76   37  160 1    
    77   38  161 1    
    78   38  162 1    
    79   38  163 1    
    80   39   40 am   BACKBONE|DICT|INTERRES
    81   39  164 1    
    82   40   41 2    
    83   40   42 1    
    84   42   43 1    
    85   42   44 1    
    86   42  165 1    
    87   43  166 1    
    88   43  167 1    
    89   43  168 1    
    90   44   45 am   BACKBONE|DICT|INTERRES
    91   44  169 1    
    92   45   46 2    
    93   45   47 1    
    94   47   48 1    
    95   47   49 1    
    96   47  170 1    
    97   48  171 1    
    98   48  172 1    
    99   48  173 1    
   100   49   50 am   BACKBONE|DICT|INTERRES
   101   49  174 1    
   102   50   51 2    
   103   50   52 1    
   104   52   53 1    
   105   52   54 1    
   106   52  175 1    
   107   53  176 1    
   108   53  177 1    
   109   53  178 1    
   110   54   55 am   BACKBONE|DICT|INTERRES
   111   54  179 1    
   112   55   56 2    
   113   55   57 1    
   114   57   58 1    
   115   57   59 1    
   116   57  180 1    
   117   58  181 1    
   118   58  182 1    
   119   58  183 1    
   120   59   60 am   BACKBONE|DICT|INTERRES
   121   59  184 1    
   122   60   61 2    
   123   60   62 1    
   124   62   63 1    
   125   62   64 1    
   126   62  185 1    
   127   63  186 1    
   128   63  187 1    
   129   63  188 1    
   130   64   65 am   BACKBONE|DICT|INTERRES
   131   64  189 1    
   132   65   66 2    
   133   67   68 2    
   134   67   69 am   BACKBONE|DICT|INTERRES
   135   69   70 1    
   136   69  190 1    
   137   70   71 1    
   138   70   72 1    
   139   70  191 1    
   140   71  192 1    
   141   71  193 1    
   142   71  194 1    
   143   72   73 2    
   144   72   74 am   BACKBONE|DICT|INTERRES
   145   74   75 1    
   146   74  195 1    
   147   75   76 1    
   148   75   77 1    
   149   75  196 1    
   150   76  197 1    
   151   76  198 1    
   152   76  199 1    
   153   77   78 2    
   154   77   79 am   BACKBONE|DICT|INTERRES
   155   79   80 1    
   156   79  200 1    
   157   80   81 1    
   158   80   82 1    
   159   80  201 1    
   160   81  202 1    
   161   81  203 1    
   162   81  204 1    
   163   82   83 2    
   164   82   84 am   BACKBONE|DICT|INTERRES
   165   84   85 1    
   166   84  205 1    
   167   85   86 1    
   168   85   87 1    
   169   85  206 1    
   170   86  207 1    
   171   86  208 1    
   172   86  209 1    
   173   87   88 2    
   174   87   89 am   BACKBONE|DICT|INTERRES
   175   89   90 1    
   176   89  210 1    
   177   90   91 1    
   178   90   92 1    
   179   90  211 1    
   180   91  212 1    
   181   91  213 1    
   182   91  214 1    
   183   92   93 2    
   184   92   94 am   BACKBONE|DICT|INTERRES
   185   94   95 1    
   186   94  215 1    
   187   95   96 1    
   188   95   97 1    
   189   95  216 1    
   190   96  217 1    
   191   96  218 1    
   192   96  219 1    
   193   97   98 2    
   194   97   99 am   BACKBONE|DICT|INTERRES
   195   99  100 1    
   196   99  220 1    
   197  100  101 1    
   198  100  102 1    
   199  100  221 1    
   200  101  222 1    
   201  101  223 1    
   202  101  224 1    
   203  102  103 2    
   204  102  104 am   BACKBONE|DICT|INTERRES
   205  104  105 1    
   206  104  225 1    
   207  105  106 1    
   208  105  107 1    
   209  105  226 1    
   210  106  227 1    
   211  106  228 1    
   212  106  229 1    
   213  107  108 2    
   214  107  109 am   BACKBONE|DICT|INTERRES
   215  109  110 1    
   216  109  230 1    
   217  110  111 1    
   218  110  112 1    
   219  110  231 1    
   220  111  232 1    
   221  111  233 1    
   222  111  234 1    
   223  112  113 2    
   224  112  114 am   BACKBONE|DICT|INTERRES
   225  114  115 1    
   226  114  235 1    
   227  115  116 1    
   228  115  117 1    
   229  115  236 1    
   230  116  237 1    
   231  116  238 1    
   232  116  239 1    
   233  117  118 2    
   234  117  119 am   BACKBONE|DICT|INTERRES
   235  119  120 1    
   236  119  240 1    
   237  120  121 1    
   238  120  124 1    
   239  120  241 1    
   240  121  122 am   BACKBONE|DICT|INTERRES
   241  121  123 2    
   242  122  242 1    
   243  122  243 1    
   244  124  125 1    
   245  124  244 1    
   246  124  245 1    
   247  125  126 1    
   248  126  246 1    
   249  126  247 1    
@<TRIPOS>SUBSTRUCTURE
     1 UNK         1 GROUP             0       ****    0 ROOT    
