@<TRIPOS>MOLECULE
3R540
247   249    1
SMALL
USER_CHARGES


@<TRIPOS>ATOM
      1 CA          1.0350  -10.5811  -47.3176 C.3       0 UNK        -0.1800 
      2 C           0.0613  -11.6543  -46.8582 C.2       0 UNK         0.5000 
      3 O           0.1647  -12.1377  -45.7321 O.2       0 UNK        -0.5000 
      4 N          -0.8971  -12.0313  -47.7110 N.am      1 UNK        -0.5000 
      5 CA         -1.8742  -13.1097  -47.4807 C.3       1 UNK         0.1400 
      6 C6         -2.6295  -13.4754  -48.7803 C.3       23 UNK        -0.0398 
      7 S7         -1.4703  -14.0484  -50.0695 S.3       23 UNK        -0.2404 
      8 C8         -1.7429  -15.8445  -50.0130 C.3       23 UNK        -0.0205 
      9 C9         -0.5265  -16.6109  -50.5070 C.ar      23 UNK        -0.0193 
     10 C10        -0.2095  -16.6365  -51.8680 C.ar      23 UNK        -0.1150 
     11 C11         0.8957  -17.3596  -52.3281 C.ar      23 UNK        -0.0193 
     12 C12         1.6758  -18.0770  -51.4155 C.ar      23 UNK        -0.1150 
     13 C13         1.3662  -18.0620  -50.0516 C.ar      23 UNK        -0.0193 
     14 C14         0.2750  -17.3122  -49.6030 C.ar      23 UNK        -0.1150 
     15 C15         2.2128  -18.8492  -49.0613 C.3       23 UNK        -0.0205 
     16 S16         1.5920  -20.5452  -48.8187 S.3       23 UNK        -0.2404 
     17 C17         0.0698  -20.2518  -47.8558 C.3       23 UNK        -0.0398 
     18 CA         -0.6810  -21.5644  -47.5406 C.3       11 UNK         0.1400 
     19 N           0.1001  -22.4802  -46.7064 N.am      11 UNK        -0.5000 
     20 C          -0.2056  -23.7711  -46.5147 C.2       10 UNK         0.5000 
     21 O          -1.1711  -24.3297  -47.0328 O.2       10 UNK        -0.5000 
     22 CA          0.6855  -24.5480  -45.5304 C.3       10 UNK         0.1400 
     23 CB          1.9766  -25.0161  -46.2175 C.3       10 UNK        -0.1800 
     24 N           1.0241  -23.7604  -44.3447 N.am      10 UNK        -0.5000 
     25 C           0.1424  -23.2823  -43.4587 C.2       9 UNK         0.5000 
     26 O          -1.0704  -23.4759  -43.5362 O.2       9 UNK        -0.5000 
     27 CA          0.6889  -22.3954  -42.3286 C.3       9 UNK         0.1400 
     28 CB          1.2749  -23.2378  -41.1805 C.3       9 UNK        -0.1800 
     29 N           1.6248  -21.3600  -42.7830 N.am      9 UNK        -0.5000 
     30 C           2.8804  -21.4836  -43.2452 C.2       8 UNK         0.5000 
     31 O           3.4381  -22.5667  -43.4256 O.2       8 UNK        -0.5000 
     32 CA          3.6406  -20.1830  -43.5879 C.3       8 UNK         0.1400 
     33 CB          3.7216  -20.0071  -45.1127 C.3       8 UNK        -0.1800 
     34 N           3.0335  -18.9852  -43.0014 N.am      8 UNK        -0.5000 
     35 C           2.9724  -18.7189  -41.6870 C.2       7 UNK         0.5000 
     36 O           3.5760  -19.3754  -40.8377 O.2       7 UNK        -0.5000 
     37 CA          2.0547  -17.5640  -41.2268 C.3       7 UNK         0.1400 
     38 CB          2.8890  -16.3960  -40.6785 C.3       7 UNK        -0.1800 
     39 N           1.1398  -17.0516  -42.2515 N.am      7 UNK        -0.5000 
     40 C           0.1885  -17.7426  -42.8969 C.2       6 UNK         0.5000 
     41 O          -0.0525  -18.9315  -42.6861 O.2       6 UNK        -0.5000 
     42 CA         -0.5552  -16.9999  -44.0250 C.3       6 UNK         0.1400 
     43 CB         -1.8186  -16.3067  -43.4949 C.3       6 UNK        -0.1800 
     44 N           0.3018  -16.0193  -44.7001 N.am      6 UNK        -0.5000 
     45 C           1.3539  -16.3452  -45.4659 C.2       5 UNK         0.5000 
     46 O           1.6530  -17.5073  -45.7333 O.2       5 UNK        -0.5000 
     47 CA          2.2415  -15.2015  -45.9872 C.3       5 UNK         0.1400 
     48 CB          1.8739  -14.8302  -47.4309 C.3       5 UNK        -0.1800 
     49 N           2.1592  -14.0135  -45.1351 N.am      5 UNK        -0.5000 
     50 C           2.9573  -13.7924  -44.0837 C.2       4 UNK         0.5000 
     51 O           3.8673  -14.5492  -43.7447 O.2       4 UNK        -0.5000 
     52 CA          2.6887  -12.5187  -43.2594 C.3       4 UNK         0.1400 
     53 CB          3.3452  -11.2996  -43.9251 C.3       4 UNK        -0.1800 
     54 N           1.2730  -12.2253  -43.0123 N.am      4 UNK        -0.5000 
     55 C           0.4032  -13.0425  -42.4047 C.2       3 UNK         0.5000 
     56 O           0.6588  -14.2046  -42.0944 O.2       3 UNK        -0.5000 
     57 CA         -0.9766  -12.4605  -42.0736 C.3       3 UNK         0.1400 
     58 CB         -0.8526  -11.3323  -41.0283 C.3       3 UNK        -0.1800 
     59 N          -1.6810  -11.9956  -43.2713 N.am      3 UNK        -0.5000 
     60 C          -3.0008  -11.7446  -43.3026 C.2       2 UNK         0.5000 
     61 O          -3.7460  -11.9156  -42.3365 O.2       2 UNK        -0.5000 
     62 CA         -3.6125  -11.2020  -44.6109 C.3       2 UNK         0.1400 
     63 CB         -3.6888   -9.6680  -44.5672 C.3       2 UNK        -0.1800 
     64 N          -2.8801  -11.6027  -45.8081 N.am      2 UNK        -0.5000 
     65 C          -2.8501  -12.8429  -46.3125 C.2       1 UNK         0.5000 
     66 O          -3.5324  -13.7694  -45.8747 O.2       1 UNK        -0.5000 
     67 C          -2.0624  -21.2684  -46.9234 C.2       11 UNK         0.5000 
     68 O          -3.0431  -21.1895  -47.6625 O.2       11 UNK        -0.5000 
     69 N          -2.1320  -21.1428  -45.5897 N.am      12 UNK        -0.5000 
     70 CA         -3.3826  -20.9475  -44.8528 C.3       12 UNK         0.1400 
     71 CB         -3.0854  -20.5410  -43.4027 C.3       12 UNK        -0.1800 
     72 C          -4.2872  -22.1906  -44.9111 C.2       12 UNK         0.5000 
     73 O          -5.4808  -22.0570  -45.1824 O.2       12 UNK        -0.5000 
     74 N          -3.6919  -23.3783  -44.7265 N.am      13 UNK        -0.5000 
     75 CA         -4.3501  -24.6810  -44.8677 C.3       13 UNK         0.1400 
     76 CB         -3.3784  -25.7895  -44.4362 C.3       13 UNK        -0.1800 
     77 C          -4.8741  -24.9412  -46.2943 C.2       13 UNK         0.5000 
     78 O          -5.9204  -25.5692  -46.4556 O.2       13 UNK        -0.5000 
     79 N          -4.1651  -24.4053  -47.2959 N.am      14 UNK        -0.5000 
     80 CA         -4.5401  -24.4025  -48.7095 C.3       14 UNK         0.1400 
     81 CB         -3.2595  -24.3085  -49.5541 C.3       14 UNK        -0.1800 
     82 C          -5.5486  -23.2942  -49.0891 C.2       14 UNK         0.5000 
     83 O          -5.7621  -23.0755  -50.2827 O.2       14 UNK        -0.5000 
     84 N          -6.1452  -22.6214  -48.0919 N.am      15 UNK        -0.5000 
     85 CA         -7.1674  -21.5758  -48.1997 C.3       15 UNK         0.1400 
     86 CB         -8.4600  -22.1311  -48.8347 C.3       15 UNK        -0.1800 
     87 C          -6.6343  -20.3145  -48.9035 C.2       15 UNK         0.5000 
     88 O          -7.1654  -19.9047  -49.9359 O.2       15 UNK        -0.5000 
     89 N          -5.5607  -19.7469  -48.3349 N.am      16 UNK        -0.5000 
     90 CA         -4.7794  -18.6161  -48.8537 C.3       16 UNK         0.1400 
     91 CB         -5.6103  -17.3164  -48.8806 C.3       16 UNK        -0.1800 
     92 C          -4.1269  -18.9595  -50.2074 C.2       16 UNK         0.5000 
     93 O          -4.1923  -18.1783  -51.1568 O.2       16 UNK        -0.5000 
     94 N          -3.5343  -20.1600  -50.2505 N.am      17 UNK        -0.5000 
     95 CA         -2.8419  -20.7909  -51.3742 C.3       17 UNK         0.1400 
     96 CB         -1.5743  -20.0025  -51.7455 C.3       17 UNK        -0.1800 
     97 C          -3.7248  -21.0890  -52.6039 C.2       17 UNK         0.5000 
     98 O          -3.1832  -21.3948  -53.6658 O.2       17 UNK        -0.5000 
     99 N          -5.0560  -21.0578  -52.4528 N.am      18 UNK        -0.5000 
    100 CA        -6.0193  -21.3593  -53.5141 C.3       18 UNK         0.1400 
    101 CB        -7.4410  -21.0574  -53.0200 C.3       18 UNK        -0.1800 
    102 C         -5.9175  -22.8088  -54.0226 C.2       18 UNK         0.5000 
    103 O         -5.9778  -23.0341  -55.2317 O.2       18 UNK        -0.5000 
    104 N         -5.7279  -23.7573  -53.0955 N.am      19 UNK        -0.5000 
    105 CA        -5.5198  -25.1732  -53.4048 C.3       19 UNK         0.1400 
    106 CB        -5.9206  -26.0166  -52.1851 C.3       19 UNK        -0.1800 
    107 C         -4.0692  -25.4855  -53.8239 C.2       19 UNK         0.5000 
    108 O         -3.8418  -26.4793  -54.5146 O.2       19 UNK        -0.5000 
    109 N         -3.1158  -24.6486  -53.3912 N.am      20 UNK        -0.5000 
    110 CA        -1.6848  -24.8055  -53.6622 C.3       20 UNK         0.1400 
    111 CB        -0.8815  -24.1301  -52.5388 C.3       20 UNK        -0.1800 
    112 C         -1.2656  -24.2310  -55.0270 C.2       20 UNK         0.5000 
    113 O         -0.2496  -24.6608  -55.5731 O.2       20 UNK        -0.5000 
    114 N         -2.0176  -23.2399  -55.5257 N.am      21 UNK        -0.5000 
    115 CA        -1.8305  -22.4484  -56.7494 C.3       21 UNK         0.1400 
    116 CB        -1.7660  -23.3392  -58.0050 C.3       21 UNK        -0.1800 
    117 C         -0.6480  -21.4580  -56.6959 C.2       21 UNK         0.5000 
    118 O         -0.7550  -20.3832  -57.2854 O.2       21 UNK        -0.5000 
    119 N          0.4325  -21.8322  -55.9966 N.am      22 UNK        -0.5000 
    120 CA         1.6391  -21.0547  -55.6495 C.3       22 UNK         0.1400 
    121 C          2.4535  -20.4198  -56.8203 C.2       22 UNK         0.5000 
    122 N          2.2207  -20.7940  -58.0717 N.am      22 UNK        -0.7600 
    123 O          3.3507  -19.6128  -56.5904 O.2       22 UNK        -0.5000 
    124 C124        1.4296  -20.1111  -54.4280 C.3       23 UNK        -0.0398 
    125 S125        0.3709  -18.6501  -54.7268 S.3       23 UNK        -0.2404 
    126 C126        1.2482  -17.3468  -53.8086 C.3       23 UNK        -0.0205 
    127 H127        0.7766  -10.1956  -48.3039 H         1 UNK         0.0600 
    128 H128        1.0347   -9.7488  -46.6140 H         1 UNK         0.0600 
    129 H129        2.0441  -10.9903  -47.3642 H         1 UNK         0.0600 
    130 H130       -0.9345  -11.6069  -48.6271 H         1 UNK         0.3000 
    131 H131       -1.3129  -13.9930  -47.1730 H         1 UNK         0.0600 
    132 H132       -3.1737  -12.6102  -49.1625 H         1 UNK         0.0800 
    133 H133       -3.3795  -14.2477  -48.5991 H         1 UNK         0.0800 
    134 H134       -2.6082  -16.0916  -50.6287 H         1 UNK         0.0800 
    135 H135       -1.9880  -16.1516  -48.9950 H         1 UNK         0.0800 
    136 H136       -0.8250  -16.0908  -52.5693 H         1 UNK         0.1150 
    137 H137        2.5245  -18.6471  -51.7658 H         1 UNK         0.1150 
    138 H138        0.0419  -17.2883  -48.5478 H         1 UNK         0.1150 
    139 H139        3.2416  -18.9029  -49.4200 H         1 UNK         0.0800 
    140 H140        2.2573  -18.3335  -48.1026 H         1 UNK         0.0800 
    141 H141        0.3243  -19.7135  -46.9407 H         1 UNK         0.0800 
    142 H142       -0.5772  -19.5952  -48.4375 H         1 UNK         0.0800 
    143 H143       -0.8661  -22.0685  -48.4917 H         1 UNK         0.0600 
    144 H144        0.9213  -22.1031  -46.2582 H         1 UNK         0.3000 
    145 H145        0.1304  -25.4289  -45.2016 H         1 UNK         0.0600 
    146 H146        2.5765  -25.6335  -45.5486 H         1 UNK         0.0600 
    147 H147        1.7535  -25.6160  -47.1008 H         1 UNK         0.0600 
    148 H148        2.5918  -24.1741  -46.5377 H         1 UNK         0.0600 
    149 H149        2.0044  -23.5391  -44.1918 H         1 UNK         0.3000 
    150 H150       -0.1646  -21.8498  -41.9228 H         1 UNK         0.0600 
    151 H151        0.5229  -23.9166  -40.7764 H         1 UNK         0.0600 
    152 H152        1.6146  -22.6037  -40.3616 H         1 UNK         0.0600 
    153 H153        2.1187  -23.8467  -41.5058 H         1 UNK         0.0600 
    154 H154        1.2435  -20.4195  -42.7310 H         1 UNK         0.3000 
    155 H155        4.6549  -20.2783  -43.1955 H         1 UNK         0.0600 
    156 H156        4.2511  -20.8410  -45.5752 H         1 UNK         0.0600 
    157 H157        4.2559  -19.0952  -45.3800 H         1 UNK         0.0600 
    158 H158        2.7309  -19.9596  -45.5661 H         1 UNK         0.0600 
    159 H159        2.5170  -18.3908  -43.6358 H         1 UNK         0.3000 
    160 H160        1.4409  -17.9544  -40.4129 H         1 UNK         0.0600 
    161 H161        3.5104  -15.9496  -41.4549 H         1 UNK         0.0600 
    162 H162        2.2514  -15.6131  -40.2676 H         1 UNK         0.0600 
    163 H163        3.5512  -16.7267  -39.8775 H         1 UNK         0.0600 
    164 H164        1.2069  -16.0565  -42.4429 H         1 UNK         0.3000 
    165 H165       -0.8638  -17.7449  -44.7618 H         1 UNK         0.0600 
    166 H166       -2.3651  -15.8135  -44.2987 H         1 UNK         0.0600 
    167 H167       -2.4957  -17.0292  -43.0379 H         1 UNK         0.0600 
    168 H168       -1.5847  -15.5573  -42.7395 H         1 UNK         0.0600 
    169 H169        0.1491  -15.0469  -44.4783 H         1 UNK         0.3000 
    170 H170        3.2706  -15.5669  -45.9991 H         1 UNK         0.0600 
    171 H171        2.0824  -15.6598  -48.1062 H         1 UNK         0.0600 
    172 H172        0.8196  -14.5832  -47.5347 H         1 UNK         0.0600 
    173 H173        2.4547  -13.9770  -47.7812 H         1 UNK         0.0600 
    174 H174        1.4307  -13.3324  -45.3434 H         1 UNK         0.3000 
    175 H175        3.1590  -12.6635  -42.2846 H         1 UNK         0.0600 
    176 H176        2.8795  -11.0666  -44.8831 H         1 UNK         0.0600 
    177 H177        3.2706  -10.4157  -43.2916 H         1 UNK         0.0600 
    178 H178        4.4056  -11.4772  -44.1095 H         1 UNK         0.0600 
    179 H179        0.9635  -11.2998  -43.2689 H         1 UNK         0.3000 
    180 H180       -1.5578  -13.2713  -41.6287 H         1 UNK         0.0600 
    181 H181       -0.2518  -11.6521  -40.1757 H         1 UNK         0.0600 
    182 H182       -0.3819  -10.4426  -41.4475 H         1 UNK         0.0600 
    183 H183       -1.8267  -11.0390  -40.6376 H         1 UNK         0.0600 
    184 H184       -1.1293  -11.9022  -44.1184 H         1 UNK         0.3000 
    185 H185       -4.6300  -11.5915  -44.6862 H         1 UNK         0.0600 
    186 H186       -4.2557   -9.3295  -43.6988 H         1 UNK         0.0600 
    187 H187       -2.6973   -9.2172  -44.5077 H         1 UNK         0.0600 
    188 H188       -4.1863   -9.2718  -45.4526 H         1 UNK         0.0600 
    189 H189       -2.2808  -10.9078  -46.2288 H         1 UNK         0.3000 
    190 H190       -1.2949  -21.2642  -45.0403 H         1 UNK         0.3000 
    191 H191       -3.9251  -20.1239  -45.3222 H         1 UNK         0.0600 
    192 H192       -4.0091  -20.4024  -42.8395 H         1 UNK         0.0600 
    193 H193       -2.5423  -19.5979  -43.3656 H         1 UNK         0.0600 
    194 H194       -2.4932  -21.2914  -42.8798 H         1 UNK         0.0600 
    195 H195       -2.7100  -23.3961  -44.4610 H         1 UNK         0.3000 
    196 H196       -5.2079  -24.6950  -44.1925 H         1 UNK         0.0600 
    197 H197       -3.8500  -26.7708  -44.5014 H         1 UNK         0.0600 
    198 H198       -3.0555  -25.6508  -43.4043 H         1 UNK         0.0600 
    199 H199       -2.4876  -25.8098  -45.0647 H         1 UNK         0.0600 
    200 H200       -3.2811  -23.9644  -47.0705 H         1 UNK         0.3000 
    201 H201       -5.0229  -25.3536  -48.9410 H         1 UNK         0.0600 
    202 H202       -2.6007  -25.1553  -49.3615 H         1 UNK         0.0600 
    203 H203       -2.7031  -23.3994  -49.3325 H         1 UNK         0.0600 
    204 H204       -3.4807  -24.3104  -50.6202 H         1 UNK         0.0600 
    205 H205       -5.8604  -22.8368  -47.1442 H         1 UNK         0.3000 
    206 H206       -7.4109  -21.2782  -47.1787 H         1 UNK         0.0600 
    207 H207       -8.8299  -22.9941  -48.2813 H         1 UNK         0.0600 
    208 H208       -9.2495  -21.3789  -48.8293 H         1 UNK         0.0600 
    209 H209       -8.3107  -22.4374  -49.8701 H         1 UNK         0.0600 
    210 H210       -5.1512  -20.2215  -47.5411 H         1 UNK         0.3000 
    211 H211       -3.9585  -18.4627  -48.1514 H         1 UNK         0.0600 
    212 H212       -6.4235  -17.3662  -49.6051 H         1 UNK         0.0600 
    213 H213       -4.9871  -16.4629  -49.1502 H         1 UNK         0.0600 
    214 H214       -6.0436  -17.1056  -47.9030 H         1 UNK         0.0600 
    215 H215       -3.5370  -20.6958  -49.3857 H         1 UNK         0.3000 
    216 H216       -2.5174  -21.7633  -51.0066 H         1 UNK         0.0600 
    217 H217       -1.8151  -19.0293  -52.1728 H         1 UNK         0.0600 
    218 H218       -0.9833  -20.5413  -52.4839 H         1 UNK         0.0600 
    219 H219       -0.9357  -19.8424  -50.8779 H         1 UNK         0.0600 
    220 H220       -5.4388  -20.8422  -51.5417 H         1 UNK         0.3000 
    221 H221       -5.8038  -20.6970  -54.3551 H         1 UNK         0.0600 
    222 H222       -7.7006  -21.6644  -52.1520 H         1 UNK         0.0600 
    223 H223       -7.5453  -20.0095  -52.7383 H         1 UNK         0.0600 
    224 H224       -8.1783  -21.2608  -53.7975 H         1 UNK         0.0600 
    225 H225       -5.7231  -23.4881  -52.1131 H         1 UNK         0.3000 
    226 H226       -6.1722  -25.4532  -54.2347 H         1 UNK         0.0600 
    227 H227       -6.9488  -25.8138  -51.8847 H         1 UNK         0.0600 
    228 H228       -5.8503  -27.0819  -52.4080 H         1 UNK         0.0600 
    229 H229       -5.2764  -25.8191  -51.3294 H         1 UNK         0.0600 
    230 H230       -3.3993  -23.8338  -52.8699 H         1 UNK         0.3000 
    231 H231       -1.4366  -25.8691  -53.6608 H         1 UNK         0.0600 
    232 H232       -1.0697  -23.0578  -52.4963 H         1 UNK         0.0600 
    233 H233       -1.1225  -24.5571  -51.5658 H         1 UNK         0.0600 
    234 H234        0.1901  -24.2651  -52.6915 H         1 UNK         0.0600 
    235 H235       -2.7464  -22.8774  -54.9194 H         1 UNK         0.3000 
    236 H236       -2.7329  -21.8402  -56.8303 H         1 UNK         0.0600 
    237 H237       -2.6247  -24.0086  -58.0576 H         1 UNK         0.0600 
    238 H238       -1.7718  -22.7312  -58.9103 H         1 UNK         0.0600 
    239 H239       -0.8621  -23.9479  -58.0310 H         1 UNK         0.0600 
    240 H240        0.4176  -22.7824  -55.6432 H         1 UNK         0.3000 
    241 H241        2.3217  -21.8259  -55.2911 H         1 UNK         0.0600 
    242 H242        2.7621  -20.3917  -58.8206 H         1 UNK         0.3800 
    243 H243        1.4743  -21.4379  -58.2791 H         1 UNK         0.3800 
    244 H244        2.4011  -19.7785  -54.0607 H         1 UNK         0.0800 
    245 H245        0.9981  -20.6782  -53.6042 H         1 UNK         0.0800 
    246 H246        2.3256  -17.4415  -53.9512 H         1 UNK         0.0800 
    247 H247        0.9758  -16.3810  -54.2365 H         1 UNK         0.0800 
@<TRIPOS>BOND
     1    1    2 1    
     2    1  127 1    
     3    1  128 1    
     4    1  129 1    
     5    2    3 2    
     6    2    4 am   BACKBONE|DICT|INTERRES
     7    4    5 1    
     8    4  130 1    
     9    5    6 1    
    10    5   65 1    
    11    5  131 1    
    12    6    7 1    
    13    6  132 1    
    14    6  133 1    
    15    7    8 1    
    16    8    9 1    
    17    8  134 1    
    18    8  135 1    
    19    9   10 ar   
    20    9   14 ar   
    21   10   11 ar   
    22   10  136 1    
    23   11   12 ar   
    24   11  126 1    
    25   12   13 ar   
    26   12  137 1    
    27   13   14 ar   
    28   13   15 1    
    29   14  138 1    
    30   15   16 1    
    31   15  139 1    
    32   15  140 1    
    33   16   17 1    
    34   17   18 1    
    35   17  141 1    
    36   17  142 1    
    37   18   19 1    
    38   18   67 1    
    39   18  143 1    
    40   19   20 am   BACKBONE|DICT|INTERRES
    41   19  144 1    
    42   20   21 2    
    43   20   22 1    
    44   22   23 1    
    45   22   24 1    
    46   22  145 1    
    47   23  146 1    
    48   23  147 1    
    49   23  148 1    
    50   24   25 am   BACKBONE|DICT|INTERRES
    51   24  149 1    
    52   25   26 2    
    53   25   27 1    
    54   27   28 1    
    55   27   29 1    
    56   27  150 1    
    57   28  151 1    
    58   28  152 1    
    59   28  153 1    
    60   29   30 am   BACKBONE|DICT|INTERRES
    61   29  154 1    
    62   30   31 2    
    63   30   32 1    
    64   32   33 1    
    65   32   34 1    
    66   32  155 1    
    67   33  156 1    
    68   33  157 1    
    69   33  158 1    
    70   34   35 am   BACKBONE|DICT|INTERRES
    71   34  159 1    
    72   35   36 2    
    73   35   37 1    
    74   37   38 1    
    75   37   39 1    
    76   37  160 1    
    77   38  161 1    
    78   38  162 1    
    79   38  163 1    
    80   39   40 am   BACKBONE|DICT|INTERRES
    81   39  164 1    
    82   40   41 2    
    83   40   42 1    
    84   42   43 1    
    85   42   44 1    
    86   42  165 1    
    87   43  166 1    
    88   43  167 1    
    89   43  168 1    
    90   44   45 am   BACKBONE|DICT|INTERRES
    91   44  169 1    
    92   45   46 2    
    93   45   47 1    
    94   47   48 1    
    95   47   49 1    
    96   47  170 1    
    97   48  171 1    
    98   48  172 1    
    99   48  173 1    
   100   49   50 am   BACKBONE|DICT|INTERRES
   101   49  174 1    
   102   50   51 2    
   103   50   52 1    
   104   52   53 1    
   105   52   54 1    
   106   52  175 1    
   107   53  176 1    
   108   53  177 1    
   109   53  178 1    
   110   54   55 am   BACKBONE|DICT|INTERRES
   111   54  179 1    
   112   55   56 2    
   113   55   57 1    
   114   57   58 1    
   115   57   59 1    
   116   57  180 1    
   117   58  181 1    
   118   58  182 1    
   119   58  183 1    
   120   59   60 am   BACKBONE|DICT|INTERRES
   121   59  184 1    
   122   60   61 2    
   123   60   62 1    
   124   62   63 1    
   125   62   64 1    
   126   62  185 1    
   127   63  186 1    
   128   63  187 1    
   129   63  188 1    
   130   64   65 am   BACKBONE|DICT|INTERRES
   131   64  189 1    
   132   65   66 2    
   133   67   68 2    
   134   67   69 am   BACKBONE|DICT|INTERRES
   135   69   70 1    
   136   69  190 1    
   137   70   71 1    
   138   70   72 1    
   139   70  191 1    
   140   71  192 1    
   141   71  193 1    
   142   71  194 1    
   143   72   73 2    
   144   72   74 am   BACKBONE|DICT|INTERRES
   145   74   75 1    
   146   74  195 1    
   147   75   76 1    
   148   75   77 1    
   149   75  196 1    
   150   76  197 1    
   151   76  198 1    
   152   76  199 1    
   153   77   78 2    
   154   77   79 am   BACKBONE|DICT|INTERRES
   155   79   80 1    
   156   79  200 1    
   157   80   81 1    
   158   80   82 1    
   159   80  201 1    
   160   81  202 1    
   161   81  203 1    
   162   81  204 1    
   163   82   83 2    
   164   82   84 am   BACKBONE|DICT|INTERRES
   165   84   85 1    
   166   84  205 1    
   167   85   86 1    
   168   85   87 1    
   169   85  206 1    
   170   86  207 1    
   171   86  208 1    
   172   86  209 1    
   173   87   88 2    
   174   87   89 am   BACKBONE|DICT|INTERRES
   175   89   90 1    
   176   89  210 1    
   177   90   91 1    
   178   90   92 1    
   179   90  211 1    
   180   91  212 1    
   181   91  213 1    
   182   91  214 1    
   183   92   93 2    
   184   92   94 am   BACKBONE|DICT|INTERRES
   185   94   95 1    
   186   94  215 1    
   187   95   96 1    
   188   95   97 1    
   189   95  216 1    
   190   96  217 1    
   191   96  218 1    
   192   96  219 1    
   193   97   98 2    
   194   97   99 am   BACKBONE|DICT|INTERRES
   195   99  100 1    
   196   99  220 1    
   197  100  101 1    
   198  100  102 1    
   199  100  221 1    
   200  101  222 1    
   201  101  223 1    
   202  101  224 1    
   203  102  103 2    
   204  102  104 am   BACKBONE|DICT|INTERRES
   205  104  105 1    
   206  104  225 1    
   207  105  106 1    
   208  105  107 1    
   209  105  226 1    
   210  106  227 1    
   211  106  228 1    
   212  106  229 1    
   213  107  108 2    
   214  107  109 am   BACKBONE|DICT|INTERRES
   215  109  110 1    
   216  109  230 1    
   217  110  111 1    
   218  110  112 1    
   219  110  231 1    
   220  111  232 1    
   221  111  233 1    
   222  111  234 1    
   223  112  113 2    
   224  112  114 am   BACKBONE|DICT|INTERRES
   225  114  115 1    
   226  114  235 1    
   227  115  116 1    
   228  115  117 1    
   229  115  236 1    
   230  116  237 1    
   231  116  238 1    
   232  116  239 1    
   233  117  118 2    
   234  117  119 am   BACKBONE|DICT|INTERRES
   235  119  120 1    
   236  119  240 1    
   237  120  121 1    
   238  120  124 1    
   239  120  241 1    
   240  121  122 am   BACKBONE|DICT|INTERRES
   241  121  123 2    
   242  122  242 1    
   243  122  243 1    
   244  124  125 1    
   245  124  244 1    
   246  124  245 1    
   247  125  126 1    
   248  126  246 1    
   249  126  247 1    
@<TRIPOS>SUBSTRUCTURE
     1 UNK         1 GROUP             0       ****    0 ROOT    
