@<TRIPOS>MOLECULE
3R540
247   249    1
SMALL
USER_CHARGES


@<TRIPOS>ATOM
      1 CA         -5.0442  -13.9625  -50.2759 C.3       0 UNK        -0.1800 
      2 C          -3.7986  -13.7247  -49.4348 C.2       0 UNK         0.5000 
      3 O          -3.8966  -13.6268  -48.2126 O.2       0 UNK        -0.5000 
      4 N          -2.6270  -13.6467  -50.0798 N.am      1 UNK        -0.5000 
      5 CA         -1.3176  -13.3978  -49.4588 C.3       1 UNK         0.1400 
      6 C6         -0.1885  -13.2649  -50.5104 C.3       23 UNK        -0.0398 
      7 S7         -0.0936  -14.6623  -51.6926 S.3       23 UNK        -0.2404 
      8 C8          1.6318  -15.2226  -51.5189 C.3       23 UNK        -0.0205 
      9 C9          1.7474  -16.5397  -50.7637 C.ar      23 UNK        -0.0193 
     10 C10         1.3739  -17.7288  -51.3923 C.ar      23 UNK        -0.1150 
     11 C11         1.5623  -18.9619  -50.7621 C.ar      23 UNK        -0.0193 
     12 C12         2.1129  -18.9948  -49.4776 C.ar      23 UNK        -0.1150 
     13 C13         2.4729  -17.8109  -48.8167 C.ar      23 UNK        -0.0193 
     14 C14         2.2820  -16.5873  -49.4722 C.ar      23 UNK        -0.1150 
     15 C15         3.1065  -17.7916  -47.4213 C.3       23 UNK        -0.0205 
     16 S16         3.2953  -19.4086  -46.5828 S.3       23 UNK        -0.2404 
     17 C17         1.6581  -19.6482  -45.8106 C.3       23 UNK        -0.0398 
     18 CA          0.9230  -20.9179  -46.3009 C.3       11 UNK         0.1400 
     19 N           1.7081  -22.1413  -46.1118 N.am      11 UNK        -0.5000 
     20 C           1.4340  -23.3199  -46.6867 C.2       10 UNK         0.5000 
     21 O           0.4993  -23.4977  -47.4659 O.2       10 UNK        -0.5000 
     22 CA          2.3270  -24.5104  -46.2903 C.3       10 UNK         0.1400 
     23 CB          3.6449  -24.4843  -47.0791 C.3       10 UNK        -0.1800 
     24 N           2.6192  -24.5401  -44.8566 N.am      10 UNK        -0.5000 
     25 C           1.7022  -24.7348  -43.8974 C.2       9 UNK         0.5000 
     26 O           0.5178  -24.9777  -44.1250 O.2       9 UNK        -0.5000 
     27 CA          2.1782  -24.5811  -42.4381 C.3       9 UNK         0.1400 
     28 CB          2.6718  -25.9282  -41.8891 C.3       9 UNK        -0.1800 
     29 N           3.2275  -23.5709  -42.2590 N.am      9 UNK        -0.5000 
     30 C           3.1156  -22.2791  -42.5988 C.2       8 UNK         0.5000 
     31 O           2.1088  -21.8006  -43.1240 O.2       8 UNK        -0.5000 
     32 CA          4.3682  -21.4108  -42.3855 C.3       8 UNK         0.1400 
     33 CB          5.4377  -21.7572  -43.4356 C.3       8 UNK        -0.1800 
     34 N           4.0811  -19.9814  -42.4876 N.am      8 UNK        -0.5000 
     35 C           3.4187  -19.2465  -41.5848 C.2       7 UNK         0.5000 
     36 O           3.0087  -19.6888  -40.5090 O.2       7 UNK        -0.5000 
     37 CA          3.2394  -17.7447  -41.9077 C.3       7 UNK         0.1400 
     38 CB          3.7459  -17.3238  -43.3053 C.3       7 UNK        -0.1800 
     39 N           1.8794  -17.2338  -41.7261 N.am      7 UNK        -0.5000 
     40 C           0.7205  -17.7416  -42.1701 C.2       6 UNK         0.5000 
     41 O           0.5885  -18.8523  -42.6783 O.2       6 UNK        -0.5000 
     42 CA         -0.4992  -16.8035  -42.0995 C.3       6 UNK         0.1400 
     43 CB         -0.9138  -16.4775  -40.6512 C.3       6 UNK        -0.1800 
     44 N          -0.3079  -15.5965  -42.9138 N.am      6 UNK        -0.5000 
     45 C           0.5532  -14.5836  -42.7270 C.2       5 UNK         0.5000 
     46 O           1.2611  -14.4513  -41.7272 O.2       5 UNK        -0.5000 
     47 CA          0.6721  -13.5605  -43.8691 C.3       5 UNK         0.1400 
     48 CB          1.6919  -14.0486  -44.9108 C.3       5 UNK        -0.1800 
     49 N          -0.6064  -13.2971  -44.5276 N.am      5 UNK        -0.5000 
     50 C          -1.5980  -12.5793  -43.9820 C.2       4 UNK         0.5000 
     51 O          -1.5236  -12.0335  -42.8801 O.2       4 UNK        -0.5000 
     52 CA         -2.8963  -12.4596  -44.7993 C.3       4 UNK         0.1400 
     53 CB         -2.7489  -11.4047  -45.9065 C.3       4 UNK        -0.1800 
     54 N          -3.3111  -13.7305  -45.3913 N.am      4 UNK        -0.5000 
     55 C          -3.7109  -14.8056  -44.6977 C.2       3 UNK         0.5000 
     56 O          -3.7907  -14.8433  -43.4698 O.2       3 UNK        -0.5000 
     57 CA         -4.0693  -16.0556  -45.5180 C.3       3 UNK         0.1400 
     58 CB         -5.4903  -15.9407  -46.0946 C.3       3 UNK        -0.1800 
     59 N          -3.1217  -16.2855  -46.6069 N.am      3 UNK        -0.5000 
     60 C          -1.8653  -16.7250  -46.4441 C.2       2 UNK         0.5000 
     61 O          -1.3702  -17.0070  -45.3539 O.2       2 UNK        -0.5000 
     62 CA         -1.0052  -16.8169  -47.7171 C.3       2 UNK         0.1400 
     63 CB         -1.2693  -18.1304  -48.4675 C.3       2 UNK        -0.1800 
     64 N          -1.2435  -15.7005  -48.6283 N.am      2 UNK        -0.5000 
     65 C          -0.9492  -14.4213  -48.3665 C.2       1 UNK         0.5000 
     66 O          -0.4532  -14.0331  -47.3096 O.2       1 UNK        -0.5000 
     67 C          -0.4542  -21.0469  -45.6215 C.2       11 UNK         0.5000 
     68 O          -1.4651  -20.7009  -46.2302 O.2       11 UNK        -0.5000 
     69 N          -0.4792  -21.6007  -44.4009 N.am      12 UNK        -0.5000 
     70 CA         -1.6992  -21.8743  -43.6399 C.3       12 UNK         0.1400 
     71 CB         -1.3251  -22.3663  -42.2344 C.3       12 UNK        -0.1800 
     72 C          -2.6390  -22.8743  -44.3434 C.2       12 UNK         0.5000 
     73 O          -3.8572  -22.7116  -44.2708 O.2       12 UNK        -0.5000 
     74 N          -2.0627  -23.8671  -45.0366 N.am      13 UNK        -0.5000 
     75 CA         -2.7851  -24.7915  -45.9078 C.3       13 UNK         0.1400 
     76 CB         -1.8951  -26.0014  -46.2329 C.3       13 UNK        -0.1800 
     77 C          -3.2736  -24.1019  -47.1948 C.2       13 UNK         0.5000 
     78 O          -4.4516  -24.2184  -47.5358 O.2       13 UNK        -0.5000 
     79 N          -2.3735  -23.3742  -47.8748 N.am      14 UNK        -0.5000 
     80 CA         -2.6528  -22.6729  -49.1312 C.3       14 UNK         0.1400 
     81 CB         -1.3574  -22.1215  -49.7327 C.3       14 UNK        -0.1800 
     82 C          -3.7012  -21.5540  -49.0100 C.2       14 UNK         0.5000 
     83 O          -4.3952  -21.2758  -49.9867 O.2       14 UNK        -0.5000 
     84 N          -3.8489  -20.9676  -47.8154 N.am      15 UNK        -0.5000 
     85 CA         -4.8955  -20.0064  -47.4576 C.3       15 UNK         0.1400 
     86 CB         -4.7208  -19.6181  -45.9820 C.3       15 UNK        -0.1800 
     87 C          -6.3308  -20.5192  -47.7056 C.2       15 UNK         0.5000 
     88 O          -7.2137  -19.7162  -48.0098 O.2       15 UNK        -0.5000 
     89 N          -6.5297  -21.8423  -47.6079 N.am      16 UNK        -0.5000 
     90 CA         -7.7894  -22.5263  -47.9042 C.3       16 UNK         0.1400 
     91 CB         -7.9249  -23.7262  -46.9521 C.3       16 UNK        -0.1800 
     92 C          -7.8949  -22.9833  -49.3760 C.2       16 UNK         0.5000 
     93 O          -8.9311  -23.5314  -49.7565 O.2       16 UNK        -0.5000 
     94 N          -6.8399  -22.7703  -50.1747 N.am      17 UNK        -0.5000 
     95 CA         -6.7068  -23.2168  -51.5621 C.3       17 UNK         0.1400 
     96 CB         -5.6773  -24.3606  -51.6226 C.3       17 UNK        -0.1800 
     97 C          -6.3421  -22.0417  -52.4919 C.2       17 UNK         0.5000 
     98 O          -5.6037  -22.2292  -53.4594 O.2       17 UNK        -0.5000 
     99 N          -6.8847  -20.8538  -52.1856 N.am      18 UNK        -0.5000 
    100 CA        -6.8018  -19.6077  -52.9590 C.3       18 UNK         0.1400 
    101 CB        -7.4102  -19.7817  -54.3679 C.3       18 UNK        -0.1800 
    102 C         -5.4103  -18.9362  -52.9841 C.2       18 UNK         0.5000 
    103 O         -5.1414  -18.1445  -53.8900 O.2       18 UNK        -0.5000 
    104 N         -4.5780  -19.2077  -51.9669 N.am      19 UNK        -0.5000 
    105 CA        -3.3096  -18.5436  -51.6468 C.3       19 UNK         0.1400 
    106 CB        -3.5800  -17.1341  -51.0772 C.3       19 UNK        -0.1800 
    107 C         -2.3035  -18.5493  -52.8138 C.2       19 UNK         0.5000 
    108 O         -1.6731  -19.5781  -53.0502 O.2       19 UNK        -0.5000 
    109 N         -2.1940  -17.4210  -53.5345 N.am      20 UNK        -0.5000 
    110 CA        -1.3004  -17.1691  -54.6743 C.3       20 UNK         0.1400 
    111 CB        -1.5798  -15.7584  -55.2150 C.3       20 UNK        -0.1800 
    112 C         -1.3788  -18.2035  -55.8171 C.2       20 UNK         0.5000 
    113 O         -0.4287  -18.3254  -56.5929 O.2       20 UNK        -0.5000 
    114 N         -2.4758  -18.9721  -55.8627 N.am      21 UNK        -0.5000 
    115 CA        -2.6637  -20.1703  -56.6818 C.3       21 UNK         0.1400 
    116 CB        -4.0708  -20.7238  -56.4151 C.3       21 UNK        -0.1800 
    117 C         -1.5966  -21.2715  -56.4725 C.2       21 UNK         0.5000 
    118 O         -1.4631  -22.1338  -57.3425 O.2       21 UNK        -0.5000 
    119 N         -0.8361  -21.2198  -55.3655 N.am      22 UNK        -0.5000 
    120 CA         0.3782  -22.0260  -55.1506 C.3       22 UNK         0.1400 
    121 C          1.5350  -21.7642  -56.1664 C.2       22 UNK         0.5000 
    122 N          1.5537  -20.6457  -56.8853 N.am      22 UNK        -0.7600 
    123 O          2.4244  -22.5990  -56.3109 O.2       22 UNK        -0.5000 
    124 C124        0.8770  -21.9639  -53.6791 C.3       23 UNK        -0.0398 
    125 S125        1.6456  -20.3752  -53.1860 S.3       23 UNK        -0.2404 
    126 C126        1.1342  -20.2582  -51.4398 C.3       23 UNK        -0.0205 
    127 H127       -4.8088  -14.0340  -51.3384 H         1 UNK         0.0600 
    128 H128       -5.7503  -13.1426  -50.1380 H         1 UNK         0.0600 
    129 H129       -5.5323  -14.8885  -49.9692 H         1 UNK         0.0600 
    130 H130       -2.6104  -13.7395  -51.0855 H         1 UNK         0.3000 
    131 H131       -1.3991  -12.4331  -48.9537 H         1 UNK         0.0600 
    132 H132        0.7725  -13.1100  -50.0169 H         1 UNK         0.0800 
    133 H133       -0.3554  -12.3604  -51.0971 H         1 UNK         0.0800 
    134 H134        2.0440  -15.3604  -52.5198 H         1 UNK         0.0800 
    135 H135        2.2496  -14.4534  -51.0542 H         1 UNK         0.0800 
    136 H136        0.9495  -17.6948  -52.3848 H         1 UNK         0.1150 
    137 H137        2.2590  -19.9537  -49.0042 H         1 UNK         0.1150 
    138 H138        2.5746  -15.6683  -48.9831 H         1 UNK         0.1150 
    139 H139        4.1036  -17.3597  -47.5176 H         1 UNK         0.0800 
    140 H140        2.5477  -17.1130  -46.7751 H         1 UNK         0.0800 
    141 H141        1.0399  -18.7641  -45.9773 H         1 UNK         0.0800 
    142 H142        1.8198  -19.7038  -44.7347 H         1 UNK         0.0800 
    143 H143        0.7441  -20.8048  -47.3716 H         1 UNK         0.0600 
    144 H144        2.4484  -22.0901  -45.4272 H         1 UNK         0.3000 
    145 H145        1.7924  -25.4277  -46.5464 H         1 UNK         0.0600 
    146 H146        4.2512  -25.3646  -46.8634 H         1 UNK         0.0600 
    147 H147        3.4557  -24.4763  -48.1537 H         1 UNK         0.0600 
    148 H148        4.2395  -23.6004  -46.8441 H         1 UNK         0.0600 
    149 H149        3.5705  -24.3508  -44.5791 H         1 UNK         0.3000 
    150 H150        1.3186  -24.2672  -41.8433 H         1 UNK         0.0600 
    151 H151        3.5572  -26.2802  -42.4204 H         1 UNK         0.0600 
    152 H152        1.9027  -26.6955  -41.9884 H         1 UNK         0.0600 
    153 H153        2.9208  -25.8560  -40.8300 H         1 UNK         0.0600 
    154 H154        4.0911  -23.8938  -41.8468 H         1 UNK         0.3000 
    155 H155        4.7655  -21.6159  -41.3893 H         1 UNK         0.0600 
    156 H156        5.0792  -21.5764  -44.4503 H         1 UNK         0.0600 
    157 H157        5.7328  -22.8054  -43.3733 H         1 UNK         0.0600 
    158 H158        6.3397  -21.1625  -43.2896 H         1 UNK         0.0600 
    159 H159        4.3534  -19.5363  -43.3513 H         1 UNK         0.3000 
    160 H160        3.8524  -17.2195  -41.1741 H         1 UNK         0.0600 
    161 H161        3.1500  -17.7687  -44.1005 H         1 UNK         0.0600 
    162 H162        4.7889  -17.6007  -43.4628 H         1 UNK         0.0600 
    163 H163        3.6898  -16.2419  -43.4254 H         1 UNK         0.0600 
    164 H164        1.8268  -16.2884  -41.3595 H         1 UNK         0.3000 
    165 H165       -1.3337  -17.3357  -42.5595 H         1 UNK         0.0600 
    166 H166       -1.8036  -15.8481  -40.6325 H         1 UNK         0.0600 
    167 H167       -1.1495  -17.3911  -40.1043 H         1 UNK         0.0600 
    168 H168       -0.1287  -15.9632  -40.0971 H         1 UNK         0.0600 
    169 H169       -0.7961  -15.6294  -43.8012 H         1 UNK         0.3000 
    170 H170        1.0421  -12.6244  -43.4449 H         1 UNK         0.0600 
    171 H171        2.6698  -14.2090  -44.4554 H         1 UNK         0.0600 
    172 H172        1.3825  -14.9898  -45.3683 H         1 UNK         0.0600 
    173 H173        1.8221  -13.3167  -45.7083 H         1 UNK         0.0600 
    174 H174       -0.7187  -13.6663  -45.4689 H         1 UNK         0.3000 
    175 H175       -3.6881  -12.1323  -44.1222 H         1 UNK         0.0600 
    176 H176       -1.9832  -11.6852  -46.6303 H         1 UNK         0.0600 
    177 H177       -3.6854  -11.2679  -46.4477 H         1 UNK         0.0600 
    178 H178       -2.4687  -10.4367  -45.4892 H         1 UNK         0.0600 
    179 H179       -3.3367  -13.7710  -46.4071 H         1 UNK         0.3000 
    180 H180       -4.0386  -16.9161  -44.8467 H         1 UNK         0.0600 
    181 H181       -6.2287  -15.8804  -45.2942 H         1 UNK         0.0600 
    182 H182       -5.7452  -16.8032  -46.7097 H         1 UNK         0.0600 
    183 H183       -5.6075  -15.0504  -46.7131 H         1 UNK         0.0600 
    184 H184       -3.4167  -15.9986  -47.5283 H         1 UNK         0.3000 
    185 H185        0.0456  -16.7876  -47.4235 H         1 UNK         0.0600 
    186 H186       -0.8126  -18.9661  -47.9439 H         1 UNK         0.0600 
    187 H187       -2.3344  -18.3424  -48.5623 H         1 UNK         0.0600 
    188 H188       -0.8401  -18.1146  -49.4684 H         1 UNK         0.0600 
    189 H189       -1.6283  -15.9189  -49.5338 H         1 UNK         0.3000 
    190 H190        0.4062  -21.8033  -43.9419 H         1 UNK         0.3000 
    191 H191       -2.2373  -20.9292  -43.5378 H         1 UNK         0.0600 
    192 H192       -0.6677  -21.6573  -41.7298 H         1 UNK         0.0600 
    193 H193       -2.2147  -22.4869  -41.6148 H         1 UNK         0.0600 
    194 H194       -0.8174  -23.3299  -42.2699 H         1 UNK         0.0600 
    195 H195       -1.0569  -23.9849  -44.9777 H         1 UNK         0.3000 
    196 H196       -3.6629  -25.1559  -45.3697 H         1 UNK         0.0600 
    197 H197       -2.4164  -26.7072  -46.8808 H         1 UNK         0.0600 
    198 H198       -1.6152  -26.5374  -45.3255 H         1 UNK         0.0600 
    199 H199       -0.9764  -25.7056  -46.7403 H         1 UNK         0.0600 
    200 H200       -1.4111  -23.3441  -47.5483 H         1 UNK         0.3000 
    201 H201       -3.0505  -23.4130  -49.8268 H         1 UNK         0.0600 
    202 H202       -1.5637  -21.6747  -50.7056 H         1 UNK         0.0600 
    203 H203       -0.6213  -22.9103  -49.8888 H         1 UNK         0.0600 
    204 H204       -0.9091  -21.3571  -49.0974 H         1 UNK         0.0600 
    205 H205       -3.1649  -21.1795  -47.0943 H         1 UNK         0.3000 
    206 H206       -4.7518  -19.1150  -48.0721 H         1 UNK         0.0600 
    207 H207       -3.7445  -19.1670  -45.8047 H         1 UNK         0.0600 
    208 H208       -5.4794  -18.9013  -45.6677 H         1 UNK         0.0600 
    209 H209       -4.8096  -20.4860  -45.3286 H         1 UNK         0.0600 
    210 H210       -5.7420  -22.4413  -47.3847 H         1 UNK         0.3000 
    211 H211       -8.6261  -21.8511  -47.7136 H         1 UNK         0.0600 
    212 H212       -7.1407  -24.4649  -47.1215 H         1 UNK         0.0600 
    213 H213       -8.8834  -24.2289  -47.0871 H         1 UNK         0.0600 
    214 H214       -7.8690  -23.4113  -45.9098 H         1 UNK         0.0600 
    215 H215       -6.0388  -22.2622  -49.8118 H         1 UNK         0.3000 
    216 H216       -7.6601  -23.6044  -51.9267 H         1 UNK         0.0600 
    217 H217       -5.6307  -24.7941  -52.6223 H         1 UNK         0.0600 
    218 H218       -5.9368  -25.1641  -50.9323 H         1 UNK         0.0600 
    219 H219       -4.6768  -24.0104  -51.3705 H         1 UNK         0.0600 
    220 H220       -7.4501  -20.8088  -51.3489 H         1 UNK         0.3000 
    221 H221       -7.4416  -18.9015  -52.4274 H         1 UNK         0.0600 
    222 H222       -6.7955  -20.4220  -55.0009 H         1 UNK         0.0600 
    223 H223       -8.4073  -20.2191  -54.3156 H         1 UNK         0.0600 
    224 H224       -7.5071  -18.8211  -54.8758 H         1 UNK         0.0600 
    225 H225       -4.8371  -19.9497  -51.3216 H         1 UNK         0.3000 
    226 H226       -2.8455  -19.1336  -50.8559 H         1 UNK         0.0600 
    227 H227       -4.1735  -16.5228  -51.7574 H         1 UNK         0.0600 
    228 H228       -4.1215  -17.1948  -50.1327 H         1 UNK         0.0600 
    229 H229       -2.6479  -16.6032  -50.8852 H         1 UNK         0.0600 
    230 H230       -2.8090  -16.6588  -53.2912 H         1 UNK         0.3000 
    231 H231       -0.2779  -17.1931  -54.2953 H         1 UNK         0.0600 
    232 H232       -2.6033  -15.6658  -55.5806 H         1 UNK         0.0600 
    233 H233       -0.9115  -15.5160  -56.0427 H         1 UNK         0.0600 
    234 H234       -1.4276  -15.0006  -54.4463 H         1 UNK         0.0600 
    235 H235       -3.1976  -18.7850  -55.1783 H         1 UNK         0.3000 
    236 H236       -2.6071  -19.8623  -57.7277 H         1 UNK         0.0600 
    237 H237       -4.2711  -21.6063  -57.0244 H         1 UNK         0.0600 
    238 H238       -4.1905  -21.0109  -55.3699 H         1 UNK         0.0600 
    239 H239       -4.8377  -19.9851  -56.6498 H         1 UNK         0.0600 
    240 H240       -1.0359  -20.5161  -54.6600 H         1 UNK         0.3000 
    241 H241        0.0762  -23.0605  -55.3248 H         1 UNK         0.0600 
    242 H242        0.8412  -19.9346  -56.7607 H         1 UNK         0.3800 
    243 H243        2.3032  -20.4906  -57.5404 H         1 UNK         0.3800 
    244 H244        0.0444  -22.1826  -53.0088 H         1 UNK         0.0800 
    245 H245        1.6087  -22.7542  -53.5040 H         1 UNK         0.0800 
    246 H246        0.0512  -20.3115  -51.3811 H         1 UNK         0.0800 
    247 H247        1.5229  -21.1243  -50.9017 H         1 UNK         0.0800 
@<TRIPOS>BOND
     1    1    2 1    
     2    1  127 1    
     3    1  128 1    
     4    1  129 1    
     5    2    3 2    
     6    2    4 am   BACKBONE|DICT|INTERRES
     7    4    5 1    
     8    4  130 1    
     9    5    6 1    
    10    5   65 1    
    11    5  131 1    
    12    6    7 1    
    13    6  132 1    
    14    6  133 1    
    15    7    8 1    
    16    8    9 1    
    17    8  134 1    
    18    8  135 1    
    19    9   10 ar   
    20    9   14 ar   
    21   10   11 ar   
    22   10  136 1    
    23   11   12 ar   
    24   11  126 1    
    25   12   13 ar   
    26   12  137 1    
    27   13   14 ar   
    28   13   15 1    
    29   14  138 1    
    30   15   16 1    
    31   15  139 1    
    32   15  140 1    
    33   16   17 1    
    34   17   18 1    
    35   17  141 1    
    36   17  142 1    
    37   18   19 1    
    38   18   67 1    
    39   18  143 1    
    40   19   20 am   BACKBONE|DICT|INTERRES
    41   19  144 1    
    42   20   21 2    
    43   20   22 1    
    44   22   23 1    
    45   22   24 1    
    46   22  145 1    
    47   23  146 1    
    48   23  147 1    
    49   23  148 1    
    50   24   25 am   BACKBONE|DICT|INTERRES
    51   24  149 1    
    52   25   26 2    
    53   25   27 1    
    54   27   28 1    
    55   27   29 1    
    56   27  150 1    
    57   28  151 1    
    58   28  152 1    
    59   28  153 1    
    60   29   30 am   BACKBONE|DICT|INTERRES
    61   29  154 1    
    62   30   31 2    
    63   30   32 1    
    64   32   33 1    
    65   32   34 1    
    66   32  155 1    
    67   33  156 1    
    68   33  157 1    
    69   33  158 1    
    70   34   35 am   BACKBONE|DICT|INTERRES
    71   34  159 1    
    72   35   36 2    
    73   35   37 1    
    74   37   38 1    
    75   37   39 1    
    76   37  160 1    
    77   38  161 1    
    78   38  162 1    
    79   38  163 1    
    80   39   40 am   BACKBONE|DICT|INTERRES
    81   39  164 1    
    82   40   41 2    
    83   40   42 1    
    84   42   43 1    
    85   42   44 1    
    86   42  165 1    
    87   43  166 1    
    88   43  167 1    
    89   43  168 1    
    90   44   45 am   BACKBONE|DICT|INTERRES
    91   44  169 1    
    92   45   46 2    
    93   45   47 1    
    94   47   48 1    
    95   47   49 1    
    96   47  170 1    
    97   48  171 1    
    98   48  172 1    
    99   48  173 1    
   100   49   50 am   BACKBONE|DICT|INTERRES
   101   49  174 1    
   102   50   51 2    
   103   50   52 1    
   104   52   53 1    
   105   52   54 1    
   106   52  175 1    
   107   53  176 1    
   108   53  177 1    
   109   53  178 1    
   110   54   55 am   BACKBONE|DICT|INTERRES
   111   54  179 1    
   112   55   56 2    
   113   55   57 1    
   114   57   58 1    
   115   57   59 1    
   116   57  180 1    
   117   58  181 1    
   118   58  182 1    
   119   58  183 1    
   120   59   60 am   BACKBONE|DICT|INTERRES
   121   59  184 1    
   122   60   61 2    
   123   60   62 1    
   124   62   63 1    
   125   62   64 1    
   126   62  185 1    
   127   63  186 1    
   128   63  187 1    
   129   63  188 1    
   130   64   65 am   BACKBONE|DICT|INTERRES
   131   64  189 1    
   132   65   66 2    
   133   67   68 2    
   134   67   69 am   BACKBONE|DICT|INTERRES
   135   69   70 1    
   136   69  190 1    
   137   70   71 1    
   138   70   72 1    
   139   70  191 1    
   140   71  192 1    
   141   71  193 1    
   142   71  194 1    
   143   72   73 2    
   144   72   74 am   BACKBONE|DICT|INTERRES
   145   74   75 1    
   146   74  195 1    
   147   75   76 1    
   148   75   77 1    
   149   75  196 1    
   150   76  197 1    
   151   76  198 1    
   152   76  199 1    
   153   77   78 2    
   154   77   79 am   BACKBONE|DICT|INTERRES
   155   79   80 1    
   156   79  200 1    
   157   80   81 1    
   158   80   82 1    
   159   80  201 1    
   160   81  202 1    
   161   81  203 1    
   162   81  204 1    
   163   82   83 2    
   164   82   84 am   BACKBONE|DICT|INTERRES
   165   84   85 1    
   166   84  205 1    
   167   85   86 1    
   168   85   87 1    
   169   85  206 1    
   170   86  207 1    
   171   86  208 1    
   172   86  209 1    
   173   87   88 2    
   174   87   89 am   BACKBONE|DICT|INTERRES
   175   89   90 1    
   176   89  210 1    
   177   90   91 1    
   178   90   92 1    
   179   90  211 1    
   180   91  212 1    
   181   91  213 1    
   182   91  214 1    
   183   92   93 2    
   184   92   94 am   BACKBONE|DICT|INTERRES
   185   94   95 1    
   186   94  215 1    
   187   95   96 1    
   188   95   97 1    
   189   95  216 1    
   190   96  217 1    
   191   96  218 1    
   192   96  219 1    
   193   97   98 2    
   194   97   99 am   BACKBONE|DICT|INTERRES
   195   99  100 1    
   196   99  220 1    
   197  100  101 1    
   198  100  102 1    
   199  100  221 1    
   200  101  222 1    
   201  101  223 1    
   202  101  224 1    
   203  102  103 2    
   204  102  104 am   BACKBONE|DICT|INTERRES
   205  104  105 1    
   206  104  225 1    
   207  105  106 1    
   208  105  107 1    
   209  105  226 1    
   210  106  227 1    
   211  106  228 1    
   212  106  229 1    
   213  107  108 2    
   214  107  109 am   BACKBONE|DICT|INTERRES
   215  109  110 1    
   216  109  230 1    
   217  110  111 1    
   218  110  112 1    
   219  110  231 1    
   220  111  232 1    
   221  111  233 1    
   222  111  234 1    
   223  112  113 2    
   224  112  114 am   BACKBONE|DICT|INTERRES
   225  114  115 1    
   226  114  235 1    
   227  115  116 1    
   228  115  117 1    
   229  115  236 1    
   230  116  237 1    
   231  116  238 1    
   232  116  239 1    
   233  117  118 2    
   234  117  119 am   BACKBONE|DICT|INTERRES
   235  119  120 1    
   236  119  240 1    
   237  120  121 1    
   238  120  124 1    
   239  120  241 1    
   240  121  122 am   BACKBONE|DICT|INTERRES
   241  121  123 2    
   242  122  242 1    
   243  122  243 1    
   244  124  125 1    
   245  124  244 1    
   246  124  245 1    
   247  125  126 1    
   248  126  246 1    
   249  126  247 1    
@<TRIPOS>SUBSTRUCTURE
     1 UNK         1 GROUP             0       ****    0 ROOT    
