@<TRIPOS>MOLECULE
3R540
247   249    1
SMALL
USER_CHARGES


@<TRIPOS>ATOM
      1 CA          1.8381   -9.1836  -50.4035 C.3       0 UNK        -0.1800 
      2 C           1.7690   -9.9730  -49.1043 C.2       0 UNK         0.5000 
      3 O           1.1867   -9.5001  -48.1283 O.2       0 UNK        -0.5000 
      4 N           2.3504  -11.1798  -49.0891 N.am      1 UNK        -0.5000 
      5 CA          2.3871  -12.0829  -47.9302 C.3       1 UNK         0.1400 
      6 C6          3.5216  -13.1333  -48.0544 C.3       23 UNK        -0.0398 
      7 S7          3.3672  -14.2412  -49.5048 S.3       23 UNK        -0.2404 
      8 C8          2.9930  -15.8362  -48.6991 C.3       23 UNK        -0.0205 
      9 C9          2.0253  -16.7120  -49.4926 C.ar      23 UNK        -0.0193 
     10 C10         0.8734  -16.1721  -50.0782 C.ar      23 UNK        -0.1150 
     11 C11        -0.0336  -16.9913  -50.7561 C.ar      23 UNK        -0.0193 
     12 C12         0.2044  -18.3644  -50.8370 C.ar      23 UNK        -0.1150 
     13 C13         1.3453  -18.9192  -50.2549 C.ar      23 UNK        -0.0193 
     14 C14         2.2540  -18.0886  -49.5919 C.ar      23 UNK        -0.1150 
     15 C15         1.5897  -20.4176  -50.3372 C.3       23 UNK        -0.0205 
     16 S16         1.2301  -21.2454  -48.7593 S.3       23 UNK        -0.2404 
     17 C17        -0.5614  -20.9459  -48.5760 C.3       23 UNK        -0.0398 
     18 CA         -1.2239  -21.9306  -47.5862 C.3       11 UNK         0.1400 
     19 N          -0.6007  -21.9411  -46.2563 N.am      11 UNK        -0.5000 
     20 C          -0.8839  -22.8315  -45.2932 C.2       10 UNK         0.5000 
     21 O          -1.7280  -23.7208  -45.4165 O.2       10 UNK        -0.5000 
     22 CA         -0.1320  -22.6820  -43.9617 C.3       10 UNK         0.1400 
     23 CB          1.2849  -23.2669  -44.0654 C.3       10 UNK        -0.1800 
     24 N          -0.0589  -21.2785  -43.5599 N.am      10 UNK        -0.5000 
     25 C          -1.0061  -20.6426  -42.8552 C.2       9 UNK         0.5000 
     26 O          -2.0015  -21.2001  -42.3924 O.2       9 UNK        -0.5000 
     27 CA         -0.8308  -19.1225  -42.6505 C.3       9 UNK         0.1400 
     28 CB         -0.0858  -18.8313  -41.3399 C.3       9 UNK        -0.1800 
     29 N          -0.1267  -18.4683  -43.7536 N.am      9 UNK        -0.5000 
     30 C          -0.5965  -18.3890  -45.0063 C.2       8 UNK         0.5000 
     31 O          -1.7011  -18.8064  -45.3458 O.2       8 UNK        -0.5000 
     32 CA          0.3392  -17.7948  -46.0728 C.3       8 UNK         0.1400 
     33 CB          0.0081  -16.3156  -46.2946 C.3       8 UNK        -0.1800 
     34 N           1.7690  -17.9806  -45.7879 N.am      8 UNK        -0.5000 
     35 C           2.3461  -19.1881  -45.6591 C.2       7 UNK         0.5000 
     36 O           1.7122  -20.2425  -45.6921 O.2       7 UNK        -0.5000 
     37 CA          3.8636  -19.2574  -45.4115 C.3       7 UNK         0.1400 
     38 CB          4.6175  -19.4754  -46.7311 C.3       7 UNK        -0.1800 
     39 N           4.4217  -18.0912  -44.7327 N.am      7 UNK        -0.5000 
     40 C           4.1196  -17.6954  -43.4900 C.2       6 UNK         0.5000 
     41 O           3.2973  -18.2650  -42.7703 O.2       6 UNK        -0.5000 
     42 CA          4.8404  -16.4348  -42.9656 C.3       6 UNK         0.1400 
     43 CB          6.0306  -15.9763  -43.8398 C.3       6 UNK        -0.1800 
     44 N           3.9131  -15.3192  -42.7632 N.am      6 UNK        -0.5000 
     45 C           3.0628  -14.8094  -43.6642 C.2       5 UNK         0.5000 
     46 O           2.9371  -15.2308  -44.8177 O.2       5 UNK        -0.5000 
     47 CA          2.2329  -13.6054  -43.1969 C.3       5 UNK         0.1400 
     48 CB          2.7503  -12.3066  -43.8318 C.3       5 UNK        -0.1800 
     49 N           0.8326  -13.8009  -43.5555 N.am      5 UNK        -0.5000 
     50 C          -0.0516  -14.4471  -42.7832 C.2       4 UNK         0.5000 
     51 O           0.2358  -14.9108  -41.6782 O.2       4 UNK        -0.5000 
     52 CA         -1.4880  -14.6176  -43.3282 C.3       4 UNK         0.1400 
     53 CB         -2.5368  -14.7508  -42.2051 C.3       4 UNK        -0.1800 
     54 N          -1.8984  -13.5902  -44.2917 N.am      4 UNK        -0.5000 
     55 C          -1.9735  -12.2629  -44.1153 C.2       3 UNK         0.5000 
     56 O          -1.6795  -11.6998  -43.0594 O.2       3 UNK        -0.5000 
     57 CA         -2.4560  -11.4286  -45.3292 C.3       3 UNK         0.1400 
     58 CB         -2.2169   -9.9195  -45.1412 C.3       3 UNK        -0.1800 
     59 N          -1.8420  -11.8378  -46.5963 N.am      3 UNK        -0.5000 
     60 C          -2.1262  -12.9474  -47.2909 C.2       2 UNK         0.5000 
     61 O          -3.0002  -13.7457  -46.9537 O.2       2 UNK        -0.5000 
     62 CA         -1.2698  -13.2515  -48.5357 C.3       2 UNK         0.1400 
     63 CB         -2.0165  -12.8170  -49.8059 C.3       2 UNK        -0.1800 
     64 N           0.0684  -12.6506  -48.5566 N.am      2 UNK        -0.5000 
     65 C           1.0201  -12.7357  -47.6133 C.2       1 UNK         0.5000 
     66 O           0.8533  -13.2808  -46.5235 O.2       1 UNK        -0.5000 
     67 C          -2.7486  -21.7099  -47.5216 C.2       11 UNK         0.5000 
     68 O          -3.4660  -22.3069  -48.3185 O.2       11 UNK        -0.5000 
     69 N          -3.2290  -20.9340  -46.5388 N.am      12 UNK        -0.5000 
     70 CA         -4.6503  -20.7439  -46.2387 C.3       12 UNK         0.1400 
     71 CB         -4.8001  -19.7026  -45.1194 C.3       12 UNK        -0.1800 
     72 C          -5.3945  -22.0416  -45.8667 C.2       12 UNK         0.5000 
     73 O          -6.5820  -22.1592  -46.1707 O.2       12 UNK        -0.5000 
     74 N          -4.6935  -22.9874  -45.2266 N.am      13 UNK        -0.5000 
     75 CA         -5.2286  -24.2975  -44.8611 C.3       13 UNK         0.1400 
     76 CB         -4.5212  -24.8032  -43.5938 C.3       13 UNK        -0.1800 
     77 C          -5.0822  -25.3076  -46.0117 C.2       13 UNK         0.5000 
     78 O          -6.0169  -26.0645  -46.2761 O.2       13 UNK        -0.5000 
     79 N          -3.9140  -25.3068  -46.6691 N.am      14 UNK        -0.5000 
     80 CA         -3.5800  -26.2137  -47.7701 C.3       14 UNK         0.1400 
     81 CB         -2.0639  -26.1712  -47.9996 C.3       14 UNK        -0.1800 
     82 C          -4.3311  -25.9022  -49.0789 C.2       14 UNK         0.5000 
     83 O          -4.6446  -26.8241  -49.8333 O.2       14 UNK        -0.5000 
     84 N          -4.5966  -24.6135  -49.3278 N.am      15 UNK        -0.5000 
     85 CA         -5.2453  -24.0489  -50.5085 C.3       15 UNK         0.1400 
     86 CB         -6.7479  -24.4067  -50.5219 C.3       15 UNK        -0.1800 
     87 C          -4.4825  -24.4112  -51.7987 C.2       15 UNK         0.5000 
     88 O          -3.2848  -24.1302  -51.8946 O.2       15 UNK        -0.5000 
     89 N          -5.1714  -25.0450  -52.7562 N.am      16 UNK        -0.5000 
     90 CA         -4.6429  -25.4745  -54.0526 C.3       16 UNK         0.1400 
     91 CB         -5.7961  -26.0437  -54.8926 C.3       16 UNK        -0.1800 
     92 C          -3.4837  -26.4884  -53.9707 C.2       16 UNK         0.5000 
     93 O          -2.7145  -26.5916  -54.9266 O.2       16 UNK        -0.5000 
     94 N          -3.3582  -27.2021  -52.8405 N.am      17 UNK        -0.5000 
     95 CA         -2.2413  -28.1091  -52.5672 C.3       17 UNK         0.1400 
     96 CB         -2.5882  -29.0138  -51.3755 C.3       17 UNK        -0.1800 
     97 C          -0.9144  -27.3647  -52.3175 C.2       17 UNK         0.5000 
     98 O           0.1468  -27.9389  -52.5648 O.2       17 UNK        -0.5000 
     99 N          -0.9924  -26.1090  -51.8531 N.am      18 UNK        -0.5000 
    100 CA         0.1511  -25.2094  -51.7312 C.3       18 UNK         0.1400 
    101 CB        -0.0017  -24.3231  -50.4865 C.3       18 UNK        -0.1800 
    102 C          0.2919  -24.3651  -53.0053 C.2       18 UNK         0.5000 
    103 O          1.3233  -24.4461  -53.6732 O.2       18 UNK        -0.5000 
    104 N         -0.7551  -23.5951  -53.3275 N.am      19 UNK        -0.5000 
    105 CA        -0.8475  -22.7404  -54.5104 C.3       19 UNK         0.1400 
    106 CB         0.1926  -21.5984  -54.4766 C.3       19 UNK        -0.1800 
    107 C         -2.2667  -22.1726  -54.6088 C.2       19 UNK         0.5000 
    108 O         -2.9621  -22.4156  -55.5950 O.2       19 UNK        -0.5000 
    109 N         -2.6706  -21.4440  -53.5648 N.am      20 UNK        -0.5000 
    110 CA        -3.9738  -20.8191  -53.3936 C.3       20 UNK         0.1400 
    111 CB        -4.0790  -19.5524  -54.2632 C.3       20 UNK        -0.1800 
    112 C         -4.1285  -20.4702  -51.9090 C.2       20 UNK         0.5000 
    113 O         -3.1210  -20.3067  -51.2155 O.2       20 UNK        -0.5000 
    114 N         -5.3823  -20.3547  -51.4532 N.am      21 UNK        -0.5000 
    115 CA        -5.7083  -19.9942  -50.0714 C.3       21 UNK         0.1400 
    116 CB        -7.1566  -20.4006  -49.7614 C.3       21 UNK        -0.1800 
    117 C         -5.4820  -18.5007  -49.7707 C.2       21 UNK         0.5000 
    118 O         -5.1467  -18.1670  -48.6355 O.2       21 UNK        -0.5000 
    119 N         -5.6837  -17.6557  -50.7935 N.am      22 UNK        -0.5000 
    120 CA        -5.4442  -16.1993  -50.9100 C.3       22 UNK         0.1400 
    121 C         -5.9371  -15.2314  -49.7873 C.2       22 UNK         0.5000 
    122 N         -6.3452  -15.6975  -48.6184 N.am      22 UNK        -0.7600 
    123 O         -5.9943  -14.0244  -50.0072 O.2       22 UNK        -0.5000 
    124 C124       -4.0057  -15.8668  -51.3910 C.3       23 UNK        -0.0398 
    125 S125       -2.6736  -16.3818  -50.2554 S.3       23 UNK        -0.2404 
    126 C126       -1.2708  -16.4014  -51.4078 C.3       23 UNK        -0.0205 
    127 H127        2.3456   -8.2332  -50.2381 H         1 UNK         0.0600 
    128 H128        2.3778   -9.7267  -51.1798 H         1 UNK         0.0600 
    129 H129        0.8329   -8.9754  -50.7700 H         1 UNK         0.0600 
    130 H130        2.8089  -11.5251  -49.9213 H         1 UNK         0.3000 
    131 H131        2.6270  -11.4656  -47.0625 H         1 UNK         0.0600 
    132 H132        4.4784  -12.6166  -48.1387 H         1 UNK         0.0800 
    133 H133        3.5983  -13.7183  -47.1361 H         1 UNK         0.0800 
    134 H134        3.9355  -16.3599  -48.5340 H         1 UNK         0.0800 
    135 H135        2.5685  -15.6640  -47.7113 H         1 UNK         0.0800 
    136 H136        0.6780  -15.1126  -50.0027 H         1 UNK         0.1150 
    137 H137       -0.5058  -19.0009  -51.3469 H         1 UNK         0.1150 
    138 H138        3.1300  -18.5255  -49.1369 H         1 UNK         0.1150 
    139 H139        0.9889  -20.8691  -51.1281 H         1 UNK         0.0800 
    140 H140        2.6318  -20.6002  -50.6026 H         1 UNK         0.0800 
    141 H141       -0.7245  -19.9146  -48.2667 H         1 UNK         0.0800 
    142 H142       -1.0246  -21.0431  -49.5599 H         1 UNK         0.0800 
    143 H143       -1.0780  -22.9312  -47.9953 H         1 UNK         0.0600 
    144 H144        0.1477  -21.2708  -46.1015 H         1 UNK         0.3000 
    145 H145       -0.6733  -23.2518  -43.2032 H         1 UNK         0.0600 
    146 H146        1.8136  -23.1869  -43.1155 H         1 UNK         0.0600 
    147 H147        1.2492  -24.3244  -44.3301 H         1 UNK         0.0600 
    148 H148        1.8821  -22.7608  -44.8243 H         1 UNK         0.0600 
    149 H149        0.6944  -20.7371  -43.9673 H         1 UNK         0.3000 
    150 H150       -1.8279  -18.6823  -42.5817 H         1 UNK         0.0600 
    151 H151       -0.5983  -19.2833  -40.4898 H         1 UNK         0.0600 
    152 H152       -0.0255  -17.7592  -41.1506 H         1 UNK         0.0600 
    153 H153        0.9310  -19.2257  -41.3598 H         1 UNK         0.0600 
    154 H154        0.8096  -18.1367  -43.5644 H         1 UNK         0.3000 
    155 H155        0.1299  -18.3139  -47.0074 H         1 UNK         0.0600 
    156 H156       -1.0688  -16.1514  -46.3567 H         1 UNK         0.0600 
    157 H157        0.3921  -15.6976  -45.4875 H         1 UNK         0.0600 
    158 H158        0.4259  -15.9496  -47.2280 H         1 UNK         0.0600 
    159 H159        2.3304  -17.1440  -45.6738 H         1 UNK         0.3000 
    160 H160        4.0405  -20.1266  -44.7747 H         1 UNK         0.0600 
    161 H161        4.1845  -20.2979  -47.3027 H         1 UNK         0.0600 
    162 H162        4.5911  -18.5851  -47.3589 H         1 UNK         0.0600 
    163 H163        5.6633  -19.7233  -46.5489 H         1 UNK         0.0600 
    164 H164        5.0842  -17.5394  -45.2573 H         1 UNK         0.3000 
    165 H165        5.2345  -16.6977  -41.9830 H         1 UNK         0.0600 
    166 H166        5.7150  -15.6478  -44.8309 H         1 UNK         0.0600 
    167 H167        6.5539  -15.1422  -43.3724 H         1 UNK         0.0600 
    168 H168        6.7602  -16.7773  -43.9668 H         1 UNK         0.0600 
    169 H169        3.9142  -14.9248  -41.8331 H         1 UNK         0.3000 
    170 H170        2.3193  -13.5008  -42.1131 H         1 UNK         0.0600 
    171 H171        3.7643  -12.0881  -43.4955 H         1 UNK         0.0600 
    172 H172        2.7766  -12.3732  -44.9177 H         1 UNK         0.0600 
    173 H173        2.1245  -11.4559  -43.5611 H         1 UNK         0.0600 
    174 H174        0.5735  -13.5288  -44.4986 H         1 UNK         0.3000 
    175 H175       -1.4882  -15.5599  -43.8759 H         1 UNK         0.0600 
    176 H176       -3.5367  -14.8944  -42.6145 H         1 UNK         0.0600 
    177 H177       -2.3240  -15.6104  -41.5683 H         1 UNK         0.0600 
    178 H178       -2.5586  -13.8670  -41.5668 H         1 UNK         0.0600 
    179 H179       -2.1864  -13.9330  -45.2033 H         1 UNK         0.3000 
    180 H180       -3.5338  -11.5847  -45.4070 H         1 UNK         0.0600 
    181 H181       -2.6031   -9.3503  -45.9870 H         1 UNK         0.0600 
    182 H182       -2.7208   -9.5484  -44.2478 H         1 UNK         0.0600 
    183 H183       -1.1548   -9.6919  -45.0405 H         1 UNK         0.0600 
    184 H184       -1.0759  -11.2671  -46.9240 H         1 UNK         0.3000 
    185 H185       -1.1360  -14.3339  -48.5664 H         1 UNK         0.0600 
    186 H186       -1.4990  -13.1527  -50.7043 H         1 UNK         0.0600 
    187 H187       -3.0213  -13.2409  -49.8334 H         1 UNK         0.0600 
    188 H188       -2.1182  -11.7325  -49.8601 H         1 UNK         0.0600 
    189 H189        0.3135  -12.1567  -49.4017 H         1 UNK         0.3000 
    190 H190       -2.5769  -20.4061  -45.9651 H         1 UNK         0.3000 
    191 H191       -5.1306  -20.3460  -47.1311 H         1 UNK         0.0600 
    192 H192       -5.8473  -19.5640  -44.8478 H         1 UNK         0.0600 
    193 H193       -4.4194  -18.7314  -45.4361 H         1 UNK         0.0600 
    194 H194       -4.2602  -19.9993  -44.2191 H         1 UNK         0.0600 
    195 H195       -3.7072  -22.8372  -45.0571 H         1 UNK         0.3000 
    196 H196       -6.2919  -24.2030  -44.6301 H         1 UNK         0.0600 
    197 H197       -4.9272  -25.7657  -43.2800 H         1 UNK         0.0600 
    198 H198       -4.6550  -24.1080  -42.7648 H         1 UNK         0.0600 
    199 H199       -3.4501  -24.9352  -43.7486 H         1 UNK         0.0600 
    200 H200       -3.1813  -24.6779  -46.3550 H         1 UNK         0.3000 
    201 H201       -3.8495  -27.2290  -47.4718 H         1 UNK         0.0600 
    202 H202       -1.5211  -26.5091  -47.1167 H         1 UNK         0.0600 
    203 H203       -1.7340  -25.1589  -48.2256 H         1 UNK         0.0600 
    204 H204       -1.7674  -26.8109  -48.8316 H         1 UNK         0.0600 
    205 H205       -4.2185  -23.9125  -48.6939 H         1 UNK         0.3000 
    206 H206       -5.1651  -22.9678  -50.4057 H         1 UNK         0.0600 
    207 H207       -7.2271  -24.0877  -49.5960 H         1 UNK         0.0600 
    208 H208       -7.2682  -23.9035  -51.3378 H         1 UNK         0.0600 
    209 H209       -6.9172  -25.4793  -50.6230 H         1 UNK         0.0600 
    210 H210       -6.1409  -25.2631  -52.5776 H         1 UNK         0.3000 
    211 H211       -4.2587  -24.5880  -54.5594 H         1 UNK         0.0600 
    212 H212       -6.2429  -26.9194  -54.4202 H         1 UNK         0.0600 
    213 H213       -5.4483  -26.3455  -55.8816 H         1 UNK         0.0600 
    214 H214       -6.5815  -25.3021  -55.0397 H         1 UNK         0.0600 
    215 H215       -4.0229  -27.0589  -52.0902 H         1 UNK         0.3000 
    216 H216       -2.1021  -28.7472  -53.4425 H         1 UNK         0.0600 
    217 H217       -1.8159  -29.7691  -51.2251 H         1 UNK         0.0600 
    218 H218       -3.5298  -29.5391  -51.5362 H         1 UNK         0.0600 
    219 H219       -2.6720  -28.4480  -50.4484 H         1 UNK         0.0600 
    220 H220       -1.9072  -25.6912  -51.7304 H         1 UNK         0.3000 
    221 H221        1.0725  -25.7830  -51.6097 H         1 UNK         0.0600 
    222 H222       -0.9666  -23.8163  -50.4509 H         1 UNK         0.0600 
    223 H223        0.1092  -24.9121  -49.5775 H         1 UNK         0.0600 
    224 H224        0.7749  -23.5593  -50.4650 H         1 UNK         0.0600 
    225 H225       -1.5962  -23.6459  -52.7571 H         1 UNK         0.3000 
    226 H226       -0.6704  -23.3553  -55.3951 H         1 UNK         0.0600 
    227 H227        1.2094  -21.9754  -54.5808 H         1 UNK         0.0600 
    228 H228        0.0300  -20.8987  -55.2975 H         1 UNK         0.0600 
    229 H229        0.1429  -21.0303  -53.5472 H         1 UNK         0.0600 
    230 H230       -2.0586  -21.3153  -52.7682 H         1 UNK         0.3000 
    231 H231       -4.7514  -21.5328  -53.6735 H         1 UNK         0.0600 
    232 H232       -5.0447  -19.0636  -54.1310 H         1 UNK         0.0600 
    233 H233       -3.9800  -19.7869  -55.3230 H         1 UNK         0.0600 
    234 H234       -3.3053  -18.8270  -54.0077 H         1 UNK         0.0600 
    235 H235       -6.1587  -20.5004  -52.0825 H         1 UNK         0.3000 
    236 H236       -5.0526  -20.5631  -49.4126 H         1 UNK         0.0600 
    237 H237       -7.8694  -19.8763  -50.3988 H         1 UNK         0.0600 
    238 H238       -7.3048  -21.4713  -49.8993 H         1 UNK         0.0600 
    239 H239       -7.4110  -20.1721  -48.7254 H         1 UNK         0.0600 
    240 H240       -6.0013  -18.0818  -51.6507 H         1 UNK         0.3000 
    241 H241       -6.0914  -15.9273  -51.7449 H         1 UNK         0.0600 
    242 H242       -6.6663  -15.0647  -47.9040 H         1 UNK         0.3800 
    243 H243       -6.1457  -16.6700  -48.3995 H         1 UNK         0.3800 
    244 H244       -3.8996  -14.7993  -51.5903 H         1 UNK         0.0800 
    245 H245       -3.8416  -16.3571  -52.3514 H         1 UNK         0.0800 
    246 H246       -1.5314  -16.9855  -52.2919 H         1 UNK         0.0800 
    247 H247       -1.0682  -15.3873  -51.7547 H         1 UNK         0.0800 
@<TRIPOS>BOND
     1    1    2 1    
     2    1  127 1    
     3    1  128 1    
     4    1  129 1    
     5    2    3 2    
     6    2    4 am   BACKBONE|DICT|INTERRES
     7    4    5 1    
     8    4  130 1    
     9    5    6 1    
    10    5   65 1    
    11    5  131 1    
    12    6    7 1    
    13    6  132 1    
    14    6  133 1    
    15    7    8 1    
    16    8    9 1    
    17    8  134 1    
    18    8  135 1    
    19    9   10 ar   
    20    9   14 ar   
    21   10   11 ar   
    22   10  136 1    
    23   11   12 ar   
    24   11  126 1    
    25   12   13 ar   
    26   12  137 1    
    27   13   14 ar   
    28   13   15 1    
    29   14  138 1    
    30   15   16 1    
    31   15  139 1    
    32   15  140 1    
    33   16   17 1    
    34   17   18 1    
    35   17  141 1    
    36   17  142 1    
    37   18   19 1    
    38   18   67 1    
    39   18  143 1    
    40   19   20 am   BACKBONE|DICT|INTERRES
    41   19  144 1    
    42   20   21 2    
    43   20   22 1    
    44   22   23 1    
    45   22   24 1    
    46   22  145 1    
    47   23  146 1    
    48   23  147 1    
    49   23  148 1    
    50   24   25 am   BACKBONE|DICT|INTERRES
    51   24  149 1    
    52   25   26 2    
    53   25   27 1    
    54   27   28 1    
    55   27   29 1    
    56   27  150 1    
    57   28  151 1    
    58   28  152 1    
    59   28  153 1    
    60   29   30 am   BACKBONE|DICT|INTERRES
    61   29  154 1    
    62   30   31 2    
    63   30   32 1    
    64   32   33 1    
    65   32   34 1    
    66   32  155 1    
    67   33  156 1    
    68   33  157 1    
    69   33  158 1    
    70   34   35 am   BACKBONE|DICT|INTERRES
    71   34  159 1    
    72   35   36 2    
    73   35   37 1    
    74   37   38 1    
    75   37   39 1    
    76   37  160 1    
    77   38  161 1    
    78   38  162 1    
    79   38  163 1    
    80   39   40 am   BACKBONE|DICT|INTERRES
    81   39  164 1    
    82   40   41 2    
    83   40   42 1    
    84   42   43 1    
    85   42   44 1    
    86   42  165 1    
    87   43  166 1    
    88   43  167 1    
    89   43  168 1    
    90   44   45 am   BACKBONE|DICT|INTERRES
    91   44  169 1    
    92   45   46 2    
    93   45   47 1    
    94   47   48 1    
    95   47   49 1    
    96   47  170 1    
    97   48  171 1    
    98   48  172 1    
    99   48  173 1    
   100   49   50 am   BACKBONE|DICT|INTERRES
   101   49  174 1    
   102   50   51 2    
   103   50   52 1    
   104   52   53 1    
   105   52   54 1    
   106   52  175 1    
   107   53  176 1    
   108   53  177 1    
   109   53  178 1    
   110   54   55 am   BACKBONE|DICT|INTERRES
   111   54  179 1    
   112   55   56 2    
   113   55   57 1    
   114   57   58 1    
   115   57   59 1    
   116   57  180 1    
   117   58  181 1    
   118   58  182 1    
   119   58  183 1    
   120   59   60 am   BACKBONE|DICT|INTERRES
   121   59  184 1    
   122   60   61 2    
   123   60   62 1    
   124   62   63 1    
   125   62   64 1    
   126   62  185 1    
   127   63  186 1    
   128   63  187 1    
   129   63  188 1    
   130   64   65 am   BACKBONE|DICT|INTERRES
   131   64  189 1    
   132   65   66 2    
   133   67   68 2    
   134   67   69 am   BACKBONE|DICT|INTERRES
   135   69   70 1    
   136   69  190 1    
   137   70   71 1    
   138   70   72 1    
   139   70  191 1    
   140   71  192 1    
   141   71  193 1    
   142   71  194 1    
   143   72   73 2    
   144   72   74 am   BACKBONE|DICT|INTERRES
   145   74   75 1    
   146   74  195 1    
   147   75   76 1    
   148   75   77 1    
   149   75  196 1    
   150   76  197 1    
   151   76  198 1    
   152   76  199 1    
   153   77   78 2    
   154   77   79 am   BACKBONE|DICT|INTERRES
   155   79   80 1    
   156   79  200 1    
   157   80   81 1    
   158   80   82 1    
   159   80  201 1    
   160   81  202 1    
   161   81  203 1    
   162   81  204 1    
   163   82   83 2    
   164   82   84 am   BACKBONE|DICT|INTERRES
   165   84   85 1    
   166   84  205 1    
   167   85   86 1    
   168   85   87 1    
   169   85  206 1    
   170   86  207 1    
   171   86  208 1    
   172   86  209 1    
   173   87   88 2    
   174   87   89 am   BACKBONE|DICT|INTERRES
   175   89   90 1    
   176   89  210 1    
   177   90   91 1    
   178   90   92 1    
   179   90  211 1    
   180   91  212 1    
   181   91  213 1    
   182   91  214 1    
   183   92   93 2    
   184   92   94 am   BACKBONE|DICT|INTERRES
   185   94   95 1    
   186   94  215 1    
   187   95   96 1    
   188   95   97 1    
   189   95  216 1    
   190   96  217 1    
   191   96  218 1    
   192   96  219 1    
   193   97   98 2    
   194   97   99 am   BACKBONE|DICT|INTERRES
   195   99  100 1    
   196   99  220 1    
   197  100  101 1    
   198  100  102 1    
   199  100  221 1    
   200  101  222 1    
   201  101  223 1    
   202  101  224 1    
   203  102  103 2    
   204  102  104 am   BACKBONE|DICT|INTERRES
   205  104  105 1    
   206  104  225 1    
   207  105  106 1    
   208  105  107 1    
   209  105  226 1    
   210  106  227 1    
   211  106  228 1    
   212  106  229 1    
   213  107  108 2    
   214  107  109 am   BACKBONE|DICT|INTERRES
   215  109  110 1    
   216  109  230 1    
   217  110  111 1    
   218  110  112 1    
   219  110  231 1    
   220  111  232 1    
   221  111  233 1    
   222  111  234 1    
   223  112  113 2    
   224  112  114 am   BACKBONE|DICT|INTERRES
   225  114  115 1    
   226  114  235 1    
   227  115  116 1    
   228  115  117 1    
   229  115  236 1    
   230  116  237 1    
   231  116  238 1    
   232  116  239 1    
   233  117  118 2    
   234  117  119 am   BACKBONE|DICT|INTERRES
   235  119  120 1    
   236  119  240 1    
   237  120  121 1    
   238  120  124 1    
   239  120  241 1    
   240  121  122 am   BACKBONE|DICT|INTERRES
   241  121  123 2    
   242  122  242 1    
   243  122  243 1    
   244  124  125 1    
   245  124  244 1    
   246  124  245 1    
   247  125  126 1    
   248  126  246 1    
   249  126  247 1    
@<TRIPOS>SUBSTRUCTURE
     1 UNK         1 GROUP             0       ****    0 ROOT    
