@<TRIPOS>MOLECULE
3R540
247   249    1
SMALL
USER_CHARGES


@<TRIPOS>ATOM
      1 CA         -3.0471  -14.6677  -44.8144 C.3       0 UNK        -0.1800 
      2 C          -2.4026  -13.6752  -45.7727 C.2       0 UNK         0.5000 
      3 O          -2.0856  -12.5552  -45.3712 O.2       0 UNK        -0.5000 
      4 N          -2.2210  -14.0752  -47.0373 N.am      1 UNK        -0.5000 
      5 CA         -1.5703  -13.2834  -48.0850 C.3       1 UNK         0.1400 
      6 C6         -1.7690  -13.9099  -49.4868 C.3       23 UNK        -0.0398 
      7 S7         -3.4309  -13.6583  -50.2113 S.3       23 UNK        -0.2404 
      8 C8         -4.5626  -14.6682  -49.1878 C.3       23 UNK        -0.0205 
      9 C9         -4.1407  -16.1178  -48.9544 C.ar      23 UNK        -0.0193 
     10 C10        -3.3428  -16.8181  -49.8653 C.ar      23 UNK        -0.1150 
     11 C11        -2.9382  -18.1281  -49.6059 C.ar      23 UNK        -0.0193 
     12 C12        -3.3564  -18.7533  -48.4314 C.ar      23 UNK        -0.1150 
     13 C13        -4.1832  -18.0833  -47.5254 C.ar      23 UNK        -0.0193 
     14 C14        -4.5708  -16.7678  -47.7939 C.ar      23 UNK        -0.1150 
     15 C15        -4.6107  -18.7591  -46.2322 C.3       23 UNK        -0.0205 
     16 S16        -5.3180  -20.4141  -46.5056 S.3       23 UNK        -0.2404 
     17 C17        -4.6763  -21.2984  -45.0456 C.3       23 UNK        -0.0398 
     18 CA         -3.2184  -21.8032  -45.2344 C.3       11 UNK         0.1400 
     19 N          -2.4522  -21.8602  -43.9806 N.am      11 UNK        -0.5000 
     20 C          -2.7800  -22.4826  -42.8382 C.2       10 UNK         0.5000 
     21 O          -3.7977  -23.1617  -42.7045 O.2       10 UNK        -0.5000 
     22 CA         -1.7991  -22.3462  -41.6600 C.3       10 UNK         0.1400 
     23 CB         -0.7248  -23.4428  -41.7343 C.3       10 UNK        -0.1800 
     24 N          -1.1502  -21.0343  -41.6546 N.am      10 UNK        -0.5000 
     25 C          -1.5633  -19.9770  -40.9393 C.2       9 UNK         0.5000 
     26 O          -2.4832  -20.0214  -40.1218 O.2       9 UNK        -0.5000 
     27 CA         -0.8438  -18.6336  -41.1936 C.3       9 UNK         0.1400 
     28 CB          0.3717  -18.4855  -40.2665 C.3       9 UNK        -0.1800 
     29 N          -0.4038  -18.4823  -42.5803 N.am      9 UNK        -0.5000 
     30 C          -1.2231  -18.4204  -43.6388 C.2       8 UNK         0.5000 
     31 O          -2.4428  -18.3003  -43.5408 O.2       8 UNK        -0.5000 
     32 CA         -0.5880  -18.5844  -45.0351 C.3       8 UNK         0.1400 
     33 CB         -0.5914  -17.2620  -45.8140 C.3       8 UNK        -0.1800 
     34 N           0.7725  -19.1257  -45.0014 N.am      8 UNK        -0.5000 
     35 C           1.1207  -20.3565  -44.6014 C.2       7 UNK         0.5000 
     36 O           0.3066  -21.1948  -44.2142 O.2       7 UNK        -0.5000 
     37 CA          2.6206  -20.6905  -44.6018 C.3       7 UNK         0.1400 
     38 CB          3.0620  -21.2068  -45.9773 C.3       7 UNK        -0.1800 
     39 N           3.4220  -19.5189  -44.2537 N.am      7 UNK        -0.5000 
     40 C           3.7662  -19.1757  -43.0062 C.2       6 UNK         0.5000 
     41 O           3.4724  -19.8369  -42.0102 O.2       6 UNK        -0.5000 
     42 CA          4.5673  -17.8697  -42.8393 C.3       6 UNK         0.1400 
     43 CB          6.0758  -18.1538  -42.8996 C.3       6 UNK        -0.1800 
     44 N           4.2323  -16.8502  -43.8361 N.am      6 UNK        -0.5000 
     45 C           3.0655  -16.1932  -43.8821 C.2       5 UNK         0.5000 
     46 O           2.1448  -16.3788  -43.0858 O.2       5 UNK        -0.5000 
     47 CA          2.8888  -15.1715  -45.0235 C.3       5 UNK         0.1400 
     48 CB          3.5189  -13.8290  -44.6235 C.3       5 UNK        -0.1800 
     49 N           3.4127  -15.5720  -46.3379 N.am      5 UNK        -0.5000 
     50 C           3.1998  -16.7411  -46.9608 C.2       4 UNK         0.5000 
     51 O           2.6714  -17.7135  -46.4257 O.2       4 UNK        -0.5000 
     52 CA          3.6266  -16.8273  -48.4330 C.3       4 UNK         0.1400 
     53 CB          3.1040  -18.0963  -49.1374 C.3       4 UNK        -0.1800 
     54 N           3.1637  -15.6382  -49.1425 N.am      4 UNK        -0.5000 
     55 C           3.7677  -15.1032  -50.2101 C.2       3 UNK         0.5000 
     56 O           4.7932  -15.5611  -50.7163 O.2       3 UNK        -0.5000 
     57 CA          3.1318  -13.8364  -50.8171 C.3       3 UNK         0.1400 
     58 CB          2.1923  -14.2208  -51.9717 C.3       3 UNK        -0.1800 
     59 N           2.3875  -13.0102  -49.8629 N.am      3 UNK        -0.5000 
     60 C           2.8826  -12.4304  -48.7593 C.2       2 UNK         0.5000 
     61 O           4.0550  -12.5322  -48.3977 O.2       2 UNK        -0.5000 
     62 CA          1.8981  -11.6052  -47.9046 C.3       2 UNK         0.1400 
     63 CB          2.0787  -10.1050  -48.1817 C.3       2 UNK        -0.1800 
     64 N           0.4872  -11.9563  -48.0973 N.am      2 UNK        -0.5000 
     65 C          -0.0626  -13.1399  -47.7934 C.2       1 UNK         0.5000 
     66 O           0.5769  -14.1022  -47.3624 O.2       1 UNK        -0.5000 
     67 C          -3.1301  -23.1162  -46.0414 C.2       11 UNK         0.5000 
     68 O          -2.8714  -23.0813  -47.2480 O.2       11 UNK        -0.5000 
     69 N          -3.2704  -24.2574  -45.3543 N.am      12 UNK        -0.5000 
     70 CA         -3.0702  -25.6062  -45.8875 C.3       12 UNK         0.1400 
     71 CB         -3.4078  -26.6349  -44.7993 C.3       12 UNK        -0.1800 
     72 C          -1.6439  -25.8287  -46.4246 C.2       12 UNK         0.5000 
     73 O          -1.4731  -26.4694  -47.4613 O.2       12 UNK        -0.5000 
     74 N          -0.6552  -25.2528  -45.7285 N.am      13 UNK        -0.5000 
     75 CA          0.7588  -25.2995  -46.0962 C.3       13 UNK         0.1400 
     76 CB          1.5963  -24.8757  -44.8789 C.3       13 UNK        -0.1800 
     77 C           1.1072  -24.4158  -47.3092 C.2       13 UNK         0.5000 
     78 O           2.0898  -24.7011  -47.9938 O.2       13 UNK        -0.5000 
     79 N           0.3307  -23.3453  -47.5318 N.am      14 UNK        -0.5000 
     80 CA          0.5926  -22.3487  -48.5685 C.3       14 UNK         0.1400 
     81 CB         -0.1060  -21.0299  -48.2090 C.3       14 UNK        -0.1800 
     82 C           0.1671  -22.8350  -49.9603 C.2       14 UNK         0.5000 
     83 O           0.9793  -22.8040  -50.8852 O.2       14 UNK        -0.5000 
     84 N          -1.0935  -23.2690  -50.0841 N.am      15 UNK        -0.5000 
     85 CA         -1.6883  -23.7035  -51.3489 C.3       15 UNK         0.1400 
     86 CB         -1.9442  -22.4961  -52.2790 C.3       15 UNK        -0.1800 
     87 C          -2.9551  -24.5360  -51.1004 C.2       15 UNK         0.5000 
     88 O          -3.9783  -24.2979  -51.7411 O.2       15 UNK        -0.5000 
     89 N          -2.8865  -25.4871  -50.1555 N.am      16 UNK        -0.5000 
     90 CA         -3.9609  -26.4323  -49.8075 C.3       16 UNK         0.1400 
     91 CB         -4.1720  -27.4492  -50.9490 C.3       16 UNK        -0.1800 
     92 C          -5.2740  -25.7409  -49.3739 C.2       16 UNK         0.5000 
     93 O          -6.3635  -26.2406  -49.6575 O.2       16 UNK        -0.5000 
     94 N          -5.1279  -24.5899  -48.7029 N.am      17 UNK        -0.5000 
     95 CA         -6.1760  -23.6967  -48.2084 C.3       17 UNK         0.1400 
     96 CB         -7.1096  -24.4093  -47.2081 C.3       17 UNK        -0.1800 
     97 C          -6.9327  -22.9174  -49.3051 C.2       17 UNK         0.5000 
     98 O          -7.9620  -22.3103  -49.0041 O.2       17 UNK        -0.5000 
     99 N          -6.4114  -22.8978  -50.5409 N.am      18 UNK        -0.5000 
    100 CA        -6.8864  -22.0162  -51.6044 C.3       18 UNK         0.1400 
    101 CB        -6.5304  -22.6105  -52.9764 C.3       18 UNK        -0.1800 
    102 C         -6.2560  -20.6257  -51.4259 C.2       18 UNK         0.5000 
    103 O         -5.0287  -20.5072  -51.4364 O.2       18 UNK        -0.5000 
    104 N         -7.1007  -19.6008  -51.2640 N.am      19 UNK        -0.5000 
    105 CA        -6.6793  -18.2052  -51.1557 C.3       19 UNK         0.1400 
    106 CB        -7.8607  -17.3553  -50.6661 C.3       19 UNK        -0.1800 
    107 C         -6.1432  -17.6727  -52.4977 C.2       19 UNK         0.5000 
    108 O         -6.6072  -18.0981  -53.5577 O.2       19 UNK        -0.5000 
    109 N         -5.1672  -16.7599  -52.4190 N.am      20 UNK        -0.5000 
    110 CA        -4.4472  -16.0674  -53.5005 C.3       20 UNK         0.1400 
    111 CB        -5.4139  -15.2279  -54.3566 C.3       20 UNK        -0.1800 
    112 C         -3.5509  -16.9581  -54.3906 C.2       20 UNK         0.5000 
    113 O         -2.6133  -16.4398  -54.9982 O.2       20 UNK        -0.5000 
    114 N         -3.8178  -18.2698  -54.4390 N.am      21 UNK        -0.5000 
    115 CA        -3.1466  -19.2739  -55.2717 C.3       21 UNK         0.1400 
    116 CB        -3.8488  -20.6238  -55.0599 C.3       21 UNK        -0.1800 
    117 C         -1.6287  -19.4125  -55.0337 C.2       21 UNK         0.5000 
    118 O         -0.9097  -19.8387  -55.9382 O.2       21 UNK        -0.5000 
    119 N         -1.1728  -19.0389  -53.8340 N.am      22 UNK        -0.5000 
    120 CA         0.2412  -18.9541  -53.4448 C.3       22 UNK         0.1400 
    121 C          0.9774  -17.6760  -53.9497 C.2       22 UNK         0.5000 
    122 N          0.3028  -16.7000  -54.5482 N.am      22 UNK        -0.7600 
    123 O          2.1935  -17.5777  -53.8139 O.2       22 UNK        -0.5000 
    124 C124        0.4202  -19.1751  -51.9201 C.3       23 UNK        -0.0398 
    125 S125       -0.4852  -17.9824  -50.8748 S.3       23 UNK        -0.2404 
    126 C126       -2.0569  -18.8645  -50.5988 C.3       23 UNK        -0.0205 
    127 H127       -3.4674  -15.5259  -45.3381 H         1 UNK         0.0600 
    128 H128       -3.8526  -14.1870  -44.2595 H         1 UNK         0.0600 
    129 H129       -2.3095  -15.0325  -44.0994 H         1 UNK         0.0600 
    130 H130       -2.4783  -15.0143  -47.3031 H         1 UNK         0.3000 
    131 H131       -2.0167  -12.2866  -48.0810 H         1 UNK         0.0600 
    132 H132       -1.5037  -14.9670  -49.4758 H         1 UNK         0.0800 
    133 H133       -1.0817  -13.4567  -50.2037 H         1 UNK         0.0800 
    134 H134       -5.5424  -14.6709  -49.6665 H         1 UNK         0.0800 
    135 H135       -4.6992  -14.1601  -48.2322 H         1 UNK         0.0800 
    136 H136       -2.9981  -16.3412  -50.7708 H         1 UNK         0.1150 
    137 H137       -3.0490  -19.7675  -48.2239 H         1 UNK         0.1150 
    138 H138       -5.1986  -16.2417  -47.0882 H         1 UNK         0.1150 
    139 H139       -3.7286  -18.8375  -45.6028 H         1 UNK         0.0800 
    140 H140       -5.3319  -18.1509  -45.6843 H         1 UNK         0.0800 
    141 H141       -5.3523  -22.1199  -44.8017 H         1 UNK         0.0800 
    142 H142       -4.7316  -20.6139  -44.1974 H         1 UNK         0.0800 
    143 H143       -2.6865  -21.0624  -45.8313 H         1 UNK         0.0600 
    144 H144       -1.5299  -21.4356  -44.0222 H         1 UNK         0.3000 
    145 H145       -2.3639  -22.4898  -40.7365 H         1 UNK         0.0600 
    146 H146       -0.0523  -23.3909  -40.8780 H         1 UNK         0.0600 
    147 H147       -1.1776  -24.4353  -41.7316 H         1 UNK         0.0600 
    148 H148       -0.1202  -23.3600  -42.6374 H         1 UNK         0.0600 
    149 H149       -0.4026  -20.9068  -42.3261 H         1 UNK         0.3000 
    150 H150       -1.5476  -17.8287  -40.9719 H         1 UNK         0.0600 
    151 H151        0.0750  -18.5552  -39.2192 H         1 UNK         0.0600 
    152 H152        0.8572  -17.5189  -40.4042 H         1 UNK         0.0600 
    153 H153        1.1151  -19.2622  -40.4506 H         1 UNK         0.0600 
    154 H154        0.5915  -18.5134  -42.7505 H         1 UNK         0.3000 
    155 H155       -1.2044  -19.2923  -45.5896 H         1 UNK         0.0600 
    156 H156       -0.0493  -16.4795  -45.2835 H         1 UNK         0.0600 
    157 H157       -1.6105  -16.9128  -45.9735 H         1 UNK         0.0600 
    158 H158       -0.1377  -17.3785  -46.7988 H         1 UNK         0.0600 
    159 H159        1.5012  -18.5210  -45.3774 H         1 UNK         0.3000 
    160 H160        2.7906  -21.4847  -43.8717 H         1 UNK         0.0600 
    161 H161        2.8452  -20.4904  -46.7702 H         1 UNK         0.0600 
    162 H162        2.5501  -22.1356  -46.2208 H         1 UNK         0.0600 
    163 H163        4.1317  -21.4151  -45.9965 H         1 UNK         0.0600 
    164 H164        3.6269  -18.8760  -45.0094 H         1 UNK         0.3000 
    165 H165        4.3366  -17.4667  -41.8507 H         1 UNK         0.0600 
    166 H166        6.6555  -17.2517  -42.7031 H         1 UNK         0.0600 
    167 H167        6.3641  -18.8932  -42.1512 H         1 UNK         0.0600 
    168 H168        6.3743  -18.5403  -43.8750 H         1 UNK         0.0600 
    169 H169        4.9302  -16.6437  -44.5356 H         1 UNK         0.3000 
    170 H170        1.8166  -15.0135  -45.1472 H         1 UNK         0.0600 
    171 H171        3.1117  -13.4713  -43.6768 H         1 UNK         0.0600 
    172 H172        4.6001  -13.9117  -44.5066 H         1 UNK         0.0600 
    173 H173        3.3241  -13.0609  -45.3696 H         1 UNK         0.0600 
    174 H174        3.8673  -14.8410  -46.8667 H         1 UNK         0.3000 
    175 H175        4.7181  -16.8523  -48.4372 H         1 UNK         0.0600 
    176 H176        2.0153  -18.1495  -49.1063 H         1 UNK         0.0600 
    177 H177        3.4112  -18.1275  -50.1827 H         1 UNK         0.0600 
    178 H178        3.4911  -18.9972  -48.6606 H         1 UNK         0.0600 
    179 H179        2.3367  -15.1905  -48.7663 H         1 UNK         0.3000 
    180 H180        3.9417  -13.2250  -51.2199 H         1 UNK         0.0600 
    181 H181        1.3466  -14.8153  -51.6223 H         1 UNK         0.0600 
    182 H182        2.7172  -14.8138  -52.7221 H         1 UNK         0.0600 
    183 H183        1.7990  -13.3376  -52.4752 H         1 UNK         0.0600 
    184 H184        1.4140  -12.8550  -50.0736 H         1 UNK         0.3000 
    185 H185        2.1413  -11.7865  -46.8572 H         1 UNK         0.0600 
    186 H186        3.1123   -9.7979  -48.0159 H         1 UNK         0.0600 
    187 H187        1.8225   -9.8521  -49.2113 H         1 UNK         0.0600 
    188 H188        1.4541   -9.5029  -47.5214 H         1 UNK         0.0600 
    189 H189       -0.1047  -11.2210  -48.4571 H         1 UNK         0.3000 
    190 H190       -3.4982  -24.1810  -44.3676 H         1 UNK         0.3000 
    191 H191       -3.7655  -25.7522  -46.7124 H         1 UNK         0.0600 
    192 H192       -4.4432  -26.5359  -44.4728 H         1 UNK         0.0600 
    193 H193       -2.7680  -26.5210  -43.9233 H         1 UNK         0.0600 
    194 H194       -3.2807  -27.6528  -45.1703 H         1 UNK         0.0600 
    195 H195       -0.8904  -24.7428  -44.8908 H         1 UNK         0.3000 
    196 H196        1.0166  -26.3300  -46.3500 H         1 UNK         0.0600 
    197 H197        2.6631  -24.9311  -45.0996 H         1 UNK         0.0600 
    198 H198        1.4085  -25.5249  -44.0236 H         1 UNK         0.0600 
    199 H199        1.3781  -23.8505  -44.5773 H         1 UNK         0.0600 
    200 H200       -0.4876  -23.2078  -46.9579 H         1 UNK         0.3000 
    201 H201        1.6667  -22.1523  -48.5999 H         1 UNK         0.0600 
    202 H202        0.2268  -20.6599  -47.2441 H         1 UNK         0.0600 
    203 H203       -1.1888  -21.1395  -48.1681 H         1 UNK         0.0600 
    204 H204        0.1273  -20.2561  -48.9397 H         1 UNK         0.0600 
    205 H205       -1.6998  -23.2649  -49.2726 H         1 UNK         0.3000 
    206 H206       -0.9862  -24.3730  -51.8498 H         1 UNK         0.0600 
    207 H207       -1.0174  -21.9978  -52.5578 H         1 UNK         0.0600 
    208 H208       -2.4171  -22.8102  -53.2100 H         1 UNK         0.0600 
    209 H209       -2.5975  -21.7607  -51.8093 H         1 UNK         0.0600 
    210 H210       -2.0184  -25.6139  -49.6505 H         1 UNK         0.3000 
    211 H211       -3.6157  -26.9921  -48.9384 H         1 UNK         0.0600 
    212 H212       -4.5788  -26.9759  -51.8433 H         1 UNK         0.0600 
    213 H213       -4.8664  -28.2354  -50.6506 H         1 UNK         0.0600 
    214 H214       -3.2350  -27.9341  -51.2227 H         1 UNK         0.0600 
    215 H215       -4.1857  -24.2555  -48.5404 H         1 UNK         0.3000 
    216 H216       -5.6411  -22.9370  -47.6457 H         1 UNK         0.0600 
    217 H217       -7.7579  -23.6929  -46.7024 H         1 UNK         0.0600 
    218 H218       -6.5390  -24.9269  -46.4368 H         1 UNK         0.0600 
    219 H219       -7.7537  -25.1383  -47.6998 H         1 UNK         0.0600 
    220 H220       -5.5530  -23.4029  -50.7333 H         1 UNK         0.3000 
    221 H221       -7.9742  -21.9357  -51.5508 H         1 UNK         0.0600 
    222 H222       -5.4526  -22.6570  -53.1323 H         1 UNK         0.0600 
    223 H223       -6.9285  -23.6192  -53.0865 H         1 UNK         0.0600 
    224 H224       -6.9471  -22.0030  -53.7805 H         1 UNK         0.0600 
    225 H225       -8.0951  -19.7718  -51.2833 H         1 UNK         0.3000 
    226 H226       -5.8846  -18.1518  -50.4091 H         1 UNK         0.0600 
    227 H227       -8.2213  -17.7030  -49.6977 H         1 UNK         0.0600 
    228 H228       -7.5674  -16.3116  -50.5459 H         1 UNK         0.0600 
    229 H229       -8.6956  -17.3836  -51.3675 H         1 UNK         0.0600 
    230 H230       -4.8555  -16.5101  -51.4908 H         1 UNK         0.3000 
    231 H231       -3.7720  -15.3713  -53.0004 H         1 UNK         0.0600 
    232 H232       -4.8667  -14.6207  -55.0787 H         1 UNK         0.0600 
    233 H233       -5.9983  -14.5471  -53.7375 H         1 UNK         0.0600 
    234 H234       -6.1087  -15.8523  -54.9188 H         1 UNK         0.0600 
    235 H235       -4.6476  -18.5819  -53.9487 H         1 UNK         0.3000 
    236 H236       -3.2815  -18.9767  -56.3134 H         1 UNK         0.0600 
    237 H237       -3.3804  -21.4118  -55.6511 H         1 UNK         0.0600 
    238 H238       -3.8135  -20.9298  -54.0140 H         1 UNK         0.0600 
    239 H239       -4.8968  -20.5744  -55.3559 H         1 UNK         0.0600 
    240 H240       -1.8337  -18.6699  -53.1689 H         1 UNK         0.3000 
    241 H241        0.7573  -19.7828  -53.9332 H         1 UNK         0.0600 
    242 H242        0.8024  -15.8896  -54.8759 H         1 UNK         0.3800 
    243 H243       -0.7017  -16.7524  -54.6829 H         1 UNK         0.3800 
    244 H244        0.1074  -20.1839  -51.6546 H         1 UNK         0.0800 
    245 H245        1.4767  -19.1278  -51.6516 H         1 UNK         0.0800 
    246 H246       -2.6072  -18.9657  -51.5334 H         1 UNK         0.0800 
    247 H247       -1.8551  -19.8786  -50.2538 H         1 UNK         0.0800 
@<TRIPOS>BOND
     1    1    2 1    
     2    1  127 1    
     3    1  128 1    
     4    1  129 1    
     5    2    3 2    
     6    2    4 am   BACKBONE|DICT|INTERRES
     7    4    5 1    
     8    4  130 1    
     9    5    6 1    
    10    5   65 1    
    11    5  131 1    
    12    6    7 1    
    13    6  132 1    
    14    6  133 1    
    15    7    8 1    
    16    8    9 1    
    17    8  134 1    
    18    8  135 1    
    19    9   10 ar   
    20    9   14 ar   
    21   10   11 ar   
    22   10  136 1    
    23   11   12 ar   
    24   11  126 1    
    25   12   13 ar   
    26   12  137 1    
    27   13   14 ar   
    28   13   15 1    
    29   14  138 1    
    30   15   16 1    
    31   15  139 1    
    32   15  140 1    
    33   16   17 1    
    34   17   18 1    
    35   17  141 1    
    36   17  142 1    
    37   18   19 1    
    38   18   67 1    
    39   18  143 1    
    40   19   20 am   BACKBONE|DICT|INTERRES
    41   19  144 1    
    42   20   21 2    
    43   20   22 1    
    44   22   23 1    
    45   22   24 1    
    46   22  145 1    
    47   23  146 1    
    48   23  147 1    
    49   23  148 1    
    50   24   25 am   BACKBONE|DICT|INTERRES
    51   24  149 1    
    52   25   26 2    
    53   25   27 1    
    54   27   28 1    
    55   27   29 1    
    56   27  150 1    
    57   28  151 1    
    58   28  152 1    
    59   28  153 1    
    60   29   30 am   BACKBONE|DICT|INTERRES
    61   29  154 1    
    62   30   31 2    
    63   30   32 1    
    64   32   33 1    
    65   32   34 1    
    66   32  155 1    
    67   33  156 1    
    68   33  157 1    
    69   33  158 1    
    70   34   35 am   BACKBONE|DICT|INTERRES
    71   34  159 1    
    72   35   36 2    
    73   35   37 1    
    74   37   38 1    
    75   37   39 1    
    76   37  160 1    
    77   38  161 1    
    78   38  162 1    
    79   38  163 1    
    80   39   40 am   BACKBONE|DICT|INTERRES
    81   39  164 1    
    82   40   41 2    
    83   40   42 1    
    84   42   43 1    
    85   42   44 1    
    86   42  165 1    
    87   43  166 1    
    88   43  167 1    
    89   43  168 1    
    90   44   45 am   BACKBONE|DICT|INTERRES
    91   44  169 1    
    92   45   46 2    
    93   45   47 1    
    94   47   48 1    
    95   47   49 1    
    96   47  170 1    
    97   48  171 1    
    98   48  172 1    
    99   48  173 1    
   100   49   50 am   BACKBONE|DICT|INTERRES
   101   49  174 1    
   102   50   51 2    
   103   50   52 1    
   104   52   53 1    
   105   52   54 1    
   106   52  175 1    
   107   53  176 1    
   108   53  177 1    
   109   53  178 1    
   110   54   55 am   BACKBONE|DICT|INTERRES
   111   54  179 1    
   112   55   56 2    
   113   55   57 1    
   114   57   58 1    
   115   57   59 1    
   116   57  180 1    
   117   58  181 1    
   118   58  182 1    
   119   58  183 1    
   120   59   60 am   BACKBONE|DICT|INTERRES
   121   59  184 1    
   122   60   61 2    
   123   60   62 1    
   124   62   63 1    
   125   62   64 1    
   126   62  185 1    
   127   63  186 1    
   128   63  187 1    
   129   63  188 1    
   130   64   65 am   BACKBONE|DICT|INTERRES
   131   64  189 1    
   132   65   66 2    
   133   67   68 2    
   134   67   69 am   BACKBONE|DICT|INTERRES
   135   69   70 1    
   136   69  190 1    
   137   70   71 1    
   138   70   72 1    
   139   70  191 1    
   140   71  192 1    
   141   71  193 1    
   142   71  194 1    
   143   72   73 2    
   144   72   74 am   BACKBONE|DICT|INTERRES
   145   74   75 1    
   146   74  195 1    
   147   75   76 1    
   148   75   77 1    
   149   75  196 1    
   150   76  197 1    
   151   76  198 1    
   152   76  199 1    
   153   77   78 2    
   154   77   79 am   BACKBONE|DICT|INTERRES
   155   79   80 1    
   156   79  200 1    
   157   80   81 1    
   158   80   82 1    
   159   80  201 1    
   160   81  202 1    
   161   81  203 1    
   162   81  204 1    
   163   82   83 2    
   164   82   84 am   BACKBONE|DICT|INTERRES
   165   84   85 1    
   166   84  205 1    
   167   85   86 1    
   168   85   87 1    
   169   85  206 1    
   170   86  207 1    
   171   86  208 1    
   172   86  209 1    
   173   87   88 2    
   174   87   89 am   BACKBONE|DICT|INTERRES
   175   89   90 1    
   176   89  210 1    
   177   90   91 1    
   178   90   92 1    
   179   90  211 1    
   180   91  212 1    
   181   91  213 1    
   182   91  214 1    
   183   92   93 2    
   184   92   94 am   BACKBONE|DICT|INTERRES
   185   94   95 1    
   186   94  215 1    
   187   95   96 1    
   188   95   97 1    
   189   95  216 1    
   190   96  217 1    
   191   96  218 1    
   192   96  219 1    
   193   97   98 2    
   194   97   99 am   BACKBONE|DICT|INTERRES
   195   99  100 1    
   196   99  220 1    
   197  100  101 1    
   198  100  102 1    
   199  100  221 1    
   200  101  222 1    
   201  101  223 1    
   202  101  224 1    
   203  102  103 2    
   204  102  104 am   BACKBONE|DICT|INTERRES
   205  104  105 1    
   206  104  225 1    
   207  105  106 1    
   208  105  107 1    
   209  105  226 1    
   210  106  227 1    
   211  106  228 1    
   212  106  229 1    
   213  107  108 2    
   214  107  109 am   BACKBONE|DICT|INTERRES
   215  109  110 1    
   216  109  230 1    
   217  110  111 1    
   218  110  112 1    
   219  110  231 1    
   220  111  232 1    
   221  111  233 1    
   222  111  234 1    
   223  112  113 2    
   224  112  114 am   BACKBONE|DICT|INTERRES
   225  114  115 1    
   226  114  235 1    
   227  115  116 1    
   228  115  117 1    
   229  115  236 1    
   230  116  237 1    
   231  116  238 1    
   232  116  239 1    
   233  117  118 2    
   234  117  119 am   BACKBONE|DICT|INTERRES
   235  119  120 1    
   236  119  240 1    
   237  120  121 1    
   238  120  124 1    
   239  120  241 1    
   240  121  122 am   BACKBONE|DICT|INTERRES
   241  121  123 2    
   242  122  242 1    
   243  122  243 1    
   244  124  125 1    
   245  124  244 1    
   246  124  245 1    
   247  125  126 1    
   248  126  246 1    
   249  126  247 1    
@<TRIPOS>SUBSTRUCTURE
     1 UNK         1 GROUP             0       ****    0 ROOT    
