@<TRIPOS>MOLECULE
3R540
247   249    1
SMALL
USER_CHARGES


@<TRIPOS>ATOM
      1 CA          4.8032  -13.8902  -45.0689 C.3       0 UNK        -0.1800 
      2 C           3.5364  -13.1238  -45.4147 C.2       0 UNK         0.5000 
      3 O           2.8831  -12.5843  -44.5216 O.2       0 UNK        -0.5000 
      4 N           3.1909  -13.0649  -46.7073 N.am      1 UNK        -0.5000 
      5 CA          1.9794  -12.4194  -47.2331 C.3       1 UNK         0.1400 
      6 C6          1.7567  -12.7230  -48.7338 C.3       23 UNK        -0.0398 
      7 S7          1.5223  -14.5011  -49.0657 S.3       23 UNK        -0.2404 
      8 C8          3.0580  -14.9160  -49.9450 C.3       23 UNK        -0.0205 
      9 C9          2.9934  -16.3256  -50.5081 C.ar      23 UNK        -0.0193 
     10 C10         2.3086  -16.5621  -51.7040 C.ar      23 UNK        -0.1150 
     11 C11         2.2324  -17.8516  -52.2348 C.ar      23 UNK        -0.0193 
     12 C12         2.8695  -18.9021  -51.5727 C.ar      23 UNK        -0.1150 
     13 C13         3.5457  -18.6847  -50.3702 C.ar      23 UNK        -0.0193 
     14 C14         3.6080  -17.3914  -49.8413 C.ar      23 UNK        -0.1150 
     15 C15         4.2009  -19.8577  -49.6531 C.3       23 UNK        -0.0205 
     16 S16         3.2829  -20.3747  -48.1660 S.3       23 UNK        -0.2404 
     17 C17         1.5819  -20.5917  -48.7918 C.3       23 UNK        -0.0398 
     18 CA          0.8380  -21.8009  -48.1759 C.3       11 UNK         0.1400 
     19 N           0.6946  -21.7189  -46.7150 N.am      11 UNK        -0.5000 
     20 C           0.1960  -22.7012  -45.9471 C.2       10 UNK         0.5000 
     21 O          -0.1402  -23.8026  -46.3833 O.2       10 UNK        -0.5000 
     22 CA         -0.0199  -22.3932  -44.4527 C.3       10 UNK         0.1400 
     23 CB          1.2843  -22.5465  -43.6563 C.3       10 UNK        -0.1800 
     24 N          -0.5958  -21.0668  -44.2264 N.am      10 UNK        -0.5000 
     25 C          -1.8194  -20.6950  -44.6295 C.2       9 UNK         0.5000 
     26 O          -2.6109  -21.4520  -45.1867 O.2       9 UNK        -0.5000 
     27 CA         -2.2129  -19.2210  -44.4298 C.3       9 UNK         0.1400 
     28 CB         -2.7846  -18.9821  -43.0244 C.3       9 UNK        -0.1800 
     29 N          -1.0947  -18.3128  -44.6746 N.am      9 UNK        -0.5000 
     30 C          -0.5105  -18.1367  -45.8686 C.2       8 UNK         0.5000 
     31 O          -0.8877  -18.6824  -46.9069 O.2       8 UNK        -0.5000 
     32 CA          0.7401  -17.2412  -45.8814 C.3       8 UNK         0.1400 
     33 CB          0.3415  -15.7599  -45.9275 C.3       8 UNK        -0.1800 
     34 N           1.5978  -17.4794  -44.7175 N.am      8 UNK        -0.5000 
     35 C           2.2579  -18.6271  -44.4987 C.2       7 UNK         0.5000 
     36 O           2.2070  -19.5916  -45.2574 O.2       7 UNK        -0.5000 
     37 CA          3.0562  -18.7487  -43.1866 C.3       7 UNK         0.1400 
     38 CB          4.4475  -18.1167  -43.3389 C.3       7 UNK        -0.1800 
     39 N           2.3719  -18.1415  -42.0465 N.am      7 UNK        -0.5000 
     40 C           1.1646  -18.5060  -41.5920 C.2       6 UNK         0.5000 
     41 O           0.5405  -19.4730  -42.0270 O.2       6 UNK        -0.5000 
     42 CA          0.5234  -17.6157  -40.5075 C.3       6 UNK         0.1400 
     43 CB          0.6777  -18.2624  -39.1232 C.3       6 UNK        -0.1800 
     44 N           1.0556  -16.2480  -40.4610 N.am      6 UNK        -0.5000 
     45 C           1.0002  -15.3615  -41.4647 C.2       5 UNK         0.5000 
     46 O           0.4986  -15.6068  -42.5645 O.2       5 UNK        -0.5000 
     47 CA          1.6999  -14.0155  -41.2113 C.3       5 UNK         0.1400 
     48 CB          3.2223  -14.1720  -41.3572 C.3       5 UNK        -0.1800 
     49 N           1.2546  -12.9794  -42.1377 N.am      5 UNK        -0.5000 
     50 C           0.0791  -12.3404  -42.0790 C.2       4 UNK         0.5000 
     51 O          -0.7783  -12.5618  -41.2210 O.2       4 UNK        -0.5000 
     52 CA         -0.1405  -11.2450  -43.1460 C.3       4 UNK         0.1400 
     53 CB         -1.3368  -10.3196  -42.8421 C.3       4 UNK        -0.1800 
     54 N           1.0820  -10.4708  -43.3886 N.am      4 UNK        -0.5000 
     55 C           1.7729   -9.7313  -42.5063 C.2       3 UNK         0.5000 
     56 O           1.3759   -9.4595  -41.3726 O.2       3 UNK        -0.5000 
     57 CA          3.1675   -9.2443  -42.9462 C.3       3 UNK         0.1400 
     58 CB          4.2605  -10.0450  -42.2191 C.3       3 UNK        -0.1800 
     59 N           3.3814   -9.3813  -44.3872 N.am      3 UNK        -0.5000 
     60 C           3.0842   -8.4459  -45.2982 C.2       2 UNK         0.5000 
     61 O           2.6372   -7.3330  -45.0189 O.2       2 UNK        -0.5000 
     62 CA          3.3147   -8.8253  -46.7742 C.3       2 UNK         0.1400 
     63 CB          4.7219   -8.4047  -47.2245 C.3       2 UNK        -0.1800 
     64 N           3.1373  -10.2571  -47.0329 N.am      2 UNK        -0.5000 
     65 C           1.9592  -10.8965  -46.9904 C.2       1 UNK         0.5000 
     66 O           0.8903  -10.3397  -46.7404 O.2       1 UNK        -0.5000 
     67 C          -0.5283  -21.9836  -48.8704 C.2       11 UNK         0.5000 
     68 O          -0.6527  -22.8296  -49.7559 O.2       11 UNK        -0.5000 
     69 N          -1.5373  -21.2156  -48.4325 N.am      12 UNK        -0.5000 
     70 CA         -2.9183  -21.3340  -48.8993 C.3       12 UNK         0.1400 
     71 CB         -3.7559  -20.1723  -48.3466 C.3       12 UNK        -0.1800 
     72 C          -3.5407  -22.6971  -48.5455 C.2       12 UNK         0.5000 
     73 O          -4.1191  -23.3401  -49.4184 O.2       12 UNK        -0.5000 
     74 N          -3.3742  -23.1461  -47.2936 N.am      13 UNK        -0.5000 
     75 CA         -3.8528  -24.4408  -46.8032 C.3       13 UNK         0.1400 
     76 CB         -3.5654  -24.5738  -45.3010 C.3       13 UNK        -0.1800 
     77 C          -3.2710  -25.6372  -47.5781 C.2       13 UNK         0.5000 
     78 O          -4.0149  -26.5613  -47.9123 O.2       13 UNK        -0.5000 
     79 N          -1.9696  -25.5697  -47.8943 N.am      14 UNK        -0.5000 
     80 CA         -1.2570  -26.5465  -48.7197 C.3       14 UNK         0.1400 
     81 CB          0.2447  -26.2245  -48.7089 C.3       14 UNK        -0.1800 
     82 C          -1.7860  -26.6287  -50.1652 C.2       14 UNK         0.5000 
     83 O          -1.7697  -27.7107  -50.7541 O.2       14 UNK        -0.5000 
     84 N          -2.2941  -25.5100  -50.6988 N.am      15 UNK        -0.5000 
     85 CA         -2.9517  -25.4128  -52.0017 C.3       15 UNK         0.1400 
     86 CB         -2.7869  -23.9843  -52.5406 C.3       15 UNK        -0.1800 
     87 C          -4.4258  -25.8614  -51.9240 C.2       15 UNK         0.5000 
     88 O          -5.3338  -25.0888  -52.2408 O.2       15 UNK        -0.5000 
     89 N          -4.6208  -27.1171  -51.4955 N.am      16 UNK        -0.5000 
     90 CA         -5.8836  -27.8562  -51.4102 C.3       16 UNK         0.1400 
     91 CB         -6.3578  -28.2482  -52.8246 C.3       16 UNK        -0.1800 
     92 C          -6.9692  -27.1344  -50.5847 C.2       16 UNK         0.5000 
     93 O          -8.1148  -27.0346  -51.0271 O.2       16 UNK        -0.5000 
     94 N          -6.5796  -26.6457  -49.3974 N.am      17 UNK        -0.5000 
     95 CA         -7.4067  -25.8894  -48.4516 C.3       17 UNK         0.1400 
     96 CB         -8.5455  -26.7634  -47.8833 C.3       17 UNK        -0.1800 
     97 C          -7.8945  -24.5490  -49.0407 C.2       17 UNK         0.5000 
     98 O          -9.0833  -24.2330  -48.9639 O.2       17 UNK        -0.5000 
     99 N          -6.9487  -23.7882  -49.6108 N.am      18 UNK        -0.5000 
    100 CA        -7.1110  -22.4703  -50.2279 C.3       18 UNK         0.1400 
    101 CB        -7.5152  -21.4188  -49.1732 C.3       18 UNK        -0.1800 
    102 C         -8.0450  -22.5027  -51.4501 C.2       18 UNK         0.5000 
    103 O         -8.9822  -21.7059  -51.5398 O.2       18 UNK        -0.5000 
    104 N         -7.7617  -23.4128  -52.3915 N.am      19 UNK        -0.5000 
    105 CA        -8.5018  -23.6012  -53.6431 C.3       19 UNK         0.1400 
    106 CB        -8.2292  -25.0211  -54.1688 C.3       19 UNK        -0.1800 
    107 C         -8.1858  -22.5090  -54.6912 C.2       19 UNK         0.5000 
    108 O         -7.7967  -22.8254  -55.8170 O.2       19 UNK        -0.5000 
    109 N         -8.3477  -21.2392  -54.2891 N.am      20 UNK        -0.5000 
    110 CA        -8.0895  -20.0094  -55.0489 C.3       20 UNK         0.1400 
    111 CB        -9.1178  -19.8547  -56.1888 C.3       20 UNK        -0.1800 
    112 C         -6.6278  -19.8889  -55.5356 C.2       20 UNK         0.5000 
    113 O         -6.3780  -19.3795  -56.6302 O.2       20 UNK        -0.5000 
    114 N         -5.6868  -20.3717  -54.7164 N.am      21 UNK        -0.5000 
    115 CA        -4.2630  -20.4578  -55.0160 C.3       21 UNK         0.1400 
    116 CB        -4.0059  -21.6728  -55.9306 C.3       21 UNK        -0.1800 
    117 C         -3.4649  -20.5716  -53.7085 C.2       21 UNK         0.5000 
    118 O         -4.0506  -20.7524  -52.6371 O.2       21 UNK        -0.5000 
    119 N         -2.1390  -20.4818  -53.8388 N.am      22 UNK        -0.5000 
    120 CA        -1.1488  -20.6263  -52.7599 C.3       22 UNK         0.1400 
    121 C          0.0808  -21.4925  -53.1623 C.2       22 UNK         0.5000 
    122 N          0.0978  -22.1336  -54.3258 N.am      22 UNK        -0.7600 
    123 O          1.0327  -21.6118  -52.3992 O.2       22 UNK        -0.5000 
    124 C124       -0.7595  -19.2624  -52.1225 C.3       23 UNK        -0.0398 
    125 S125       -0.3351  -17.9437  -53.3219 S.3       23 UNK        -0.2404 
    126 C126        1.4692  -18.1135  -53.5244 C.3       23 UNK        -0.0205 
    127 H127        5.3991  -14.1071  -45.9556 H         1 UNK         0.0600 
    128 H128        4.5474  -14.8344  -44.5898 H         1 UNK         0.0600 
    129 H129        5.4171  -13.3105  -44.3796 H         1 UNK         0.0600 
    130 H130        3.7657  -13.5348  -47.3906 H         1 UNK         0.3000 
    131 H131        1.1310  -12.8286  -46.6806 H         1 UNK         0.0600 
    132 H132        0.8609  -12.2134  -49.0942 H         1 UNK         0.0800 
    133 H133        2.5831  -12.3371  -49.3332 H         1 UNK         0.0800 
    134 H134        3.9083  -14.8126  -49.2698 H         1 UNK         0.0800 
    135 H135        3.2181  -14.2085  -50.7601 H         1 UNK         0.0800 
    136 H136        1.8204  -15.7438  -52.2148 H         1 UNK         0.1150 
    137 H137        2.8277  -19.8986  -51.9866 H         1 UNK         0.1150 
    138 H138        4.1279  -17.2192  -48.9093 H         1 UNK         0.1150 
    139 H139        4.2967  -20.7136  -50.3231 H         1 UNK         0.0800 
    140 H140        5.2161  -19.5828  -49.3639 H         1 UNK         0.0800 
    141 H141        1.6303  -20.7178  -49.8738 H         1 UNK         0.0800 
    142 H142        1.0351  -19.6641  -48.6145 H         1 UNK         0.0800 
    143 H143        1.4264  -22.6958  -48.3895 H         1 UNK         0.0600 
    144 H144        1.0151  -20.8626  -46.2725 H         1 UNK         0.3000 
    145 H145       -0.7302  -23.1260  -44.0650 H         1 UNK         0.0600 
    146 H146        1.1251  -22.3496  -42.5960 H         1 UNK         0.0600 
    147 H147        1.6743  -23.5611  -43.7449 H         1 UNK         0.0600 
    148 H148        2.0603  -21.8689  -44.0096 H         1 UNK         0.0600 
    149 H149       -0.0265  -20.3988  -43.7174 H         1 UNK         0.3000 
    150 H150       -2.9953  -18.9868  -45.1546 H         1 UNK         0.0600 
    151 H151       -3.6606  -19.6087  -42.8522 H         1 UNK         0.0600 
    152 H152       -3.0965  -17.9455  -42.8958 H         1 UNK         0.0600 
    153 H153       -2.0609  -19.2144  -42.2438 H         1 UNK         0.0600 
    154 H154       -0.7005  -17.8422  -43.8728 H         1 UNK         0.3000 
    155 H155        1.3139  -17.4717  -46.7821 H         1 UNK         0.0600 
    156 H156       -0.2691  -15.4729  -45.0714 H         1 UNK         0.0600 
    157 H157       -0.2372  -15.5415  -46.8255 H         1 UNK         0.0600 
    158 H158        1.2227  -15.1205  -45.9395 H         1 UNK         0.0600 
    159 H159        1.6043  -16.7584  -44.0062 H         1 UNK         0.3000 
    160 H160        3.1836  -19.8117  -42.9720 H         1 UNK         0.0600 
    161 H161        5.0550  -18.2811  -42.4488 H         1 UNK         0.0600 
    162 H162        4.3852  -17.0416  -43.5092 H         1 UNK         0.0600 
    163 H163        4.9838  -18.5530  -44.1828 H         1 UNK         0.0600 
    164 H164        2.8169  -17.3420  -41.6225 H         1 UNK         0.3000 
    165 H165       -0.5420  -17.5475  -40.7369 H         1 UNK         0.0600 
    166 H166        0.1487  -17.6923  -38.3593 H         1 UNK         0.0600 
    167 H167        0.2654  -19.2725  -39.1155 H         1 UNK         0.0600 
    168 H168        1.7250  -18.3331  -38.8266 H         1 UNK         0.0600 
    169 H169        1.5003  -15.9752  -39.5961 H         1 UNK         0.3000 
    170 H170        1.4742  -13.6912  -40.1933 H         1 UNK         0.0600 
    171 H171        3.6176  -14.8959  -40.6438 H         1 UNK         0.0600 
    172 H172        3.4964  -14.5115  -42.3564 H         1 UNK         0.0600 
    173 H173        3.7346  -13.2275  -41.1737 H         1 UNK         0.0600 
    174 H174        1.8745  -12.7743  -42.9170 H         1 UNK         0.3000 
    175 H175       -0.3575  -11.7689  -44.0781 H         1 UNK         0.0600 
    176 H176       -1.2233   -9.8059  -41.8873 H         1 UNK         0.0600 
    177 H177       -1.4559   -9.5637  -43.6184 H         1 UNK         0.0600 
    178 H178       -2.2665  -10.8880  -42.7976 H         1 UNK         0.0600 
    179 H179        1.5256  -10.6468  -44.2793 H         1 UNK         0.3000 
    180 H180        3.2607   -8.1958  -42.6557 H         1 UNK         0.0600 
    181 H181        4.2181  -11.1050  -42.4726 H         1 UNK         0.0600 
    182 H182        4.1543   -9.9619  -41.1367 H         1 UNK         0.0600 
    183 H183        5.2543   -9.6783  -42.4762 H         1 UNK         0.0600 
    184 H184        3.7223  -10.2773  -44.7062 H         1 UNK         0.3000 
    185 H185        2.5858   -8.2765  -47.3745 H         1 UNK         0.0600 
    186 H186        4.8790   -7.3366  -47.0677 H         1 UNK         0.0600 
    187 H187        5.4979   -8.9352  -46.6712 H         1 UNK         0.0600 
    188 H188        4.8717   -8.6010  -48.2864 H         1 UNK         0.0600 
    189 H189        3.9700  -10.7910  -47.2357 H         1 UNK         0.3000 
    190 H190       -1.3519  -20.5166  -47.7202 H         1 UNK         0.3000 
    191 H191       -2.9113  -21.2489  -49.9873 H         1 UNK         0.0600 
    192 H192       -3.8393  -20.2107  -47.2606 H         1 UNK         0.0600 
    193 H193       -4.7656  -20.1939  -48.7565 H         1 UNK         0.0600 
    194 H194       -3.3189  -19.2101  -48.6143 H         1 UNK         0.0600 
    195 H195       -2.9244  -22.5419  -46.6083 H         1 UNK         0.3000 
    196 H196       -4.9343  -24.4510  -46.9378 H         1 UNK         0.0600 
    197 H197       -3.9351  -25.5245  -44.9148 H         1 UNK         0.0600 
    198 H198       -4.0543  -23.7814  -44.7342 H         1 UNK         0.0600 
    199 H199       -2.4971  -24.5267  -45.0903 H         1 UNK         0.0600 
    200 H200       -1.4223  -24.7902  -47.5403 H         1 UNK         0.3000 
    201 H201       -1.3973  -27.5286  -48.2637 H         1 UNK         0.0600 
    202 H202        0.6450  -26.2456  -47.6951 H         1 UNK         0.0600 
    203 H203        0.4477  -25.2385  -49.1275 H         1 UNK         0.0600 
    204 H204        0.8056  -26.9530  -49.2956 H         1 UNK         0.0600 
    205 H205       -2.3091  -24.6702  -50.1332 H         1 UNK         0.3000 
    206 H206       -2.4499  -26.0820  -52.7035 H         1 UNK         0.0600 
    207 H207       -1.7330  -23.7236  -52.6217 H         1 UNK         0.0600 
    208 H208       -3.2266  -23.8840  -53.5331 H         1 UNK         0.0600 
    209 H209       -3.2649  -23.2504  -51.8927 H         1 UNK         0.0600 
    210 H210       -3.7913  -27.6357  -51.2272 H         1 UNK         0.3000 
    211 H211       -5.6631  -28.7792  -50.8721 H         1 UNK         0.0600 
    212 H212       -6.5859  -27.3720  -53.4305 H         1 UNK         0.0600 
    213 H213       -7.2572  -28.8637  -52.7831 H         1 UNK         0.0600 
    214 H214       -5.5960  -28.8256  -53.3482 H         1 UNK         0.0600 
    215 H215       -5.6096  -26.7638  -49.1190 H         1 UNK         0.3000 
    216 H216       -6.7582  -25.6366  -47.6140 H         1 UNK         0.0600 
    217 H217       -9.0736  -26.2412  -47.0847 H         1 UNK         0.0600 
    218 H218       -8.1574  -27.6907  -47.4620 H         1 UNK         0.0600 
    219 H219       -9.2825  -27.0227  -48.6437 H         1 UNK         0.0600 
    220 H220       -5.9949  -24.1336  -49.6362 H         1 UNK         0.3000 
    221 H221       -6.1313  -22.1845  -50.6128 H         1 UNK         0.0600 
    222 H222       -8.5235  -21.5879  -48.7944 H         1 UNK         0.0600 
    223 H223       -6.8335  -21.4320  -48.3229 H         1 UNK         0.0600 
    224 H224       -7.4896  -20.4142  -49.5966 H         1 UNK         0.0600 
    225 H225       -6.9510  -24.0142  -52.2595 H         1 UNK         0.3000 
    226 H226       -9.5697  -23.5330  -53.4259 H         1 UNK         0.0600 
    227 H227       -8.8009  -25.2229  -55.0753 H         1 UNK         0.0600 
    228 H228       -7.1739  -25.1645  -54.4039 H         1 UNK         0.0600 
    229 H229       -8.5154  -25.7728  -53.4337 H         1 UNK         0.0600 
    230 H230       -8.6659  -21.1091  -53.3322 H         1 UNK         0.3000 
    231 H231       -8.2437  -19.1836  -54.3531 H         1 UNK         0.0600 
    232 H232      -10.1380  -19.9264  -55.8117 H         1 UNK         0.0600 
    233 H233       -8.9892  -20.6189  -56.9560 H         1 UNK         0.0600 
    234 H234       -9.0213  -18.8833  -56.6751 H         1 UNK         0.0600 
    235 H235       -5.9436  -20.7280  -53.8049 H         1 UNK         0.3000 
    236 H236       -3.9467  -19.5431  -55.5218 H         1 UNK         0.0600 
    237 H237       -4.5503  -21.5841  -56.8709 H         1 UNK         0.0600 
    238 H238       -2.9499  -21.7699  -56.1829 H         1 UNK         0.0600 
    239 H239       -4.3194  -22.6028  -55.4544 H         1 UNK         0.0600 
    240 H240       -1.7497  -20.2809  -54.7484 H         1 UNK         0.3000 
    241 H241       -1.6090  -21.2183  -51.9679 H         1 UNK         0.0600 
    242 H242        0.9029  -22.6944  -54.5562 H         1 UNK         0.3800 
    243 H243       -0.6872  -22.1150  -54.9542 H         1 UNK         0.3800 
    244 H244       -1.6129  -18.8977  -51.5495 H         1 UNK         0.0800 
    245 H245        0.0384  -19.3774  -51.3886 H         1 UNK         0.0800 
    246 H246        1.6977  -19.1048  -53.9178 H         1 UNK         0.0800 
    247 H247        1.8033  -17.4043  -54.2829 H         1 UNK         0.0800 
@<TRIPOS>BOND
     1    1    2 1    
     2    1  127 1    
     3    1  128 1    
     4    1  129 1    
     5    2    3 2    
     6    2    4 am   BACKBONE|DICT|INTERRES
     7    4    5 1    
     8    4  130 1    
     9    5    6 1    
    10    5   65 1    
    11    5  131 1    
    12    6    7 1    
    13    6  132 1    
    14    6  133 1    
    15    7    8 1    
    16    8    9 1    
    17    8  134 1    
    18    8  135 1    
    19    9   10 ar   
    20    9   14 ar   
    21   10   11 ar   
    22   10  136 1    
    23   11   12 ar   
    24   11  126 1    
    25   12   13 ar   
    26   12  137 1    
    27   13   14 ar   
    28   13   15 1    
    29   14  138 1    
    30   15   16 1    
    31   15  139 1    
    32   15  140 1    
    33   16   17 1    
    34   17   18 1    
    35   17  141 1    
    36   17  142 1    
    37   18   19 1    
    38   18   67 1    
    39   18  143 1    
    40   19   20 am   BACKBONE|DICT|INTERRES
    41   19  144 1    
    42   20   21 2    
    43   20   22 1    
    44   22   23 1    
    45   22   24 1    
    46   22  145 1    
    47   23  146 1    
    48   23  147 1    
    49   23  148 1    
    50   24   25 am   BACKBONE|DICT|INTERRES
    51   24  149 1    
    52   25   26 2    
    53   25   27 1    
    54   27   28 1    
    55   27   29 1    
    56   27  150 1    
    57   28  151 1    
    58   28  152 1    
    59   28  153 1    
    60   29   30 am   BACKBONE|DICT|INTERRES
    61   29  154 1    
    62   30   31 2    
    63   30   32 1    
    64   32   33 1    
    65   32   34 1    
    66   32  155 1    
    67   33  156 1    
    68   33  157 1    
    69   33  158 1    
    70   34   35 am   BACKBONE|DICT|INTERRES
    71   34  159 1    
    72   35   36 2    
    73   35   37 1    
    74   37   38 1    
    75   37   39 1    
    76   37  160 1    
    77   38  161 1    
    78   38  162 1    
    79   38  163 1    
    80   39   40 am   BACKBONE|DICT|INTERRES
    81   39  164 1    
    82   40   41 2    
    83   40   42 1    
    84   42   43 1    
    85   42   44 1    
    86   42  165 1    
    87   43  166 1    
    88   43  167 1    
    89   43  168 1    
    90   44   45 am   BACKBONE|DICT|INTERRES
    91   44  169 1    
    92   45   46 2    
    93   45   47 1    
    94   47   48 1    
    95   47   49 1    
    96   47  170 1    
    97   48  171 1    
    98   48  172 1    
    99   48  173 1    
   100   49   50 am   BACKBONE|DICT|INTERRES
   101   49  174 1    
   102   50   51 2    
   103   50   52 1    
   104   52   53 1    
   105   52   54 1    
   106   52  175 1    
   107   53  176 1    
   108   53  177 1    
   109   53  178 1    
   110   54   55 am   BACKBONE|DICT|INTERRES
   111   54  179 1    
   112   55   56 2    
   113   55   57 1    
   114   57   58 1    
   115   57   59 1    
   116   57  180 1    
   117   58  181 1    
   118   58  182 1    
   119   58  183 1    
   120   59   60 am   BACKBONE|DICT|INTERRES
   121   59  184 1    
   122   60   61 2    
   123   60   62 1    
   124   62   63 1    
   125   62   64 1    
   126   62  185 1    
   127   63  186 1    
   128   63  187 1    
   129   63  188 1    
   130   64   65 am   BACKBONE|DICT|INTERRES
   131   64  189 1    
   132   65   66 2    
   133   67   68 2    
   134   67   69 am   BACKBONE|DICT|INTERRES
   135   69   70 1    
   136   69  190 1    
   137   70   71 1    
   138   70   72 1    
   139   70  191 1    
   140   71  192 1    
   141   71  193 1    
   142   71  194 1    
   143   72   73 2    
   144   72   74 am   BACKBONE|DICT|INTERRES
   145   74   75 1    
   146   74  195 1    
   147   75   76 1    
   148   75   77 1    
   149   75  196 1    
   150   76  197 1    
   151   76  198 1    
   152   76  199 1    
   153   77   78 2    
   154   77   79 am   BACKBONE|DICT|INTERRES
   155   79   80 1    
   156   79  200 1    
   157   80   81 1    
   158   80   82 1    
   159   80  201 1    
   160   81  202 1    
   161   81  203 1    
   162   81  204 1    
   163   82   83 2    
   164   82   84 am   BACKBONE|DICT|INTERRES
   165   84   85 1    
   166   84  205 1    
   167   85   86 1    
   168   85   87 1    
   169   85  206 1    
   170   86  207 1    
   171   86  208 1    
   172   86  209 1    
   173   87   88 2    
   174   87   89 am   BACKBONE|DICT|INTERRES
   175   89   90 1    
   176   89  210 1    
   177   90   91 1    
   178   90   92 1    
   179   90  211 1    
   180   91  212 1    
   181   91  213 1    
   182   91  214 1    
   183   92   93 2    
   184   92   94 am   BACKBONE|DICT|INTERRES
   185   94   95 1    
   186   94  215 1    
   187   95   96 1    
   188   95   97 1    
   189   95  216 1    
   190   96  217 1    
   191   96  218 1    
   192   96  219 1    
   193   97   98 2    
   194   97   99 am   BACKBONE|DICT|INTERRES
   195   99  100 1    
   196   99  220 1    
   197  100  101 1    
   198  100  102 1    
   199  100  221 1    
   200  101  222 1    
   201  101  223 1    
   202  101  224 1    
   203  102  103 2    
   204  102  104 am   BACKBONE|DICT|INTERRES
   205  104  105 1    
   206  104  225 1    
   207  105  106 1    
   208  105  107 1    
   209  105  226 1    
   210  106  227 1    
   211  106  228 1    
   212  106  229 1    
   213  107  108 2    
   214  107  109 am   BACKBONE|DICT|INTERRES
   215  109  110 1    
   216  109  230 1    
   217  110  111 1    
   218  110  112 1    
   219  110  231 1    
   220  111  232 1    
   221  111  233 1    
   222  111  234 1    
   223  112  113 2    
   224  112  114 am   BACKBONE|DICT|INTERRES
   225  114  115 1    
   226  114  235 1    
   227  115  116 1    
   228  115  117 1    
   229  115  236 1    
   230  116  237 1    
   231  116  238 1    
   232  116  239 1    
   233  117  118 2    
   234  117  119 am   BACKBONE|DICT|INTERRES
   235  119  120 1    
   236  119  240 1    
   237  120  121 1    
   238  120  124 1    
   239  120  241 1    
   240  121  122 am   BACKBONE|DICT|INTERRES
   241  121  123 2    
   242  122  242 1    
   243  122  243 1    
   244  124  125 1    
   245  124  244 1    
   246  124  245 1    
   247  125  126 1    
   248  126  246 1    
   249  126  247 1    
@<TRIPOS>SUBSTRUCTURE
     1 UNK         1 GROUP             0       ****    0 ROOT    
