@<TRIPOS>MOLECULE
3R540
247   249    1
SMALL
USER_CHARGES


@<TRIPOS>ATOM
      1 CA         -0.2271  -11.5659  -42.7182 C.3       0 UNK        -0.1800 
      2 C          -0.1303  -11.4035  -44.2281 C.2       0 UNK         0.5000 
      3 O           0.2584  -12.3457  -44.9116 O.2       0 UNK        -0.5000 
      4 N          -0.4477  -10.2055  -44.7385 N.am      1 UNK        -0.5000 
      5 CA         -0.5470   -9.8077  -46.1558 C.3       1 UNK         0.1400 
      6 C6         -1.8426  -10.3421  -46.8474 C.3       23 UNK        -0.0398 
      7 S7         -1.7276  -11.8831  -47.8335 S.3       23 UNK        -0.2404 
      8 C8         -2.6223  -13.0789  -46.7981 C.3       23 UNK        -0.0205 
      9 C9         -2.8297  -14.4049  -47.5205 C.ar      23 UNK        -0.0193 
     10 C10        -4.1207  -14.9004  -47.7263 C.ar      23 UNK        -0.1150 
     11 C11        -4.3184  -16.1220  -48.3764 C.ar      23 UNK        -0.0193 
     12 C12        -3.2129  -16.8481  -48.8253 C.ar      23 UNK        -0.1150 
     13 C13        -1.9149  -16.3719  -48.6200 C.ar      23 UNK        -0.0193 
     14 C14        -1.7333  -15.1488  -47.9698 C.ar      23 UNK        -0.1150 
     15 C15        -0.7149  -17.1603  -49.1300 C.3       23 UNK        -0.0205 
     16 S16        -0.0940  -18.3824  -47.9252 S.3       23 UNK        -0.2404 
     17 C17        -1.5434  -19.4720  -47.6955 C.3       23 UNK        -0.0398 
     18 CA         -1.1996  -20.9307  -47.3043 C.3       11 UNK         0.1400 
     19 N          -0.2646  -21.0257  -46.1785 N.am      11 UNK        -0.5000 
     20 C           0.3320  -22.1566  -45.7739 C.2       10 UNK         0.5000 
     21 O           0.1872  -23.2425  -46.3326 O.2       10 UNK        -0.5000 
     22 CA          1.1975  -22.0680  -44.5046 C.3       10 UNK         0.1400 
     23 CB          2.6134  -21.5938  -44.8522 C.3       10 UNK        -0.1800 
     24 N           0.6138  -21.1760  -43.5025 N.am      10 UNK        -0.5000 
     25 C          -0.5112  -21.4464  -42.8223 C.2       9 UNK         0.5000 
     26 O          -1.1266  -22.5070  -42.9207 O.2       9 UNK        -0.5000 
     27 CA         -1.0832  -20.3202  -41.9395 C.3       9 UNK         0.1400 
     28 CB         -0.5589  -20.4314  -40.5022 C.3       9 UNK        -0.1800 
     29 N          -0.8026  -18.9887  -42.4877 N.am      9 UNK        -0.5000 
     30 C          -1.3276  -18.5549  -43.6444 C.2       8 UNK         0.5000 
     31 O          -2.1344  -19.2182  -44.2979 O.2       8 UNK        -0.5000 
     32 CA         -0.8303  -17.2244  -44.2308 C.3       8 UNK         0.1400 
     33 CB         -1.9936  -16.3076  -44.6542 C.3       8 UNK        -0.1800 
     34 N           0.1755  -16.5360  -43.4162 N.am      8 UNK        -0.5000 
     35 C          -0.0114  -15.7319  -42.3597 C.2       7 UNK         0.5000 
     36 O          -1.1123  -15.4512  -41.8842 O.2       7 UNK        -0.5000 
     37 CA          1.2795  -15.1693  -41.7207 C.3       7 UNK         0.1400 
     38 CB          1.0402  -14.5492  -40.3285 C.3       7 UNK        -0.1800 
     39 N           2.3731  -16.1509  -41.6618 N.am      7 UNK        -0.5000 
     40 C           2.3214  -17.3694  -41.1017 C.2       6 UNK         0.5000 
     41 O           1.3144  -17.8228  -40.5576 O.2       6 UNK        -0.5000 
     42 CA          3.5978  -18.2330  -41.1923 C.3       6 UNK         0.1400 
     43 CB          3.3160  -19.7329  -40.9692 C.3       6 UNK        -0.1800 
     44 N           4.3768  -18.0643  -42.4253 N.am      6 UNK        -0.5000 
     45 C           3.9525  -18.1969  -43.6900 C.2       5 UNK         0.5000 
     46 O           2.7667  -18.2924  -44.0270 O.2       5 UNK        -0.5000 
     47 CA          5.0663  -18.2643  -44.7453 C.3       5 UNK         0.1400 
     48 CB          5.7543  -19.6459  -44.7262 C.3       5 UNK        -0.1800 
     49 N           4.5123  -17.9744  -46.0625 N.am      5 UNK        -0.5000 
     50 C           5.2189  -17.7649  -47.1809 C.2       4 UNK         0.5000 
     51 O           6.4450  -17.8602  -47.2520 O.2       4 UNK        -0.5000 
     52 CA          4.4242  -17.3322  -48.4283 C.3       4 UNK         0.1400 
     53 CB          3.8304  -18.5575  -49.1416 C.3       4 UNK        -0.1800 
     54 N           3.3484  -16.3830  -48.1339 N.am      4 UNK        -0.5000 
     55 C           3.5046  -15.1861  -47.5494 C.2       3 UNK         0.5000 
     56 O           4.5935  -14.7298  -47.1912 O.2       3 UNK        -0.5000 
     57 CA          2.1984  -14.4177  -47.2686 C.3       3 UNK         0.1400 
     58 CB          1.4541  -15.1171  -46.1193 C.3       3 UNK        -0.1800 
     59 N           2.3824  -13.0111  -46.9037 N.am      3 UNK        -0.5000 
     60 C           3.0139  -12.0662  -47.6170 C.2       2 UNK         0.5000 
     61 O           3.4581  -12.2415  -48.7537 O.2       2 UNK        -0.5000 
     62 CA          3.1531  -10.6924  -46.9230 C.3       2 UNK         0.1400 
     63 CB          3.7885   -9.6038  -47.8149 C.3       2 UNK        -0.1800 
     64 N           1.8811  -10.2514  -46.3405 N.am      2 UNK        -0.5000 
     65 C           0.7497   -9.9539  -46.9975 C.2       1 UNK         0.5000 
     66 O           0.7012   -9.7735  -48.2153 O.2       1 UNK        -0.5000 
     67 C          -2.4944  -21.7182  -47.0116 C.2       11 UNK         0.5000 
     68 O          -2.9893  -22.4319  -47.8848 O.2       11 UNK        -0.5000 
     69 N          -2.9954  -21.5977  -45.7730 N.am      12 UNK        -0.5000 
     70 CA         -4.1451  -22.3396  -45.2587 C.3       12 UNK         0.1400 
     71 CB         -4.5594  -21.7691  -43.8945 C.3       12 UNK        -0.1800 
     72 C          -3.8767  -23.8527  -45.1676 C.2       12 UNK         0.5000 
     73 O          -4.7279  -24.6387  -45.5819 O.2       12 UNK        -0.5000 
     74 N          -2.6865  -24.2380  -44.6823 N.am      13 UNK        -0.5000 
     75 CA         -2.2213  -25.6283  -44.6206 C.3       13 UNK         0.1400 
     76 CB         -0.9047  -25.6980  -43.8331 C.3       13 UNK        -0.1800 
     77 C          -2.0584  -26.2749  -46.0107 C.2       13 UNK         0.5000 
     78 O          -2.3345  -27.4647  -46.1649 O.2       13 UNK        -0.5000 
     79 N          -1.6610  -25.4686  -47.0041 N.am      14 UNK        -0.5000 
     80 CA         -1.5932  -25.8348  -48.4207 C.3       14 UNK         0.1400 
     81 CB         -0.6440  -24.8579  -49.1330 C.3       14 UNK        -0.1800 
     82 C          -2.9727  -25.8715  -49.1179 C.2       14 UNK         0.5000 
     83 O          -3.0385  -26.2374  -50.2914 O.2       14 UNK        -0.5000 
     84 N          -4.0404  -25.4960  -48.3968 N.am      15 UNK        -0.5000 
     85 CA         -5.4387  -25.4323  -48.8282 C.3       15 UNK         0.1400 
     86 CB         -5.9892  -26.8360  -49.1566 C.3       15 UNK        -0.1800 
     87 C          -5.6921  -24.3809  -49.9277 C.2       15 UNK         0.5000 
     88 O          -6.5390  -24.5903  -50.7994 O.2       15 UNK        -0.5000 
     89 N          -4.9719  -23.2513  -49.8344 N.am      16 UNK        -0.5000 
     90 CA         -5.1000  -22.0352  -50.6388 C.3       16 UNK         0.1400 
     91 CB         -6.3344  -21.2306  -50.1759 C.3       16 UNK        -0.1800 
     92 C          -5.0681  -22.3155  -52.1550 C.2       16 UNK         0.5000 
     93 O          -4.0087  -22.6543  -52.6877 O.2       16 UNK        -0.5000 
     94 N          -6.2272  -22.1920  -52.8161 N.am      17 UNK        -0.5000 
     95 CA         -6.4244  -22.3639  -54.2556 C.3       17 UNK         0.1400 
     96 CB         -7.8918  -22.0667  -54.5967 C.3       17 UNK        -0.1800 
     97 C          -6.0129  -23.7460  -54.7978 C.2       17 UNK         0.5000 
     98 O          -5.6625  -23.8421  -55.9738 O.2       17 UNK        -0.5000 
     99 N          -5.9969  -24.7743  -53.9361 N.am      18 UNK        -0.5000 
    100 CA        -5.4922  -26.1151  -54.2482 C.3       18 UNK         0.1400 
    101 CB        -5.7880  -27.0477  -53.0666 C.3       18 UNK        -0.1800 
    102 C         -3.9849  -26.1424  -54.5810 C.2       18 UNK         0.5000 
    103 O         -3.5498  -27.0105  -55.3383 O.2       18 UNK        -0.5000 
    104 N         -3.2288  -25.1819  -54.0341 N.am      19 UNK        -0.5000 
    105 CA        -1.8069  -24.9588  -54.2965 C.3       19 UNK         0.1400 
    106 CB        -1.0798  -24.8668  -52.9455 C.3       19 UNK        -0.1800 
    107 C         -1.5765  -23.6867  -55.1386 C.2       19 UNK         0.5000 
    108 O         -0.4312  -23.2553  -55.2763 O.2       19 UNK        -0.5000 
    109 N         -2.6617  -23.0968  -55.6662 N.am      20 UNK        -0.5000 
    110 CA        -2.7287  -21.8292  -56.4041 C.3       20 UNK         0.1400 
    111 CB        -1.9657  -21.9269  -57.7416 C.3       20 UNK        -0.1800 
    112 C         -2.3183  -20.5951  -55.5676 C.2       20 UNK         0.5000 
    113 O         -1.9490  -19.5654  -56.1355 O.2       20 UNK        -0.5000 
    114 N         -2.4056  -20.7077  -54.2364 N.am      21 UNK        -0.5000 
    115 CA        -2.1819  -19.6230  -53.2854 C.3       21 UNK         0.1400 
    116 CB        -1.6375  -20.2287  -51.9804 C.3       21 UNK        -0.1800 
    117 C         -3.4840  -18.8326  -53.0509 C.2       21 UNK         0.5000 
    118 O         -4.5657  -19.3016  -53.4119 O.2       21 UNK        -0.5000 
    119 N         -3.3592  -17.6461  -52.4415 N.am      22 UNK        -0.5000 
    120 CA        -4.4639  -16.7003  -52.1789 C.3       22 UNK         0.1400 
    121 C         -4.9785  -15.9432  -53.4456 C.2       22 UNK         0.5000 
    122 N         -4.2699  -15.9727  -54.5683 N.am      22 UNK        -0.7600 
    123 O         -6.0198  -15.2936  -53.4139 O.2       22 UNK        -0.5000 
    124 C124       -5.6109  -17.3362  -51.3350 C.3       23 UNK        -0.0398 
    125 S125       -6.4181  -16.1649  -50.1881 S.3       23 UNK        -0.2404 
    126 C126       -5.7258  -16.6618  -48.5795 C.3       23 UNK        -0.0205 
    127 H127       -0.8875  -12.3984  -42.4747 H         1 UNK         0.0600 
    128 H128       -0.6181  -10.6693  -42.2368 H         1 UNK         0.0600 
    129 H129        0.7568  -11.7772  -42.2999 H         1 UNK         0.0600 
    130 H130       -0.7098   -9.4758  -44.0899 H         1 UNK         0.3000 
    131 H131       -0.6780   -8.7264  -46.0911 H         1 UNK         0.0600 
    132 H132       -2.6473  -10.4360  -46.1173 H         1 UNK         0.0800 
    133 H133       -2.1921   -9.5788  -47.5441 H         1 UNK         0.0800 
    134 H134       -3.5818  -12.6503  -46.5052 H         1 UNK         0.0800 
    135 H135       -2.0628  -13.2481  -45.8789 H         1 UNK         0.0800 
    136 H136       -4.9752  -14.3365  -47.3796 H         1 UNK         0.1150 
    137 H137       -3.3674  -17.7837  -49.3406 H         1 UNK         0.1150 
    138 H138       -0.7377  -14.7624  -47.8232 H         1 UNK         0.1150 
    139 H139        0.0957  -16.4731  -49.3756 H         1 UNK         0.0800 
    140 H140       -0.9677  -17.6590  -50.0631 H         1 UNK         0.0800 
    141 H141       -2.1094  -19.4923  -48.6267 H         1 UNK         0.0800 
    142 H142       -2.1907  -19.0051  -46.9511 H         1 UNK         0.0800 
    143 H143       -0.7181  -21.4008  -48.1647 H         1 UNK         0.0600 
    144 H144       -0.1033  -20.1766  -45.6601 H         1 UNK         0.3000 
    145 H145        1.2698  -23.0677  -44.0717 H         1 UNK         0.0600 
    146 H146        3.1022  -22.2945  -45.5302 H         1 UNK         0.0600 
    147 H147        3.2339  -21.5170  -43.9592 H         1 UNK         0.0600 
    148 H148        2.6024  -20.6202  -45.3429 H         1 UNK         0.0600 
    149 H149        1.0550  -20.2755  -43.3794 H         1 UNK         0.3000 
    150 H150       -2.1675  -20.4443  -41.9063 H         1 UNK         0.0600 
    151 H151        0.5283  -20.3897  -40.4643 H         1 UNK         0.0600 
    152 H152       -0.8631  -21.3767  -40.0512 H         1 UNK         0.0600 
    153 H153       -0.9486  -19.6298  -39.8746 H         1 UNK         0.0600 
    154 H154       -0.1458  -18.4072  -41.9787 H         1 UNK         0.3000 
    155 H155       -0.3005  -17.4990  -45.1415 H         1 UNK         0.0600 
    156 H156       -2.6945  -16.1317  -43.8382 H         1 UNK         0.0600 
    157 H157       -2.5591  -16.7520  -45.4741 H         1 UNK         0.0600 
    158 H158       -1.6262  -15.3424  -44.9954 H         1 UNK         0.0600 
    159 H159        1.1332  -16.7600  -43.6594 H         1 UNK         0.3000 
    160 H160        1.6165  -14.3703  -42.3830 H         1 UNK         0.0600 
    161 H161        0.6621  -15.2853  -39.6183 H         1 UNK         0.0600 
    162 H162        0.3120  -13.7389  -40.3793 H         1 UNK         0.0600 
    163 H163        1.9601  -14.1309  -39.9202 H         1 UNK         0.0600 
    164 H164        3.2389  -15.8763  -42.1040 H         1 UNK         0.3000 
    165 H165        4.2395  -17.8962  -40.3771 H         1 UNK         0.0600 
    166 H166        2.8607  -19.9082  -39.9939 H         1 UNK         0.0600 
    167 H167        2.6439  -20.1329  -41.7279 H         1 UNK         0.0600 
    168 H168        4.2366  -20.3155  -41.0008 H         1 UNK         0.0600 
    169 H169        5.3702  -17.9499  -42.2782 H         1 UNK         0.3000 
    170 H170        5.8002  -17.4922  -44.5050 H         1 UNK         0.0600 
    171 H171        6.6824  -19.6360  -45.2970 H         1 UNK         0.0600 
    172 H172        6.0132  -19.9540  -43.7125 H         1 UNK         0.0600 
    173 H173        5.1170  -20.4192  -45.1522 H         1 UNK         0.0600 
    174 H174        3.5060  -17.8704  -46.0752 H         1 UNK         0.3000 
    175 H175        5.1200  -16.8405  -49.1111 H         1 UNK         0.0600 
    176 H176        3.3371  -18.2735  -50.0713 H         1 UNK         0.0600 
    177 H177        4.6099  -19.2772  -49.3951 H         1 UNK         0.0600 
    178 H178        3.0986  -19.0727  -48.5176 H         1 UNK         0.0600 
    179 H179        2.4166  -16.6897  -48.3714 H         1 UNK         0.3000 
    180 H180        1.5860  -14.4473  -48.1712 H         1 UNK         0.0600 
    181 H181        1.2684  -16.1670  -46.3430 H         1 UNK         0.0600 
    182 H182        0.4855  -14.6596  -45.9302 H         1 UNK         0.0600 
    183 H183        2.0263  -15.0760  -45.1918 H         1 UNK         0.0600 
    184 H184        1.9526  -12.7372  -46.0274 H         1 UNK         0.3000 
    185 H185        3.8295  -10.8500  -46.0816 H         1 UNK         0.0600 
    186 H186        4.8005   -9.8869  -48.1064 H         1 UNK         0.0600 
    187 H187        3.2235   -9.4404  -48.7326 H         1 UNK         0.0600 
    188 H188        3.8569   -8.6522  -47.2879 H         1 UNK         0.0600 
    189 H189        1.8014  -10.3613  -45.3397 H         1 UNK         0.3000 
    190 H190       -2.5612  -20.9351  -45.1370 H         1 UNK         0.3000 
    191 H191       -4.9740  -22.1899  -45.9539 H         1 UNK         0.0600 
    192 H192       -4.7853  -20.7048  -43.9643 H         1 UNK         0.0600 
    193 H193       -5.4531  -22.2687  -43.5188 H         1 UNK         0.0600 
    194 H194       -3.7755  -21.8956  -43.1481 H         1 UNK         0.0600 
    195 H195       -2.0621  -23.5349  -44.2980 H         1 UNK         0.3000 
    196 H196       -2.9723  -26.2044  -44.0762 H         1 UNK         0.0600 
    197 H197       -0.5550  -26.7275  -43.7469 H         1 UNK         0.0600 
    198 H198       -1.0288  -25.3114  -42.8215 H         1 UNK         0.0600 
    199 H199       -0.1156  -25.1231  -44.3176 H         1 UNK         0.0600 
    200 H200       -1.3805  -24.5215  -46.7734 H         1 UNK         0.3000 
    201 H201       -1.1661  -26.8366  -48.4970 H         1 UNK         0.0600 
    202 H202       -0.4732  -25.1616  -50.1648 H         1 UNK         0.0600 
    203 H203        0.3300  -24.8256  -48.6445 H         1 UNK         0.0600 
    204 H204       -1.0448  -23.8444  -49.1497 H         1 UNK         0.0600 
    205 H205       -3.8820  -25.2027  -47.4405 H         1 UNK         0.3000 
    206 H206       -5.9976  -25.0725  -47.9637 H         1 UNK         0.0600 
    207 H207       -5.8977  -27.4991  -48.2964 H         1 UNK         0.0600 
    208 H208       -7.0469  -26.7947  -49.4192 H         1 UNK         0.0600 
    209 H209       -5.4628  -27.3016  -49.9878 H         1 UNK         0.0600 
    210 H210       -4.2691  -23.1963  -49.1013 H         1 UNK         0.3000 
    211 H211       -4.2215  -21.4293  -50.4191 H         1 UNK         0.0600 
    212 H212       -6.2296  -20.9296  -49.1334 H         1 UNK         0.0600 
    213 H213       -6.4549  -20.3181  -50.7609 H         1 UNK         0.0600 
    214 H214       -7.2570  -21.8062  -50.2590 H         1 UNK         0.0600 
    215 H215       -7.0479  -21.9470  -52.2826 H         1 UNK         0.3000 
    216 H216       -5.7995  -21.6217  -54.7565 H         1 UNK         0.0600 
    217 H217       -8.5691  -22.7557  -54.0905 H         1 UNK         0.0600 
    218 H218       -8.0708  -22.1577  -55.6690 H         1 UNK         0.0600 
    219 H219       -8.1658  -21.0515  -54.3088 H         1 UNK         0.0600 
    220 H220       -6.2767  -24.6074  -52.9753 H         1 UNK         0.3000 
    221 H221       -6.0342  -26.4820  -55.1221 H         1 UNK         0.0600 
    222 H222       -5.2297  -26.7423  -52.1820 H         1 UNK         0.0600 
    223 H223       -6.8483  -27.0501  -52.8135 H         1 UNK         0.0600 
    224 H224       -5.5024  -28.0749  -53.2965 H         1 UNK         0.0600 
    225 H225       -3.6705  -24.4944  -53.4309 H         1 UNK         0.3000 
    226 H226       -1.3827  -25.7941  -54.8567 H         1 UNK         0.0600 
    227 H227       -1.2142  -25.7840  -52.3725 H         1 UNK         0.0600 
    228 H228       -0.0069  -24.7237  -53.0781 H         1 UNK         0.0600 
    229 H229       -1.4537  -24.0371  -52.3436 H         1 UNK         0.0600 
    230 H230       -3.5535  -23.5539  -55.5237 H         1 UNK         0.3000 
    231 H231       -3.7829  -21.6832  -56.6431 H         1 UNK         0.0600 
    232 H232       -0.8881  -21.9930  -57.5909 H         1 UNK         0.0600 
    233 H233       -2.1537  -21.0515  -58.3643 H         1 UNK         0.0600 
    234 H234       -2.2801  -22.8011  -58.3118 H         1 UNK         0.0600 
    235 H235       -2.8024  -21.5564  -53.8468 H         1 UNK         0.3000 
    236 H236       -1.4333  -18.9342  -53.6824 H         1 UNK         0.0600 
    237 H237       -2.2994  -20.9892  -51.5725 H         1 UNK         0.0600 
    238 H238       -0.6666  -20.6963  -52.1452 H         1 UNK         0.0600 
    239 H239       -1.5031  -19.4715  -51.2118 H         1 UNK         0.0600 
    240 H240       -2.4378  -17.3152  -52.1948 H         1 UNK         0.3000 
    241 H241       -4.0032  -15.9223  -51.5691 H         1 UNK         0.0600 
    242 H242       -4.6055  -15.4732  -55.3771 H         1 UNK         0.3800 
    243 H243       -3.4099  -16.4937  -54.6241 H         1 UNK         0.3800 
    244 H244       -5.2299  -18.1725  -50.7497 H         1 UNK         0.0800 
    245 H245       -6.3734  -17.7703  -51.9840 H         1 UNK         0.0800 
    246 H246       -5.7372  -17.7485  -48.4821 H         1 UNK         0.0800 
    247 H247       -6.3793  -16.2859  -47.7908 H         1 UNK         0.0800 
@<TRIPOS>BOND
     1    1    2 1    
     2    1  127 1    
     3    1  128 1    
     4    1  129 1    
     5    2    3 2    
     6    2    4 am   BACKBONE|DICT|INTERRES
     7    4    5 1    
     8    4  130 1    
     9    5    6 1    
    10    5   65 1    
    11    5  131 1    
    12    6    7 1    
    13    6  132 1    
    14    6  133 1    
    15    7    8 1    
    16    8    9 1    
    17    8  134 1    
    18    8  135 1    
    19    9   10 ar   
    20    9   14 ar   
    21   10   11 ar   
    22   10  136 1    
    23   11   12 ar   
    24   11  126 1    
    25   12   13 ar   
    26   12  137 1    
    27   13   14 ar   
    28   13   15 1    
    29   14  138 1    
    30   15   16 1    
    31   15  139 1    
    32   15  140 1    
    33   16   17 1    
    34   17   18 1    
    35   17  141 1    
    36   17  142 1    
    37   18   19 1    
    38   18   67 1    
    39   18  143 1    
    40   19   20 am   BACKBONE|DICT|INTERRES
    41   19  144 1    
    42   20   21 2    
    43   20   22 1    
    44   22   23 1    
    45   22   24 1    
    46   22  145 1    
    47   23  146 1    
    48   23  147 1    
    49   23  148 1    
    50   24   25 am   BACKBONE|DICT|INTERRES
    51   24  149 1    
    52   25   26 2    
    53   25   27 1    
    54   27   28 1    
    55   27   29 1    
    56   27  150 1    
    57   28  151 1    
    58   28  152 1    
    59   28  153 1    
    60   29   30 am   BACKBONE|DICT|INTERRES
    61   29  154 1    
    62   30   31 2    
    63   30   32 1    
    64   32   33 1    
    65   32   34 1    
    66   32  155 1    
    67   33  156 1    
    68   33  157 1    
    69   33  158 1    
    70   34   35 am   BACKBONE|DICT|INTERRES
    71   34  159 1    
    72   35   36 2    
    73   35   37 1    
    74   37   38 1    
    75   37   39 1    
    76   37  160 1    
    77   38  161 1    
    78   38  162 1    
    79   38  163 1    
    80   39   40 am   BACKBONE|DICT|INTERRES
    81   39  164 1    
    82   40   41 2    
    83   40   42 1    
    84   42   43 1    
    85   42   44 1    
    86   42  165 1    
    87   43  166 1    
    88   43  167 1    
    89   43  168 1    
    90   44   45 am   BACKBONE|DICT|INTERRES
    91   44  169 1    
    92   45   46 2    
    93   45   47 1    
    94   47   48 1    
    95   47   49 1    
    96   47  170 1    
    97   48  171 1    
    98   48  172 1    
    99   48  173 1    
   100   49   50 am   BACKBONE|DICT|INTERRES
   101   49  174 1    
   102   50   51 2    
   103   50   52 1    
   104   52   53 1    
   105   52   54 1    
   106   52  175 1    
   107   53  176 1    
   108   53  177 1    
   109   53  178 1    
   110   54   55 am   BACKBONE|DICT|INTERRES
   111   54  179 1    
   112   55   56 2    
   113   55   57 1    
   114   57   58 1    
   115   57   59 1    
   116   57  180 1    
   117   58  181 1    
   118   58  182 1    
   119   58  183 1    
   120   59   60 am   BACKBONE|DICT|INTERRES
   121   59  184 1    
   122   60   61 2    
   123   60   62 1    
   124   62   63 1    
   125   62   64 1    
   126   62  185 1    
   127   63  186 1    
   128   63  187 1    
   129   63  188 1    
   130   64   65 am   BACKBONE|DICT|INTERRES
   131   64  189 1    
   132   65   66 2    
   133   67   68 2    
   134   67   69 am   BACKBONE|DICT|INTERRES
   135   69   70 1    
   136   69  190 1    
   137   70   71 1    
   138   70   72 1    
   139   70  191 1    
   140   71  192 1    
   141   71  193 1    
   142   71  194 1    
   143   72   73 2    
   144   72   74 am   BACKBONE|DICT|INTERRES
   145   74   75 1    
   146   74  195 1    
   147   75   76 1    
   148   75   77 1    
   149   75  196 1    
   150   76  197 1    
   151   76  198 1    
   152   76  199 1    
   153   77   78 2    
   154   77   79 am   BACKBONE|DICT|INTERRES
   155   79   80 1    
   156   79  200 1    
   157   80   81 1    
   158   80   82 1    
   159   80  201 1    
   160   81  202 1    
   161   81  203 1    
   162   81  204 1    
   163   82   83 2    
   164   82   84 am   BACKBONE|DICT|INTERRES
   165   84   85 1    
   166   84  205 1    
   167   85   86 1    
   168   85   87 1    
   169   85  206 1    
   170   86  207 1    
   171   86  208 1    
   172   86  209 1    
   173   87   88 2    
   174   87   89 am   BACKBONE|DICT|INTERRES
   175   89   90 1    
   176   89  210 1    
   177   90   91 1    
   178   90   92 1    
   179   90  211 1    
   180   91  212 1    
   181   91  213 1    
   182   91  214 1    
   183   92   93 2    
   184   92   94 am   BACKBONE|DICT|INTERRES
   185   94   95 1    
   186   94  215 1    
   187   95   96 1    
   188   95   97 1    
   189   95  216 1    
   190   96  217 1    
   191   96  218 1    
   192   96  219 1    
   193   97   98 2    
   194   97   99 am   BACKBONE|DICT|INTERRES
   195   99  100 1    
   196   99  220 1    
   197  100  101 1    
   198  100  102 1    
   199  100  221 1    
   200  101  222 1    
   201  101  223 1    
   202  101  224 1    
   203  102  103 2    
   204  102  104 am   BACKBONE|DICT|INTERRES
   205  104  105 1    
   206  104  225 1    
   207  105  106 1    
   208  105  107 1    
   209  105  226 1    
   210  106  227 1    
   211  106  228 1    
   212  106  229 1    
   213  107  108 2    
   214  107  109 am   BACKBONE|DICT|INTERRES
   215  109  110 1    
   216  109  230 1    
   217  110  111 1    
   218  110  112 1    
   219  110  231 1    
   220  111  232 1    
   221  111  233 1    
   222  111  234 1    
   223  112  113 2    
   224  112  114 am   BACKBONE|DICT|INTERRES
   225  114  115 1    
   226  114  235 1    
   227  115  116 1    
   228  115  117 1    
   229  115  236 1    
   230  116  237 1    
   231  116  238 1    
   232  116  239 1    
   233  117  118 2    
   234  117  119 am   BACKBONE|DICT|INTERRES
   235  119  120 1    
   236  119  240 1    
   237  120  121 1    
   238  120  124 1    
   239  120  241 1    
   240  121  122 am   BACKBONE|DICT|INTERRES
   241  121  123 2    
   242  122  242 1    
   243  122  243 1    
   244  124  125 1    
   245  124  244 1    
   246  124  245 1    
   247  125  126 1    
   248  126  246 1    
   249  126  247 1    
@<TRIPOS>SUBSTRUCTURE
     1 UNK         1 GROUP             0       ****    0 ROOT    
