@<TRIPOS>MOLECULE
3R540
247   249    1
SMALL
USER_CHARGES


@<TRIPOS>ATOM
      1 CA          4.1615  -15.4853  -47.9681 C.3       0 UNK        -0.1800 
      2 C           3.5519  -14.6254  -46.8715 C.2       0 UNK         0.5000 
      3 O           4.0360  -14.6406  -45.7407 O.2       0 UNK        -0.5000 
      4 N           2.5049  -13.8558  -47.2001 N.am      1 UNK        -0.5000 
      5 CA          1.7461  -13.0337  -46.2461 C.3       1 UNK         0.1400 
      6 C6          0.3986  -12.5311  -46.8255 C.3       23 UNK        -0.0398 
      7 S7         -0.7176  -13.8979  -47.3012 S.3       23 UNK        -0.2404 
      8 C8         -0.7060  -13.8008  -49.1173 C.3       23 UNK        -0.0205 
      9 C9         -0.7011  -15.1882  -49.7389 C.ar      23 UNK        -0.0193 
     10 C10        -1.8549  -15.7226  -50.3215 C.ar      23 UNK        -0.1150 
     11 C11        -1.8269  -16.9841  -50.9360 C.ar      23 UNK        -0.0193 
     12 C12        -0.6284  -17.7070  -50.9384 C.ar      23 UNK        -0.1150 
     13 C13         0.5271  -17.1888  -50.3470 C.ar      23 UNK        -0.0193 
     14 C14         0.4818  -15.9281  -49.7528 C.ar      23 UNK        -0.1150 
     15 C15         1.8391  -17.9619  -50.3729 C.3       23 UNK        -0.0205 
     16 S16         1.7457  -19.5879  -49.5598 S.3       23 UNK        -0.2404 
     17 C17         1.1689  -19.1821  -47.8735 C.3       23 UNK        -0.0398 
     18 CA          0.1238  -20.2112  -47.3781 C.3       11 UNK         0.1400 
     19 N           0.1069  -20.3309  -45.9182 N.am      11 UNK        -0.5000 
     20 C          -0.4202  -21.3789  -45.2695 C.2       10 UNK         0.5000 
     21 O          -0.9832  -22.3167  -45.8337 O.2       10 UNK        -0.5000 
     22 CA         -0.3271  -21.3732  -43.7349 C.3       10 UNK         0.1400 
     23 CB          1.1116  -21.6501  -43.2731 C.3       10 UNK        -0.1800 
     24 N          -0.8088  -20.1283  -43.1402 N.am      10 UNK        -0.5000 
     25 C          -2.0655  -19.6737  -43.2473 C.2       9 UNK         0.5000 
     26 O          -2.9570  -20.2548  -43.8655 O.2       9 UNK        -0.5000 
     27 CA         -2.3690  -18.3183  -42.5873 C.3       9 UNK         0.1400 
     28 CB         -2.5101  -18.4679  -41.0650 C.3       9 UNK        -0.1800 
     29 N          -1.3617  -17.3028  -42.8868 N.am      9 UNK        -0.5000 
     30 C          -1.0461  -16.8791  -44.1193 C.2       8 UNK         0.5000 
     31 O          -1.5588  -17.3064  -45.1514 O.2       8 UNK        -0.5000 
     32 CA          0.0762  -15.8372  -44.2122 C.3       8 UNK         0.1400 
     33 CB         -0.3912  -14.4913  -43.6225 C.3       8 UNK        -0.1800 
     34 N           1.2939  -16.2906  -43.5431 N.am      8 UNK        -0.5000 
     35 C           1.9650  -17.4159  -43.8353 C.2       7 UNK         0.5000 
     36 O           1.6722  -18.1785  -44.7569 O.2       7 UNK        -0.5000 
     37 CA          3.1221  -17.7886  -42.8934 C.3       7 UNK         0.1400 
     38 CB          4.4117  -17.0505  -43.2809 C.3       7 UNK        -0.1800 
     39 N           2.7962  -17.5178  -41.4926 N.am      7 UNK        -0.5000 
     40 C           1.8561  -18.1689  -40.7912 C.2       6 UNK         0.5000 
     41 O           1.1892  -19.1024  -41.2365 O.2       6 UNK        -0.5000 
     42 CA          1.5848  -17.6527  -39.3671 C.3       6 UNK         0.1400 
     43 CB          2.6376  -18.1856  -38.3837 C.3       6 UNK        -0.1800 
     44 N           1.5596  -16.1907  -39.3101 N.am      6 UNK        -0.5000 
     45 C           0.6203  -15.4294  -39.8898 C.2       5 UNK         0.5000 
     46 O          -0.3632  -15.8874  -40.4714 O.2       5 UNK        -0.5000 
     47 CA          0.8442  -13.9045  -39.8512 C.3       5 UNK         0.1400 
     48 CB          0.2208  -13.2994  -38.5849 C.3       5 UNK        -0.1800 
     49 N           2.2620  -13.5333  -39.9220 N.am      5 UNK        -0.5000 
     50 C           3.0453  -13.7556  -40.9852 C.2       4 UNK         0.5000 
     51 O           2.6448  -14.2673  -42.0325 O.2       4 UNK        -0.5000 
     52 CA          4.5333  -13.4230  -40.8267 C.3       4 UNK         0.1400 
     53 CB          5.2315  -14.5417  -40.0242 C.3       4 UNK        -0.1800 
     54 N           5.1293  -13.2940  -42.1542 N.am      4 UNK        -0.5000 
     55 C           6.3699  -12.8708  -42.4215 C.2       3 UNK         0.5000 
     56 O           7.1678  -12.4928  -41.5625 O.2       3 UNK        -0.5000 
     57 CA          6.7908  -12.8581  -43.9005 C.3       3 UNK         0.1400 
     58 CB          7.1172  -14.2772  -44.3922 C.3       3 UNK        -0.1800 
     59 N           5.7800  -12.2509  -44.7682 N.am      3 UNK        -0.5000 
     60 C           5.5808  -10.9264  -44.8625 C.2       2 UNK         0.5000 
     61 O           6.1951  -10.1001  -44.1863 O.2       2 UNK        -0.5000 
     62 CA          4.5599  -10.4183  -45.9012 C.3       2 UNK         0.1400 
     63 CB          5.2868   -9.8498  -47.1303 C.3       2 UNK        -0.1800 
     64 N           3.6251  -11.4483  -46.3493 N.am      2 UNK        -0.5000 
     65 C           2.5611  -11.8650  -45.6514 C.2       1 UNK         0.5000 
     66 O           2.2227  -11.3777  -44.5725 O.2       1 UNK        -0.5000 
     67 C          -1.2825  -19.9685  -47.9682 C.2       11 UNK         0.5000 
     68 O          -1.5741  -20.4770  -49.0501 O.2       11 UNK        -0.5000 
     69 N          -2.1471  -19.2470  -47.2398 N.am      12 UNK        -0.5000 
     70 CA         -3.5425  -19.0356  -47.6200 C.3       12 UNK         0.1400 
     71 CB         -4.1515  -17.9116  -46.7700 C.3       12 UNK        -0.1800 
     72 C          -4.3953  -20.3129  -47.5229 C.2       12 UNK         0.5000 
     73 O          -5.2693  -20.5110  -48.3700 O.2       12 UNK        -0.5000 
     74 N          -4.1385  -21.1406  -46.4997 N.am      13 UNK        -0.5000 
     75 CA         -4.8157  -22.4194  -46.2803 C.3       13 UNK         0.1400 
     76 CB         -4.6121  -22.8617  -44.8234 C.3       13 UNK        -0.1800 
     77 C          -4.3465  -23.5231  -47.2455 C.2       13 UNK         0.5000 
     78 O          -5.1445  -24.3943  -47.5956 O.2       13 UNK        -0.5000 
     79 N          -3.0690  -23.4781  -47.6484 N.am      14 UNK        -0.5000 
     80 CA         -2.4685  -24.3723  -48.6387 C.3       14 UNK         0.1400 
     81 CB         -0.9523  -24.1251  -48.6849 C.3       14 UNK        -0.1800 
     82 C          -3.0878  -24.1959  -50.0388 C.2       14 UNK         0.5000 
     83 O          -3.5765  -23.1146  -50.3691 O.2       14 UNK        -0.5000 
     84 N          -3.0368  -25.2611  -50.8423 N.am      15 UNK        -0.5000 
     85 CA         -3.5658  -25.3048  -52.2004 C.3       15 UNK         0.1400 
     86 CB         -4.9930  -25.8789  -52.1660 C.3       15 UNK        -0.1800 
     87 C          -2.6514  -26.1753  -53.0712 C.2       15 UNK         0.5000 
     88 O          -1.9475  -27.0447  -52.5497 O.2       15 UNK        -0.5000 
     89 N          -2.7123  -25.9445  -54.3833 N.am      16 UNK        -0.5000 
     90 CA         -2.0519  -26.7242  -55.4210 C.3       16 UNK         0.1400 
     91 CB         -1.1238  -25.8019  -56.2289 C.3       16 UNK        -0.1800 
     92 C          -3.1616  -27.3149  -56.2978 C.2       16 UNK         0.5000 
     93 O          -3.8421  -26.5630  -56.9967 O.2       16 UNK        -0.5000 
     94 N          -3.3742  -28.6348  -56.1937 N.am      17 UNK        -0.5000 
     95 CA         -4.4257  -29.4056  -56.8767 C.3       17 UNK         0.1400 
     96 CB         -4.1421  -29.4834  -58.3918 C.3       17 UNK        -0.1800 
     97 C          -5.8522  -28.8999  -56.5566 C.2       17 UNK         0.5000 
     98 O          -6.7137  -28.8697  -57.4368 O.2       17 UNK        -0.5000 
     99 N          -6.0532  -28.4887  -55.2944 N.am      18 UNK        -0.5000 
    100 CA        -7.2676  -27.8864  -54.7271 C.3       18 UNK         0.1400 
    101 CB        -8.4620  -28.8615  -54.7987 C.3       18 UNK        -0.1800 
    102 C         -7.6072  -26.4854  -55.2887 C.2       18 UNK         0.5000 
    103 O         -8.7350  -26.0211  -55.1129 O.2       18 UNK        -0.5000 
    104 N         -6.6311  -25.8223  -55.9204 N.am      19 UNK        -0.5000 
    105 CA        -6.7118  -24.4541  -56.4251 C.3       19 UNK         0.1400 
    106 CB        -6.5861  -24.4930  -57.9577 C.3       19 UNK        -0.1800 
    107 C         -5.5914  -23.6035  -55.8012 C.2       19 UNK         0.5000 
    108 O         -4.7134  -24.1372  -55.1203 O.2       19 UNK        -0.5000 
    109 N         -5.6417  -22.2879  -56.0495 N.am      20 UNK        -0.5000 
    110 CA        -4.6620  -21.2723  -55.6333 C.3       20 UNK         0.1400 
    111 CB        -3.2690  -21.5663  -56.2326 C.3       20 UNK        -0.1800 
    112 C         -4.6064  -21.0067  -54.1112 C.2       20 UNK         0.5000 
    113 O         -3.6431  -20.4028  -53.6369 O.2       20 UNK        -0.5000 
    114 N         -5.6478  -21.4200  -53.3775 N.am      21 UNK        -0.5000 
    115 CA        -5.8558  -21.0782  -51.9701 C.3       21 UNK         0.1400 
    116 CB        -6.8364  -22.0869  -51.3527 C.3       21 UNK        -0.1800 
    117 C         -6.3957  -19.6433  -51.8325 C.2       21 UNK         0.5000 
    118 O         -7.0522  -19.1462  -52.7524 O.2       21 UNK        -0.5000 
    119 N         -6.1314  -19.0201  -50.6804 N.am      22 UNK        -0.5000 
    120 CA        -6.5549  -17.6472  -50.3484 C.3       22 UNK         0.1400 
    121 C         -7.4066  -17.5657  -49.0494 C.2       22 UNK         0.5000 
    122 N         -7.5798  -18.6395  -48.2871 N.am      22 UNK        -0.7600 
    123 O         -7.9434  -16.5072  -48.7349 O.2       22 UNK        -0.5000 
    124 C124       -5.3594  -16.6554  -50.3035 C.3       23 UNK        -0.0398 
    125 S125       -4.4808  -16.5204  -51.8987 S.3       23 UNK        -0.2404 
    126 C126       -3.0399  -17.6131  -51.6275 C.3       23 UNK        -0.0205 
    127 H127        3.9227  -16.5345  -47.7936 H         1 UNK         0.0600 
    128 H128        5.2461  -15.3772  -47.9700 H         1 UNK         0.0600 
    129 H129        3.7927  -15.2061  -48.9550 H         1 UNK         0.0600 
    130 H130        2.1573  -13.8606  -48.1467 H         1 UNK         0.3000 
    131 H131        1.5272  -13.6853  -45.4043 H         1 UNK         0.0600 
    132 H132       -0.1326  -11.9379  -46.0788 H         1 UNK         0.0800 
    133 H133        0.5648  -11.8633  -47.6721 H         1 UNK         0.0800 
    134 H134        0.1717  -13.2573  -49.4689 H         1 UNK         0.0800 
    135 H135       -1.5734  -13.2285  -49.4499 H         1 UNK         0.0800 
    136 H136       -2.7630  -15.1390  -50.3035 H         1 UNK         0.1150 
    137 H137       -0.5927  -18.6824  -51.4040 H         1 UNK         0.1150 
    138 H138        1.3720  -15.5159  -49.3034 H         1 UNK         0.1150 
    139 H139        2.1383  -18.1078  -51.4116 H         1 UNK         0.0800 
    140 H140        2.6394  -17.3875  -49.9047 H         1 UNK         0.0800 
    141 H141        0.7818  -18.1640  -47.8105 H         1 UNK         0.0800 
    142 H142        2.0508  -19.2047  -47.2321 H         1 UNK         0.0800 
    143 H143        0.4416  -21.1901  -47.7451 H         1 UNK         0.0600 
    144 H144        0.5486  -19.5799  -45.3925 H         1 UNK         0.3000 
    145 H145       -0.9606  -22.1816  -43.3640 H         1 UNK         0.0600 
    146 H146        1.1632  -21.7552  -42.1894 H         1 UNK         0.0600 
    147 H147        1.4913  -22.5755  -43.7078 H         1 UNK         0.0600 
    148 H148        1.7898  -20.8470  -43.5631 H         1 UNK         0.0600 
    149 H149       -0.1375  -19.5982  -42.5918 H         1 UNK         0.3000 
    150 H150       -3.3219  -17.9632  -42.9848 H         1 UNK         0.0600 
    151 H151       -3.2639  -19.2149  -40.8133 H         1 UNK         0.0600 
    152 H152       -2.8157  -17.5283  -40.6043 H         1 UNK         0.0600 
    153 H153       -1.5722  -18.7759  -40.6016 H         1 UNK         0.0600 
    154 H154       -0.8885  -16.8853  -42.0906 H         1 UNK         0.3000 
    155 H155        0.3247  -15.7007  -45.2651 H         1 UNK         0.0600 
    156 H156       -0.8543  -14.6063  -42.6441 H         1 UNK         0.0600 
    157 H157       -1.1359  -14.0281  -44.2699 H         1 UNK         0.0600 
    158 H158        0.4268  -13.7826  -43.5046 H         1 UNK         0.0600 
    159 H159        1.6621  -15.6861  -42.8143 H         1 UNK         0.3000 
    160 H160        3.3027  -18.8606  -42.9959 H         1 UNK         0.0600 
    161 H161        4.3007  -15.9703  -43.1944 H         1 UNK         0.0600 
    162 H162        4.6861  -17.2644  -44.3148 H         1 UNK         0.0600 
    163 H163        5.2481  -17.3542  -42.6516 H         1 UNK         0.0600 
    164 H164        3.2635  -16.7353  -41.0628 H         1 UNK         0.3000 
    165 H165        0.6062  -18.0252  -39.0565 H         1 UNK         0.0600 
    166 H166        2.4099  -17.8833  -37.3614 H         1 UNK         0.0600 
    167 H167        2.6686  -19.2759  -38.3998 H         1 UNK         0.0600 
    168 H168        3.6381  -17.8248  -38.6256 H         1 UNK         0.0600 
    169 H169        2.3265  -15.7358  -38.8383 H         1 UNK         0.3000 
    170 H170        0.3394  -13.4741  -40.7184 H         1 UNK         0.0600 
    171 H171       -0.8405  -13.5429  -38.5185 H         1 UNK         0.0600 
    172 H172        0.7008  -13.6733  -37.6798 H         1 UNK         0.0600 
    173 H173        0.3037  -12.2124  -38.5853 H         1 UNK         0.0600 
    174 H174        2.6603  -13.1129  -39.0945 H         1 UNK         0.3000 
    175 H175        4.6262  -12.4704  -40.3015 H         1 UNK         0.0600 
    176 H176        5.2106  -15.4919  -40.5591 H         1 UNK         0.0600 
    177 H177        6.2742  -14.3003  -39.8197 H         1 UNK         0.0600 
    178 H178        4.7509  -14.6972  -39.0577 H         1 UNK         0.0600 
    179 H179        4.5134  -13.5633  -42.9127 H         1 UNK         0.3000 
    180 H180        7.7071  -12.2686  -43.9784 H         1 UNK         0.0600 
    181 H181        6.2539  -14.9385  -44.3289 H         1 UNK         0.0600 
    182 H182        7.9124  -14.7225  -43.7932 H         1 UNK         0.0600 
    183 H183        7.4560  -14.2681  -45.4282 H         1 UNK         0.0600 
    184 H184        5.2061  -12.8844  -45.3120 H         1 UNK         0.3000 
    185 H185        3.9948   -9.6073  -45.4367 H         1 UNK         0.0600 
    186 H186        5.9723   -9.0507  -46.8451 H         1 UNK         0.0600 
    187 H187        5.8706  -10.6155  -47.6428 H         1 UNK         0.0600 
    188 H188        4.5810   -9.4290  -47.8468 H         1 UNK         0.0600 
    189 H189        3.8358  -11.9067  -47.2237 H         1 UNK         0.3000 
    190 H190       -1.8386  -18.8043  -46.3783 H         1 UNK         0.3000 
    191 H191       -3.5530  -18.7174  -48.6627 H         1 UNK         0.0600 
    192 H192       -4.1165  -18.1502  -45.7063 H         1 UNK         0.0600 
    193 H193       -5.1950  -17.7377  -47.0297 H         1 UNK         0.0600 
    194 H194       -3.6198  -16.9720  -46.9227 H         1 UNK         0.0600 
    195 H195       -3.4445  -20.8729  -45.8100 H         1 UNK         0.3000 
    196 H196       -5.8858  -22.2730  -46.4419 H         1 UNK         0.0600 
    197 H197       -5.1116  -23.8115  -44.6282 H         1 UNK         0.0600 
    198 H198       -5.0240  -22.1295  -44.1287 H         1 UNK         0.0600 
    199 H199       -3.5549  -22.9901  -44.5872 H         1 UNK         0.0600 
    200 H200       -2.4697  -22.7524  -47.2739 H         1 UNK         0.3000 
    201 H201       -2.6441  -25.3987  -48.3102 H         1 UNK         0.0600 
    202 H202       -0.4940  -24.2934  -47.7103 H         1 UNK         0.0600 
    203 H203       -0.7227  -23.1046  -48.9927 H         1 UNK         0.0600 
    204 H204       -0.4654  -24.7977  -49.3920 H         1 UNK         0.0600 
    205 H205       -2.5515  -26.1001  -50.5517 H         1 UNK         0.3000 
    206 H206       -3.5878  -24.2989  -52.6266 H         1 UNK         0.0600 
    207 H207       -5.0028  -26.9135  -51.8208 H         1 UNK         0.0600 
    208 H208       -5.6369  -25.3026  -51.5028 H         1 UNK         0.0600 
    209 H209       -5.4450  -25.8559  -53.1566 H         1 UNK         0.0600 
    210 H210       -3.3765  -25.2464  -54.7222 H         1 UNK         0.3000 
    211 H211       -1.4556  -27.5333  -54.9942 H         1 UNK         0.0600 
    212 H212       -1.6660  -24.9618  -56.6657 H         1 UNK         0.0600 
    213 H213       -0.6460  -26.3466  -57.0440 H         1 UNK         0.0600 
    214 H214       -0.3324  -25.3948  -55.5994 H         1 UNK         0.0600 
    215 H215       -2.7818  -29.1676  -55.5714 H         1 UNK         0.3000 
    216 H216       -4.3705  -30.4206  -56.4806 H         1 UNK         0.0600 
    217 H217       -4.8395  -30.1602  -58.8866 H         1 UNK         0.0600 
    218 H218       -3.1369  -29.8573  -58.5860 H         1 UNK         0.0600 
    219 H219       -4.2361  -28.5090  -58.8724 H         1 UNK         0.0600 
    220 H220       -5.2702  -28.5573  -54.6600 H         1 UNK         0.3000 
    221 H221       -7.0496  -27.7301  -53.6700 H         1 UNK         0.0600 
    222 H222       -8.8124  -29.0020  -55.8214 H         1 UNK         0.0600 
    223 H223       -8.1985  -29.8394  -54.3957 H         1 UNK         0.0600 
    224 H224       -9.3056  -28.4900  -54.2160 H         1 UNK         0.0600 
    225 H225       -5.7184  -26.2519  -56.0194 H         1 UNK         0.3000 
    226 H226       -7.6660  -23.9968  -56.1565 H         1 UNK         0.0600 
    227 H227       -7.3610  -25.1205  -58.3986 H         1 UNK         0.0600 
    228 H228       -6.6907  -23.4982  -58.3917 H         1 UNK         0.0600 
    229 H229       -5.6195  -24.8889  -58.2717 H         1 UNK         0.0600 
    230 H230       -6.4096  -21.9372  -56.6053 H         1 UNK         0.3000 
    231 H231       -5.0079  -20.3369  -56.0752 H         1 UNK         0.0600 
    232 H232       -3.3302  -21.7467  -57.3057 H         1 UNK         0.0600 
    233 H233       -2.8026  -22.4374  -55.7716 H         1 UNK         0.0600 
    234 H234       -2.5938  -20.7227  -56.0856 H         1 UNK         0.0600 
    235 H235       -6.4157  -21.8696  -53.8515 H         1 UNK         0.3000 
    236 H236       -4.9029  -21.1424  -51.4415 H         1 UNK         0.0600 
    237 H237       -7.8132  -22.0514  -51.8364 H         1 UNK         0.0600 
    238 H238       -6.4542  -23.1033  -51.4363 H         1 UNK         0.0600 
    239 H239       -6.9847  -21.8862  -50.2908 H         1 UNK         0.0600 
    240 H240       -5.6530  -19.5324  -49.9447 H         1 UNK         0.3000 
    241 H241       -7.2321  -17.2876  -51.1250 H         1 UNK         0.0600 
    242 H242       -7.1051  -19.5090  -48.4897 H         1 UNK         0.3800 
    243 H243       -8.1528  -18.5663  -47.4615 H         1 UNK         0.3800 
    244 H244       -5.7117  -15.6531  -50.0537 H         1 UNK         0.0800 
    245 H245       -4.6551  -16.9234  -49.5178 H         1 UNK         0.0800 
    246 H246       -2.7227  -17.9691  -52.6088 H         1 UNK         0.0800 
    247 H247       -3.3488  -18.5014  -51.0758 H         1 UNK         0.0800 
@<TRIPOS>BOND
     1    1    2 1    
     2    1  127 1    
     3    1  128 1    
     4    1  129 1    
     5    2    3 2    
     6    2    4 am   BACKBONE|DICT|INTERRES
     7    4    5 1    
     8    4  130 1    
     9    5    6 1    
    10    5   65 1    
    11    5  131 1    
    12    6    7 1    
    13    6  132 1    
    14    6  133 1    
    15    7    8 1    
    16    8    9 1    
    17    8  134 1    
    18    8  135 1    
    19    9   10 ar   
    20    9   14 ar   
    21   10   11 ar   
    22   10  136 1    
    23   11   12 ar   
    24   11  126 1    
    25   12   13 ar   
    26   12  137 1    
    27   13   14 ar   
    28   13   15 1    
    29   14  138 1    
    30   15   16 1    
    31   15  139 1    
    32   15  140 1    
    33   16   17 1    
    34   17   18 1    
    35   17  141 1    
    36   17  142 1    
    37   18   19 1    
    38   18   67 1    
    39   18  143 1    
    40   19   20 am   BACKBONE|DICT|INTERRES
    41   19  144 1    
    42   20   21 2    
    43   20   22 1    
    44   22   23 1    
    45   22   24 1    
    46   22  145 1    
    47   23  146 1    
    48   23  147 1    
    49   23  148 1    
    50   24   25 am   BACKBONE|DICT|INTERRES
    51   24  149 1    
    52   25   26 2    
    53   25   27 1    
    54   27   28 1    
    55   27   29 1    
    56   27  150 1    
    57   28  151 1    
    58   28  152 1    
    59   28  153 1    
    60   29   30 am   BACKBONE|DICT|INTERRES
    61   29  154 1    
    62   30   31 2    
    63   30   32 1    
    64   32   33 1    
    65   32   34 1    
    66   32  155 1    
    67   33  156 1    
    68   33  157 1    
    69   33  158 1    
    70   34   35 am   BACKBONE|DICT|INTERRES
    71   34  159 1    
    72   35   36 2    
    73   35   37 1    
    74   37   38 1    
    75   37   39 1    
    76   37  160 1    
    77   38  161 1    
    78   38  162 1    
    79   38  163 1    
    80   39   40 am   BACKBONE|DICT|INTERRES
    81   39  164 1    
    82   40   41 2    
    83   40   42 1    
    84   42   43 1    
    85   42   44 1    
    86   42  165 1    
    87   43  166 1    
    88   43  167 1    
    89   43  168 1    
    90   44   45 am   BACKBONE|DICT|INTERRES
    91   44  169 1    
    92   45   46 2    
    93   45   47 1    
    94   47   48 1    
    95   47   49 1    
    96   47  170 1    
    97   48  171 1    
    98   48  172 1    
    99   48  173 1    
   100   49   50 am   BACKBONE|DICT|INTERRES
   101   49  174 1    
   102   50   51 2    
   103   50   52 1    
   104   52   53 1    
   105   52   54 1    
   106   52  175 1    
   107   53  176 1    
   108   53  177 1    
   109   53  178 1    
   110   54   55 am   BACKBONE|DICT|INTERRES
   111   54  179 1    
   112   55   56 2    
   113   55   57 1    
   114   57   58 1    
   115   57   59 1    
   116   57  180 1    
   117   58  181 1    
   118   58  182 1    
   119   58  183 1    
   120   59   60 am   BACKBONE|DICT|INTERRES
   121   59  184 1    
   122   60   61 2    
   123   60   62 1    
   124   62   63 1    
   125   62   64 1    
   126   62  185 1    
   127   63  186 1    
   128   63  187 1    
   129   63  188 1    
   130   64   65 am   BACKBONE|DICT|INTERRES
   131   64  189 1    
   132   65   66 2    
   133   67   68 2    
   134   67   69 am   BACKBONE|DICT|INTERRES
   135   69   70 1    
   136   69  190 1    
   137   70   71 1    
   138   70   72 1    
   139   70  191 1    
   140   71  192 1    
   141   71  193 1    
   142   71  194 1    
   143   72   73 2    
   144   72   74 am   BACKBONE|DICT|INTERRES
   145   74   75 1    
   146   74  195 1    
   147   75   76 1    
   148   75   77 1    
   149   75  196 1    
   150   76  197 1    
   151   76  198 1    
   152   76  199 1    
   153   77   78 2    
   154   77   79 am   BACKBONE|DICT|INTERRES
   155   79   80 1    
   156   79  200 1    
   157   80   81 1    
   158   80   82 1    
   159   80  201 1    
   160   81  202 1    
   161   81  203 1    
   162   81  204 1    
   163   82   83 2    
   164   82   84 am   BACKBONE|DICT|INTERRES
   165   84   85 1    
   166   84  205 1    
   167   85   86 1    
   168   85   87 1    
   169   85  206 1    
   170   86  207 1    
   171   86  208 1    
   172   86  209 1    
   173   87   88 2    
   174   87   89 am   BACKBONE|DICT|INTERRES
   175   89   90 1    
   176   89  210 1    
   177   90   91 1    
   178   90   92 1    
   179   90  211 1    
   180   91  212 1    
   181   91  213 1    
   182   91  214 1    
   183   92   93 2    
   184   92   94 am   BACKBONE|DICT|INTERRES
   185   94   95 1    
   186   94  215 1    
   187   95   96 1    
   188   95   97 1    
   189   95  216 1    
   190   96  217 1    
   191   96  218 1    
   192   96  219 1    
   193   97   98 2    
   194   97   99 am   BACKBONE|DICT|INTERRES
   195   99  100 1    
   196   99  220 1    
   197  100  101 1    
   198  100  102 1    
   199  100  221 1    
   200  101  222 1    
   201  101  223 1    
   202  101  224 1    
   203  102  103 2    
   204  102  104 am   BACKBONE|DICT|INTERRES
   205  104  105 1    
   206  104  225 1    
   207  105  106 1    
   208  105  107 1    
   209  105  226 1    
   210  106  227 1    
   211  106  228 1    
   212  106  229 1    
   213  107  108 2    
   214  107  109 am   BACKBONE|DICT|INTERRES
   215  109  110 1    
   216  109  230 1    
   217  110  111 1    
   218  110  112 1    
   219  110  231 1    
   220  111  232 1    
   221  111  233 1    
   222  111  234 1    
   223  112  113 2    
   224  112  114 am   BACKBONE|DICT|INTERRES
   225  114  115 1    
   226  114  235 1    
   227  115  116 1    
   228  115  117 1    
   229  115  236 1    
   230  116  237 1    
   231  116  238 1    
   232  116  239 1    
   233  117  118 2    
   234  117  119 am   BACKBONE|DICT|INTERRES
   235  119  120 1    
   236  119  240 1    
   237  120  121 1    
   238  120  124 1    
   239  120  241 1    
   240  121  122 am   BACKBONE|DICT|INTERRES
   241  121  123 2    
   242  122  242 1    
   243  122  243 1    
   244  124  125 1    
   245  124  244 1    
   246  124  245 1    
   247  125  126 1    
   248  126  246 1    
   249  126  247 1    
@<TRIPOS>SUBSTRUCTURE
     1 UNK         1 GROUP             0       ****    0 ROOT    
