@<TRIPOS>MOLECULE
3R540
247   249    1
SMALL
USER_CHARGES


@<TRIPOS>ATOM
      1 CA          5.3527  -15.0742  -49.8706 C.3       0 UNK        -0.1800 
      2 C           3.8966  -15.2564  -49.4643 C.2       0 UNK         0.5000 
      3 O           3.4145  -16.3876  -49.4160 O.2       0 UNK        -0.5000 
      4 N           3.2041  -14.1468  -49.1801 N.am      1 UNK        -0.5000 
      5 CA          1.8126  -14.1138  -48.7161 C.3       1 UNK         0.1400 
      6 C6          1.1159  -12.7765  -49.0929 C.3       23 UNK        -0.0398 
      7 S7          0.9944  -12.5108  -50.8951 S.3       23 UNK        -0.2404 
      8 C8         -0.7104  -13.0600  -51.2439 C.3       23 UNK        -0.0205 
      9 C9         -0.8130  -14.5772  -51.2611 C.ar      23 UNK        -0.0193 
     10 C10        -0.4960  -15.2824  -52.4235 C.ar      23 UNK        -0.1150 
     11 C11        -0.5521  -16.6789  -52.4501 C.ar      23 UNK        -0.0193 
     12 C12        -0.8928  -17.3736  -51.2854 C.ar      23 UNK        -0.1150 
     13 C13        -1.2080  -16.6772  -50.1135 C.ar      23 UNK        -0.0193 
     14 C14        -1.1978  -15.2797  -50.1168 C.ar      23 UNK        -0.1150 
     15 C15        -1.5264  -17.4246  -48.8305 C.3       23 UNK        -0.0205 
     16 S16        -0.0213  -17.6675  -47.8406 S.3       23 UNK        -0.2404 
     17 C17        -0.7250  -18.3480  -46.3064 C.3       23 UNK        -0.0398 
     18 CA         -0.6016  -19.8868  -46.2103 C.3       11 UNK         0.1400 
     19 N          -0.6817  -20.3400  -44.8206 N.am      11 UNK        -0.5000 
     20 C          -0.5058  -21.6014  -44.4041 C.2       10 UNK         0.5000 
     21 O          -0.1836  -22.5302  -45.1426 O.2       10 UNK        -0.5000 
     22 CA         -0.8020  -21.8801  -42.9208 C.3       10 UNK         0.1400 
     23 CB          0.4010  -21.5117  -42.0389 C.3       10 UNK        -0.1800 
     24 N          -1.9947  -21.1643  -42.4638 N.am      10 UNK        -0.5000 
     25 C          -3.2417  -21.4342  -42.8788 C.2       9 UNK         0.5000 
     26 O          -3.5211  -22.3453  -43.6564 O.2       9 UNK        -0.5000 
     27 CA         -4.3558  -20.4972  -42.3786 C.3       9 UNK         0.1400 
     28 CB         -4.8232  -20.9109  -40.9753 C.3       9 UNK        -0.1800 
     29 N          -3.9383  -19.0948  -42.3579 N.am      9 UNK        -0.5000 
     30 C          -3.6396  -18.3743  -43.4487 C.2       8 UNK         0.5000 
     31 O          -3.7315  -18.8022  -44.5983 O.2       8 UNK        -0.5000 
     32 CA         -3.0801  -16.9600  -43.2088 C.3       8 UNK         0.1400 
     33 CB         -4.2199  -15.9396  -43.0782 C.3       8 UNK        -0.1800 
     34 N          -2.2163  -16.8892  -42.0262 N.am      8 UNK        -0.5000 
     35 C          -1.0569  -17.5482  -41.9075 C.2       7 UNK         0.5000 
     36 O          -0.5624  -18.2255  -42.8145 O.2       7 UNK        -0.5000 
     37 CA         -0.3827  -17.5110  -40.5297 C.3       7 UNK         0.1400 
     38 CB         -1.1533  -18.4057  -39.5369 C.3       7 UNK        -0.1800 
     39 N           0.9859  -17.9866  -40.6848 N.am      7 UNK        -0.5000 
     40 C           1.9650  -17.9368  -39.7749 C.2       6 UNK         0.5000 
     41 O           1.8267  -17.4816  -38.6389 O.2       6 UNK        -0.5000 
     42 CA          3.3407  -18.4822  -40.2121 C.3       6 UNK         0.1400 
     43 CB          3.4826  -19.9592  -39.8127 C.3       6 UNK        -0.1800 
     44 N           3.5918  -18.3501  -41.6513 N.am      6 UNK        -0.5000 
     45 C           3.7332  -17.1798  -42.2877 C.2       5 UNK         0.5000 
     46 O           3.6982  -16.0888  -41.7134 O.2       5 UNK        -0.5000 
     47 CA          3.9099  -17.2602  -43.8190 C.3       5 UNK         0.1400 
     48 CB          2.6019  -17.7222  -44.4841 C.3       5 UNK        -0.1800 
     49 N           4.2980  -15.9763  -44.4017 N.am      5 UNK        -0.5000 
     50 C           5.4759  -15.3631  -44.2208 C.2       4 UNK         0.5000 
     51 O           6.4333  -15.8741  -43.6375 O.2       4 UNK        -0.5000 
     52 CA          5.5993  -13.9320  -44.7728 C.3       4 UNK         0.1400 
     53 CB          6.0820  -13.9541  -46.2316 C.3       4 UNK        -0.1800 
     54 N           4.3215  -13.2210  -44.6967 N.am      4 UNK        -0.5000 
     55 C           3.9200  -12.4837  -43.6516 C.2       3 UNK         0.5000 
     56 O           4.6227  -12.2601  -42.6651 O.2       3 UNK        -0.5000 
     57 CA          2.5034  -11.8753  -43.7160 C.3       3 UNK         0.1400 
     58 CB          2.5638  -10.4365  -44.2519 C.3       3 UNK        -0.1800 
     59 N           1.5781  -12.6488  -44.5453 N.am      3 UNK        -0.5000 
     60 C           1.0099  -13.8055  -44.1780 C.2       2 UNK         0.5000 
     61 O           1.1400  -14.3072  -43.0627 O.2       2 UNK        -0.5000 
     62 CA          0.1562  -14.5373  -45.2351 C.3       2 UNK         0.1400 
     63 CB         -1.3302  -14.2099  -45.0328 C.3       2 UNK        -0.1800 
     64 N           0.5063  -14.2690  -46.6352 N.am      2 UNK        -0.5000 
     65 C           1.7162  -14.4072  -47.1987 C.2       1 UNK         0.5000 
     66 O           2.7195  -14.7217  -46.5545 O.2       1 UNK        -0.5000 
     67 C          -1.6408  -20.5992  -47.1017 C.2       11 UNK         0.5000 
     68 O          -1.2793  -21.1457  -48.1437 O.2       11 UNK        -0.5000 
     69 N          -2.9054  -20.6174  -46.6565 N.am      12 UNK        -0.5000 
     70 CA         -4.0125  -21.2910  -47.3351 C.3       12 UNK         0.1400 
     71 CB         -5.3349  -20.9390  -46.6395 C.3       12 UNK        -0.1800 
     72 C          -3.8322  -22.8165  -47.4278 C.2       12 UNK         0.5000 
     73 O          -4.1986  -23.3971  -48.4476 O.2       12 UNK        -0.5000 
     74 N          -3.2532  -23.4297  -46.3855 N.am      13 UNK        -0.5000 
     75 CA         -2.8988  -24.8486  -46.3511 C.3       13 UNK         0.1400 
     76 CB         -2.5755  -25.2686  -44.9096 C.3       13 UNK        -0.1800 
     77 C          -1.7310  -25.1912  -47.2943 C.2       13 UNK         0.5000 
     78 O          -1.7778  -26.2236  -47.9619 O.2       13 UNK        -0.5000 
     79 N          -0.7137  -24.3210  -47.3547 N.am      14 UNK        -0.5000 
     80 CA          0.4368  -24.4564  -48.2510 C.3       14 UNK         0.1400 
     81 CB          1.5215  -23.4441  -47.8523 C.3       14 UNK        -0.1800 
     82 C           0.0534  -24.2899  -49.7331 C.2       14 UNK         0.5000 
     83 O           0.5490  -25.0337  -50.5798 O.2       14 UNK        -0.5000 
     84 N          -0.8421  -23.3349  -50.0108 N.am      15 UNK        -0.5000 
     85 CA         -1.3672  -23.0275  -51.3408 C.3       15 UNK         0.1400 
     86 CB         -1.6571  -21.5177  -51.4080 C.3       15 UNK        -0.1800 
     87 C          -2.6195  -23.8496  -51.7111 C.2       15 UNK         0.5000 
     88 O          -3.2567  -23.5355  -52.7196 O.2       15 UNK        -0.5000 
     89 N          -2.9907  -24.8497  -50.8977 N.am      16 UNK        -0.5000 
     90 CA         -4.1775  -25.6913  -51.0788 C.3       16 UNK         0.1400 
     91 CB         -4.2941  -26.6853  -49.9159 C.3       16 UNK        -0.1800 
     92 C          -4.1786  -26.4409  -52.4222 C.2       16 UNK         0.5000 
     93 O          -3.1176  -26.8489  -52.9002 O.2       16 UNK        -0.5000 
     94 N          -5.3722  -26.5723  -53.0164 N.am      17 UNK        -0.5000 
     95 CA         -5.6846  -27.1287  -54.3419 C.3       17 UNK         0.1400 
     96 CB         -5.2280  -28.5947  -54.4711 C.3       17 UNK        -0.1800 
     97 C          -5.1774  -26.2756  -55.5239 C.2       17 UNK         0.5000 
     98 O          -5.8824  -26.1655  -56.5276 O.2       17 UNK        -0.5000 
     99 N          -3.9916  -25.6692  -55.3855 N.am      18 UNK        -0.5000 
    100 CA        -3.3995  -24.7383  -56.3442 C.3       18 UNK         0.1400 
    101 CB        -1.9237  -24.5069  -55.9838 C.3       18 UNK        -0.1800 
    102 C         -4.1624  -23.4030  -56.4098 C.2       18 UNK         0.5000 
    103 O         -4.3792  -22.8847  -57.5062 O.2       18 UNK        -0.5000 
    104 N         -4.5683  -22.8841  -55.2434 N.am      19 UNK        -0.5000 
    105 CA        -5.3278  -21.6401  -55.1142 C.3       19 UNK         0.1400 
    106 CB        -4.3759  -20.4337  -55.1856 C.3       19 UNK        -0.1800 
    107 C         -6.1633  -21.5781  -53.8258 C.2       19 UNK         0.5000 
    108 O         -7.2363  -20.9758  -53.8469 O.2       19 UNK        -0.5000 
    109 N         -5.6570  -22.1752  -52.7339 N.am      20 UNK        -0.5000 
    110 CA        -6.1625  -22.0734  -51.3575 C.3       20 UNK         0.1400 
    111 CB        -7.5471  -22.7377  -51.2130 C.3       20 UNK        -0.1800 
    112 C         -6.1093  -20.6168  -50.8466 C.2       20 UNK         0.5000 
    113 O         -7.1058  -20.0919  -50.3484 O.2       20 UNK        -0.5000 
    114 N         -4.9212  -20.0166  -51.0164 N.am      21 UNK        -0.5000 
    115 CA        -4.5510  -18.6053  -50.8721 C.3       21 UNK         0.1400 
    116 CB        -5.0503  -17.9597  -49.5650 C.3       21 UNK        -0.1800 
    117 C         -4.9526  -17.8046  -52.1225 C.2       21 UNK         0.5000 
    118 O         -6.1176  -17.8135  -52.5216 O.2       21 UNK        -0.5000 
    119 N         -3.9587  -17.1575  -52.7409 N.am      22 UNK        -0.5000 
    120 CA        -4.0631  -16.5384  -54.0744 C.3       22 UNK         0.1400 
    121 C         -4.7448  -15.1392  -54.0994 C.2       22 UNK         0.5000 
    122 N         -5.0543  -14.5281  -52.9626 N.am      22 UNK        -0.7600 
    123 O         -5.0025  -14.6001  -55.1722 O.2       22 UNK        -0.5000 
    124 C124       -2.7001  -16.5072  -54.8244 C.3       23 UNK        -0.0398 
    125 S125       -1.6982  -18.0284  -54.6180 S.3       23 UNK        -0.2404 
    126 C126       -0.2182  -17.4269  -53.7345 C.3       23 UNK        -0.0205 
    127 H127        6.0015  -15.6443  -49.2057 H         1 UNK         0.0600 
    128 H128        5.6585  -14.0285  -49.8273 H         1 UNK         0.0600 
    129 H129        5.5060  -15.4324  -50.8886 H         1 UNK         0.0600 
    130 H130        3.6662  -13.2513  -49.2345 H         1 UNK         0.3000 
    131 H131        1.2813  -14.9272  -49.2099 H         1 UNK         0.0600 
    132 H132        0.1081  -12.7112  -48.6827 H         1 UNK         0.0800 
    133 H133        1.6624  -11.9345  -48.6647 H         1 UNK         0.0800 
    134 H134       -1.0126  -12.6655  -52.2153 H         1 UNK         0.0800 
    135 H135       -1.4033  -12.6316  -50.5182 H         1 UNK         0.0800 
    136 H136       -0.1992  -14.7387  -53.3096 H         1 UNK         0.1150 
    137 H137       -0.8990  -18.4546  -51.2887 H         1 UNK         0.1150 
    138 H138       -1.4431  -14.7410  -49.2131 H         1 UNK         0.1150 
    139 H139       -2.2657  -16.8693  -48.2512 H         1 UNK         0.0800 
    140 H140       -1.9665  -18.3963  -49.0543 H         1 UNK         0.0800 
    141 H141       -1.7550  -18.0129  -46.1805 H         1 UNK         0.0800 
    142 H142       -0.1694  -17.8901  -45.4891 H         1 UNK         0.0800 
    143 H143        0.3893  -20.1737  -46.5692 H         1 UNK         0.0600 
    144 H144       -0.8900  -19.6307  -44.1249 H         1 UNK         0.3000 
    145 H145       -0.9872  -22.9506  -42.8105 H         1 UNK         0.0600 
    146 H146        0.1975  -21.7114  -40.9867 H         1 UNK         0.0600 
    147 H147        1.2777  -22.0979  -42.3169 H         1 UNK         0.0600 
    148 H148        0.6705  -20.4611  -42.1353 H         1 UNK         0.0600 
    149 H149       -1.8468  -20.3747  -41.8554 H         1 UNK         0.3000 
    150 H150       -5.2018  -20.5896  -43.0631 H         1 UNK         0.0600 
    151 H151       -5.1535  -21.9505  -40.9654 H         1 UNK         0.0600 
    152 H152       -5.6641  -20.3011  -40.6446 H         1 UNK         0.0600 
    153 H153       -4.0259  -20.8124  -40.2374 H         1 UNK         0.0600 
    154 H154       -3.8424  -18.6608  -41.4523 H         1 UNK         0.3000 
    155 H155       -2.4801  -16.6976  -44.0814 H         1 UNK         0.0600 
    156 H156       -4.8531  -16.1495  -42.2153 H         1 UNK         0.0600 
    157 H157       -3.8345  -14.9256  -42.9717 H         1 UNK         0.0600 
    158 H158       -4.8568  -15.9521  -43.9638 H         1 UNK         0.0600 
    159 H159       -2.5625  -16.3526  -41.2436 H         1 UNK         0.3000 
    160 H160       -0.3647  -16.4787  -40.1750 H         1 UNK         0.0600 
    161 H161       -1.1463  -19.4507  -39.8487 H         1 UNK         0.0600 
    162 H162       -2.1947  -18.0953  -39.4462 H         1 UNK         0.0600 
    163 H163       -0.7231  -18.3568  -38.5369 H         1 UNK         0.0600 
    164 H164        1.1874  -18.3374  -41.6122 H         1 UNK         0.3000 
    165 H165        4.1050  -17.9102  -39.6816 H         1 UNK         0.0600 
    166 H166        4.4790  -20.3369  -40.0426 H         1 UNK         0.0600 
    167 H167        3.3264  -20.0903  -38.7410 H         1 UNK         0.0600 
    168 H168        2.7564  -20.5883  -40.3285 H         1 UNK         0.0600 
    169 H169        3.6415  -19.2086  -42.1804 H         1 UNK         0.3000 
    170 H170        4.6958  -17.9850  -44.0403 H         1 UNK         0.0600 
    171 H171        2.3541  -18.7476  -44.2074 H         1 UNK         0.0600 
    172 H172        1.7647  -17.0951  -44.1801 H         1 UNK         0.0600 
    173 H173        2.6702  -17.6886  -45.5721 H         1 UNK         0.0600 
    174 H174        3.5897  -15.4927  -44.9422 H         1 UNK         0.3000 
    175 H175        6.3495  -13.4053  -44.1791 H         1 UNK         0.0600 
    176 H176        7.0551  -14.4399  -46.3125 H         1 UNK         0.0600 
    177 H177        5.3912  -14.4977  -46.8756 H         1 UNK         0.0600 
    178 H178        6.1874  -12.9445  -46.6287 H         1 UNK         0.0600 
    179 H179        3.6615  -13.4201  -45.4403 H         1 UNK         0.3000 
    180 H180        2.1119  -11.8420  -42.6969 H         1 UNK         0.0600 
    181 H181        2.9386  -10.4031  -45.2758 H         1 UNK         0.0600 
    182 H182        3.2240   -9.8196  -43.6407 H         1 UNK         0.0600 
    183 H183        1.5794   -9.9684  -44.2381 H         1 UNK         0.0600 
    184 H184        1.4004  -12.3001  -45.4750 H         1 UNK         0.3000 
    185 H185        0.2896  -15.6057  -45.0697 H         1 UNK         0.0600 
    186 H186       -1.6303  -14.3825  -43.9987 H         1 UNK         0.0600 
    187 H187       -1.5462  -13.1660  -45.2632 H         1 UNK         0.0600 
    188 H188       -1.9630  -14.8324  -45.6657 H         1 UNK         0.0600 
    189 H189       -0.2691  -14.0057  -47.2233 H         1 UNK         0.3000 
    190 H190       -3.1384  -20.1110  -45.8056 H         1 UNK         0.3000 
    191 H191       -4.0533  -20.9068  -48.3558 H         1 UNK         0.0600 
    192 H192       -5.3482  -21.2834  -45.6049 H         1 UNK         0.0600 
    193 H193       -6.1804  -21.3989  -47.1528 H         1 UNK         0.0600 
    194 H194       -5.5044  -19.8622  -46.6352 H         1 UNK         0.0600 
    195 H195       -3.0525  -22.8903  -45.5500 H         1 UNK         0.3000 
    196 H196       -3.7691  -25.4207  -46.6783 H         1 UNK         0.0600 
    197 H197       -2.3281  -26.3296  -44.8583 H         1 UNK         0.0600 
    198 H198       -3.4274  -25.1014  -44.2505 H         1 UNK         0.0600 
    199 H199       -1.7277  -24.7140  -44.5076 H         1 UNK         0.0600 
    200 H200       -0.7093  -23.5229  -46.7258 H         1 UNK         0.3000 
    201 H201        0.8477  -25.4601  -48.1241 H         1 UNK         0.0600 
    202 H202        1.8556  -23.6089  -46.8278 H         1 UNK         0.0600 
    203 H203        1.1616  -22.4173  -47.9244 H         1 UNK         0.0600 
    204 H204        2.3959  -23.5327  -48.4982 H         1 UNK         0.0600 
    205 H205       -1.1557  -22.7324  -49.2541 H         1 UNK         0.3000 
    206 H206       -0.6078  -23.2549  -52.0914 H         1 UNK         0.0600 
    207 H207       -0.7558  -20.9397  -51.2031 H         1 UNK         0.0600 
    208 H208       -2.0121  -21.2192  -52.3953 H         1 UNK         0.0600 
    209 H209       -2.4088  -21.2259  -50.6751 H         1 UNK         0.0600 
    210 H210       -2.4225  -25.0443  -50.0858 H         1 UNK         0.3000 
    211 H211       -5.0466  -25.0319  -51.0498 H         1 UNK         0.0600 
    212 H212       -3.4239  -27.3403  -49.8599 H         1 UNK         0.0600 
    213 H213       -5.1752  -27.3185  -50.0259 H         1 UNK         0.0600 
    214 H214       -4.3894  -26.1654  -48.9633 H         1 UNK         0.0600 
    215 H215       -6.1734  -26.1892  -52.5344 H         1 UNK         0.3000 
    216 H216       -6.7739  -27.1245  -54.4067 H         1 UNK         0.0600 
    217 H217       -5.5892  -29.0307  -55.4033 H         1 UNK         0.0600 
    218 H218       -5.6182  -29.2030  -53.6552 H         1 UNK         0.0600 
    219 H219       -4.1419  -28.6886  -54.4715 H         1 UNK         0.0600 
    220 H220       -3.4689  -25.8534  -54.5349 H         1 UNK         0.3000 
    221 H221       -3.4405  -25.1975  -57.3341 H         1 UNK         0.0600 
    222 H222       -1.8127  -24.0691  -54.9912 H         1 UNK         0.0600 
    223 H223       -1.3631  -25.4416  -56.0012 H         1 UNK         0.0600 
    224 H224       -1.4501  -23.8299  -56.6958 H         1 UNK         0.0600 
    225 H225       -4.3069  -23.3598  -54.3871 H         1 UNK         0.3000 
    226 H226       -6.0333  -21.5742  -55.9454 H         1 UNK         0.0600 
    227 H227       -3.8539  -20.3901  -56.1414 H         1 UNK         0.0600 
    228 H228       -4.9249  -19.4986  -55.0749 H         1 UNK         0.0600 
    229 H229       -3.6251  -20.4705  -54.3957 H         1 UNK         0.0600 
    230 H230       -4.7576  -22.6449  -52.8170 H         1 UNK         0.3000 
    231 H231       -5.4686  -22.6371  -50.7332 H         1 UNK         0.0600 
    232 H232       -7.8528  -22.7691  -50.1666 H         1 UNK         0.0600 
    233 H233       -7.5310  -23.7645  -51.5777 H         1 UNK         0.0600 
    234 H234       -8.3198  -22.1985  -51.7611 H         1 UNK         0.0600 
    235 H235       -4.2152  -20.5756  -51.4708 H         1 UNK         0.3000 
    236 H236       -3.4631  -18.6166  -50.8252 H         1 UNK         0.0600 
    237 H237       -6.1337  -17.8413  -49.5525 H         1 UNK         0.0600 
    238 H238       -4.7628  -18.5484  -48.6946 H         1 UNK         0.0600 
    239 H239       -4.6205  -16.9653  -49.4407 H         1 UNK         0.0600 
    240 H240       -3.0267  -17.1762  -52.3510 H         1 UNK         0.3000 
    241 H241       -4.7201  -17.1789  -54.6649 H         1 UNK         0.0600 
    242 H242       -5.4999  -13.6245  -52.9884 H         1 UNK         0.3800 
    243 H243       -4.8548  -14.9661  -52.0782 H         1 UNK         0.3800 
    244 H244       -2.8772  -16.3751  -55.8929 H         1 UNK         0.0800 
    245 H245       -2.1147  -15.6389  -54.5263 H         1 UNK         0.0800 
    246 H246        0.4217  -18.2789  -53.5003 H         1 UNK         0.0800 
    247 H247        0.3604  -16.7913  -54.4066 H         1 UNK         0.0800 
@<TRIPOS>BOND
     1    1    2 1    
     2    1  127 1    
     3    1  128 1    
     4    1  129 1    
     5    2    3 2    
     6    2    4 am   BACKBONE|DICT|INTERRES
     7    4    5 1    
     8    4  130 1    
     9    5    6 1    
    10    5   65 1    
    11    5  131 1    
    12    6    7 1    
    13    6  132 1    
    14    6  133 1    
    15    7    8 1    
    16    8    9 1    
    17    8  134 1    
    18    8  135 1    
    19    9   10 ar   
    20    9   14 ar   
    21   10   11 ar   
    22   10  136 1    
    23   11   12 ar   
    24   11  126 1    
    25   12   13 ar   
    26   12  137 1    
    27   13   14 ar   
    28   13   15 1    
    29   14  138 1    
    30   15   16 1    
    31   15  139 1    
    32   15  140 1    
    33   16   17 1    
    34   17   18 1    
    35   17  141 1    
    36   17  142 1    
    37   18   19 1    
    38   18   67 1    
    39   18  143 1    
    40   19   20 am   BACKBONE|DICT|INTERRES
    41   19  144 1    
    42   20   21 2    
    43   20   22 1    
    44   22   23 1    
    45   22   24 1    
    46   22  145 1    
    47   23  146 1    
    48   23  147 1    
    49   23  148 1    
    50   24   25 am   BACKBONE|DICT|INTERRES
    51   24  149 1    
    52   25   26 2    
    53   25   27 1    
    54   27   28 1    
    55   27   29 1    
    56   27  150 1    
    57   28  151 1    
    58   28  152 1    
    59   28  153 1    
    60   29   30 am   BACKBONE|DICT|INTERRES
    61   29  154 1    
    62   30   31 2    
    63   30   32 1    
    64   32   33 1    
    65   32   34 1    
    66   32  155 1    
    67   33  156 1    
    68   33  157 1    
    69   33  158 1    
    70   34   35 am   BACKBONE|DICT|INTERRES
    71   34  159 1    
    72   35   36 2    
    73   35   37 1    
    74   37   38 1    
    75   37   39 1    
    76   37  160 1    
    77   38  161 1    
    78   38  162 1    
    79   38  163 1    
    80   39   40 am   BACKBONE|DICT|INTERRES
    81   39  164 1    
    82   40   41 2    
    83   40   42 1    
    84   42   43 1    
    85   42   44 1    
    86   42  165 1    
    87   43  166 1    
    88   43  167 1    
    89   43  168 1    
    90   44   45 am   BACKBONE|DICT|INTERRES
    91   44  169 1    
    92   45   46 2    
    93   45   47 1    
    94   47   48 1    
    95   47   49 1    
    96   47  170 1    
    97   48  171 1    
    98   48  172 1    
    99   48  173 1    
   100   49   50 am   BACKBONE|DICT|INTERRES
   101   49  174 1    
   102   50   51 2    
   103   50   52 1    
   104   52   53 1    
   105   52   54 1    
   106   52  175 1    
   107   53  176 1    
   108   53  177 1    
   109   53  178 1    
   110   54   55 am   BACKBONE|DICT|INTERRES
   111   54  179 1    
   112   55   56 2    
   113   55   57 1    
   114   57   58 1    
   115   57   59 1    
   116   57  180 1    
   117   58  181 1    
   118   58  182 1    
   119   58  183 1    
   120   59   60 am   BACKBONE|DICT|INTERRES
   121   59  184 1    
   122   60   61 2    
   123   60   62 1    
   124   62   63 1    
   125   62   64 1    
   126   62  185 1    
   127   63  186 1    
   128   63  187 1    
   129   63  188 1    
   130   64   65 am   BACKBONE|DICT|INTERRES
   131   64  189 1    
   132   65   66 2    
   133   67   68 2    
   134   67   69 am   BACKBONE|DICT|INTERRES
   135   69   70 1    
   136   69  190 1    
   137   70   71 1    
   138   70   72 1    
   139   70  191 1    
   140   71  192 1    
   141   71  193 1    
   142   71  194 1    
   143   72   73 2    
   144   72   74 am   BACKBONE|DICT|INTERRES
   145   74   75 1    
   146   74  195 1    
   147   75   76 1    
   148   75   77 1    
   149   75  196 1    
   150   76  197 1    
   151   76  198 1    
   152   76  199 1    
   153   77   78 2    
   154   77   79 am   BACKBONE|DICT|INTERRES
   155   79   80 1    
   156   79  200 1    
   157   80   81 1    
   158   80   82 1    
   159   80  201 1    
   160   81  202 1    
   161   81  203 1    
   162   81  204 1    
   163   82   83 2    
   164   82   84 am   BACKBONE|DICT|INTERRES
   165   84   85 1    
   166   84  205 1    
   167   85   86 1    
   168   85   87 1    
   169   85  206 1    
   170   86  207 1    
   171   86  208 1    
   172   86  209 1    
   173   87   88 2    
   174   87   89 am   BACKBONE|DICT|INTERRES
   175   89   90 1    
   176   89  210 1    
   177   90   91 1    
   178   90   92 1    
   179   90  211 1    
   180   91  212 1    
   181   91  213 1    
   182   91  214 1    
   183   92   93 2    
   184   92   94 am   BACKBONE|DICT|INTERRES
   185   94   95 1    
   186   94  215 1    
   187   95   96 1    
   188   95   97 1    
   189   95  216 1    
   190   96  217 1    
   191   96  218 1    
   192   96  219 1    
   193   97   98 2    
   194   97   99 am   BACKBONE|DICT|INTERRES
   195   99  100 1    
   196   99  220 1    
   197  100  101 1    
   198  100  102 1    
   199  100  221 1    
   200  101  222 1    
   201  101  223 1    
   202  101  224 1    
   203  102  103 2    
   204  102  104 am   BACKBONE|DICT|INTERRES
   205  104  105 1    
   206  104  225 1    
   207  105  106 1    
   208  105  107 1    
   209  105  226 1    
   210  106  227 1    
   211  106  228 1    
   212  106  229 1    
   213  107  108 2    
   214  107  109 am   BACKBONE|DICT|INTERRES
   215  109  110 1    
   216  109  230 1    
   217  110  111 1    
   218  110  112 1    
   219  110  231 1    
   220  111  232 1    
   221  111  233 1    
   222  111  234 1    
   223  112  113 2    
   224  112  114 am   BACKBONE|DICT|INTERRES
   225  114  115 1    
   226  114  235 1    
   227  115  116 1    
   228  115  117 1    
   229  115  236 1    
   230  116  237 1    
   231  116  238 1    
   232  116  239 1    
   233  117  118 2    
   234  117  119 am   BACKBONE|DICT|INTERRES
   235  119  120 1    
   236  119  240 1    
   237  120  121 1    
   238  120  124 1    
   239  120  241 1    
   240  121  122 am   BACKBONE|DICT|INTERRES
   241  121  123 2    
   242  122  242 1    
   243  122  243 1    
   244  124  125 1    
   245  124  244 1    
   246  124  245 1    
   247  125  126 1    
   248  126  246 1    
   249  126  247 1    
@<TRIPOS>SUBSTRUCTURE
     1 UNK         1 GROUP             0       ****    0 ROOT    
