@<TRIPOS>MOLECULE
3R540
247   249    1
SMALL
USER_CHARGES


@<TRIPOS>ATOM
      1 CA         10.1519  -14.4202  -46.9415 C.3       0 UNK        -0.1800 
      2 C           8.6856  -14.5705  -46.5616 C.2       0 UNK         0.5000 
      3 O           8.3332  -15.5024  -45.8389 O.2       0 UNK        -0.5000 
      4 N           7.8323  -13.6571  -47.0448 N.am      1 UNK        -0.5000 
      5 CA          6.3884  -13.6300  -46.7714 C.3       1 UNK         0.1400 
      6 C6          5.6335  -12.7823  -47.8304 C.3       23 UNK        -0.0398 
      7 S7          3.9813  -13.4482  -48.2193 S.3       23 UNK        -0.2404 
      8 C8          4.3502  -14.4894  -49.6669 C.3       23 UNK        -0.0205 
      9 C9          3.1399  -15.2831  -50.1475 C.ar      23 UNK        -0.0193 
     10 C10         1.9474  -14.6326  -50.4769 C.ar      23 UNK        -0.1150 
     11 C11         0.8498  -15.3402  -50.9775 C.ar      23 UNK        -0.0193 
     12 C12         0.9569  -16.7298  -51.1412 C.ar      23 UNK        -0.1150 
     13 C13         2.1506  -17.3919  -50.8364 C.ar      23 UNK        -0.0193 
     14 C14         3.2317  -16.6654  -50.3284 C.ar      23 UNK        -0.1150 
     15 C15         2.3089  -18.8783  -51.1235 C.3       23 UNK        -0.0205 
     16 S16         2.1195  -19.8970  -49.6299 S.3       23 UNK        -0.2404 
     17 C17         0.3327  -20.2611  -49.6515 C.3       23 UNK        -0.0398 
     18 CA          0.0011  -21.4901  -48.7724 C.3       11 UNK         0.1400 
     19 N           0.1381  -21.2086  -47.3414 N.am      11 UNK        -0.5000 
     20 C           0.1002  -22.1287  -46.3695 C.2       10 UNK         0.5000 
     21 O          -0.0098  -23.3356  -46.5784 O.2       10 UNK        -0.5000 
     22 CA          0.1416  -21.6171  -44.9181 C.3       10 UNK         0.1400 
     23 CB          1.5811  -21.3081  -44.4811 C.3       10 UNK        -0.1800 
     24 N          -0.7080  -20.4435  -44.7111 N.am      10 UNK        -0.5000 
     25 C          -2.0430  -20.4480  -44.8385 C.2       9 UNK         0.5000 
     26 O          -2.6999  -21.4571  -45.0957 O.2       9 UNK        -0.5000 
     27 CA         -2.7641  -19.0950  -44.6954 C.3       9 UNK         0.1400 
     28 CB         -2.9427  -18.7236  -43.2159 C.3       9 UNK        -0.1800 
     29 N          -2.0795  -18.0100  -45.3995 N.am      9 UNK        -0.5000 
     30 C          -1.8981  -17.9676  -46.7280 C.2       8 UNK         0.5000 
     31 O          -2.3321  -18.8191  -47.5021 O.2       8 UNK        -0.5000 
     32 CA         -1.0345  -16.8166  -47.2767 C.3       8 UNK         0.1400 
     33 CB         -1.8418  -15.5136  -47.3607 C.3       8 UNK        -0.1800 
     34 N           0.1738  -16.5875  -46.4857 N.am      8 UNK        -0.5000 
     35 C           1.1312  -17.5008  -46.2753 C.2       7 UNK         0.5000 
     36 O           1.1098  -18.6330  -46.7489 O.2       7 UNK        -0.5000 
     37 CA          2.2672  -17.1148  -45.3166 C.3       7 UNK         0.1400 
     38 CB          3.2903  -16.2042  -46.0050 C.3       7 UNK        -0.1800 
     39 N           1.7640  -16.4709  -44.1048 N.am      7 UNK        -0.5000 
     40 C           1.0292  -17.0905  -43.1704 C.2       6 UNK         0.5000 
     41 O           0.7287  -18.2834  -43.2127 O.2       6 UNK        -0.5000 
     42 CA          0.5136  -16.2160  -42.0141 C.3       6 UNK         0.1400 
     43 CB          1.6102  -16.0095  -40.9581 C.3       6 UNK        -0.1800 
     44 N           0.0327  -14.9128  -42.4739 N.am      6 UNK        -0.5000 
     45 C          -1.0452  -14.7310  -43.2501 C.2       5 UNK         0.5000 
     46 O          -1.7699  -15.6444  -43.6440 O.2       5 UNK        -0.5000 
     47 CA         -1.3274  -13.2856  -43.6981 C.3       5 UNK         0.1400 
     48 CB         -2.0787  -12.5128  -42.6042 C.3       5 UNK        -0.1800 
     49 N          -0.1075  -12.5590  -44.0547 N.am      5 UNK        -0.5000 
     50 C           0.7121  -12.8857  -45.0609 C.2       4 UNK         0.5000 
     51 O           0.5209  -13.8448  -45.8061 O.2       4 UNK        -0.5000 
     52 CA          1.9808  -12.0394  -45.2432 C.3       4 UNK         0.1400 
     53 CB          1.6837  -10.6981  -45.9381 C.3       4 UNK        -0.1800 
     54 N           2.7638  -11.8678  -44.0164 N.am      4 UNK        -0.5000 
     55 C           2.4798  -11.1534  -42.9177 C.2       3 UNK         0.5000 
     56 O           1.4304  -10.5269  -42.7638 O.2       3 UNK        -0.5000 
     57 CA          3.5215  -11.1613  -41.7788 C.3       3 UNK         0.1400 
     58 CB          2.9826  -11.9439  -40.5702 C.3       3 UNK        -0.1800 
     59 N           4.8171  -11.7298  -42.1605 N.am      3 UNK        -0.5000 
     60 C           5.7118  -11.1560  -42.9767 C.2       2 UNK         0.5000 
     61 O           5.5620  -10.0418  -43.4802 O.2       2 UNK        -0.5000 
     62 CA          6.9813  -11.9686  -43.3094 C.3       2 UNK         0.1400 
     63 CB          7.2352  -13.1576  -42.3548 C.3       2 UNK        -0.1800 
     64 N           6.9950  -12.4323  -44.7010 N.am      2 UNK        -0.5000 
     65 C           6.0694  -13.1817  -45.3236 C.2       1 UNK         0.5000 
     66 O           5.0163  -13.5402  -44.7947 O.2       1 UNK        -0.5000 
     67 C          -1.3825  -22.0799  -49.1110 C.2       11 UNK         0.5000 
     68 O          -1.4464  -23.0711  -49.8380 O.2       11 UNK        -0.5000 
     69 N          -2.4573  -21.5160  -48.5419 N.am      12 UNK        -0.5000 
     70 CA         -3.8223  -22.0252  -48.6819 C.3       12 UNK         0.1400 
     71 CB         -4.8119  -21.0302  -48.0605 C.3       12 UNK        -0.1800 
     72 C          -4.0041  -23.4320  -48.0820 C.2       12 UNK         0.5000 
     73 O          -4.6733  -24.2682  -48.6921 O.2       12 UNK        -0.5000 
     74 N          -3.3769  -23.6786  -46.9231 N.am      13 UNK        -0.5000 
     75 CA         -3.3329  -24.9840  -46.2656 C.3       13 UNK         0.1400 
     76 CB         -2.7694  -24.8344  -44.8447 C.3       13 UNK        -0.1800 
     77 C          -2.5329  -26.0225  -47.0728 C.2       13 UNK         0.5000 
     78 O          -3.0003  -27.1500  -47.2296 O.2       13 UNK        -0.5000 
     79 N          -1.3717  -25.6207  -47.6102 N.am      14 UNK        -0.5000 
     80 CA         -0.5210  -26.4406  -48.4793 C.3       14 UNK         0.1400 
     81 CB          0.8118  -25.7188  -48.7270 C.3       14 UNK        -0.1800 
     82 C          -1.1987  -26.8053  -49.8142 C.2       14 UNK         0.5000 
     83 O          -1.0250  -27.9230  -50.3005 O.2       14 UNK        -0.5000 
     84 N          -1.9957  -25.8738  -50.3545 N.am      15 UNK        -0.5000 
     85 CA         -2.8577  -26.0687  -51.5223 C.3       15 UNK         0.1400 
     86 CB         -3.2730  -24.6906  -52.0616 C.3       15 UNK        -0.1800 
     87 C          -4.1007  -26.9419  -51.2387 C.2       15 UNK         0.5000 
     88 O          -4.7889  -27.3204  -52.1867 O.2       15 UNK        -0.5000 
     89 N          -4.3608  -27.2463  -49.9574 N.am      16 UNK        -0.5000 
     90 CA         -5.4787  -28.0307  -49.4254 C.3       16 UNK         0.1400 
     91 CB         -5.4264  -29.4885  -49.9296 C.3       16 UNK        -0.1800 
     92 C          -6.8461  -27.3530  -49.6451 C.2       16 UNK         0.5000 
     93 O          -7.8396  -28.0384  -49.8968 O.2       16 UNK        -0.5000 
     94 N          -6.8682  -26.0168  -49.5219 N.am      17 UNK        -0.5000 
     95 CA         -8.0214  -25.1336  -49.7072 C.3       17 UNK         0.1400 
     96 CB         -9.0424  -25.3264  -48.5635 C.3       17 UNK        -0.1800 
     97 C          -8.6207  -25.2447  -51.1275 C.2       17 UNK         0.5000 
     98 O          -7.8575  -25.2885  -52.0950 O.2       17 UNK        -0.5000 
     99 N          -9.9585  -25.2496  -51.2369 N.am      18 UNK        -0.5000 
    100 CA       -10.7454  -25.2157  -52.4749 C.3       18 UNK         0.1400 
    101 CB       -10.5599  -26.5154  -53.2912 C.3       18 UNK        -0.1800 
    102 C        -10.4553  -23.9215  -53.2616 C.2       18 UNK         0.5000 
    103 O        -10.8708  -22.8501  -52.8168 O.2       18 UNK        -0.5000 
    104 N         -9.7234  -24.0266  -54.3793 N.am      19 UNK        -0.5000 
    105 CA        -9.2023  -22.8866  -55.1394 C.3       19 UNK         0.1400 
    106 CB        -8.6705  -23.3855  -56.4917 C.3       19 UNK        -0.1800 
    107 C         -8.1062  -22.1102  -54.3784 C.2       19 UNK         0.5000 
    108 O         -7.9772  -20.9010  -54.5759 O.2       19 UNK        -0.5000 
    109 N         -7.3705  -22.8192  -53.5077 N.am      20 UNK        -0.5000 
    110 CA        -6.3243  -22.3416  -52.6025 C.3       20 UNK         0.1400 
    111 CB        -6.9495  -21.4460  -51.5093 C.3       20 UNK        -0.1800 
    112 C         -5.1237  -21.6827  -53.3193 C.2       20 UNK         0.5000 
    113 O         -4.9347  -21.8562  -54.5255 O.2       20 UNK        -0.5000 
    114 N         -4.3145  -20.9580  -52.5432 N.am      21 UNK        -0.5000 
    115 CA        -3.1759  -20.1673  -52.9860 C.3       21 UNK         0.1400 
    116 CB        -1.9102  -21.0423  -53.0426 C.3       21 UNK        -0.1800 
    117 C         -3.0677  -19.0174  -51.9809 C.2       21 UNK         0.5000 
    118 O         -2.4425  -19.1849  -50.9356 O.2       21 UNK        -0.5000 
    119 N         -3.7699  -17.9158  -52.2737 N.am      22 UNK        -0.5000 
    120 CA        -3.9986  -16.7731  -51.3670 C.3       22 UNK         0.1400 
    121 C         -4.9825  -17.0851  -50.1961 C.2       22 UNK         0.5000 
    122 N         -5.8518  -18.0812  -50.3208 N.am      22 UNK        -0.7600 
    123 O         -4.9973  -16.3954  -49.1809 O.2       22 UNK        -0.5000 
    124 C124       -2.6946  -16.0721  -50.8907 C.3       23 UNK        -0.0398 
    125 S125       -1.6939  -15.4359  -52.2736 S.3       23 UNK        -0.2404 
    126 C126       -0.3961  -14.5358  -51.3573 C.3       23 UNK        -0.0205 
    127 H127       10.4954  -15.3095  -47.4698 H         1 UNK         0.0600 
    128 H128       10.7606  -14.2980  -46.0456 H         1 UNK         0.0600 
    129 H129       10.3181  -13.5566  -47.5860 H         1 UNK         0.0600 
    130 H130        8.1858  -12.9190  -47.6375 H         1 UNK         0.3000 
    131 H131        6.0414  -14.6626  -46.8558 H         1 UNK         0.0600 
    132 H132        5.5304  -11.7428  -47.5133 H         1 UNK         0.0800 
    133 H133        6.1969  -12.7421  -48.7639 H         1 UNK         0.0800 
    134 H134        4.7032  -13.8586  -50.4837 H         1 UNK         0.0800 
    135 H135        5.1713  -15.1620  -49.4137 H         1 UNK         0.0800 
    136 H136        1.8811  -13.5600  -50.3577 H         1 UNK         0.1150 
    137 H137        0.1311  -17.3041  -51.5347 H         1 UNK         0.1150 
    138 H138        4.1562  -17.1780  -50.1021 H         1 UNK         0.1150 
    139 H139        1.6089  -19.2001  -51.8958 H         1 UNK         0.0800 
    140 H140        3.3037  -19.0558  -51.5349 H         1 UNK         0.0800 
    141 H141        0.0372  -20.4424  -50.6859 H         1 UNK         0.0800 
    142 H142       -0.2202  -19.3803  -49.3212 H         1 UNK         0.0800 
    143 H143        0.7263  -22.2710  -49.0107 H         1 UNK         0.0600 
    144 H144        0.3047  -20.2358  -47.0896 H         1 UNK         0.3000 
    145 H145       -0.2378  -22.4154  -44.2770 H         1 UNK         0.0600 
    146 H146        1.6195  -21.0133  -43.4323 H         1 UNK         0.0600 
    147 H147        2.2197  -22.1845  -44.5970 H         1 UNK         0.0600 
    148 H148        2.0198  -20.5031  -45.0702 H         1 UNK         0.0600 
    149 H149       -0.2384  -19.5782  -44.4649 H         1 UNK         0.3000 
    150 H150       -3.7562  -19.2020  -45.1388 H         1 UNK         0.0600 
    151 H151       -3.4591  -19.5163  -42.6734 H         1 UNK         0.0600 
    152 H152       -3.5358  -17.8154  -43.1074 H         1 UNK         0.0600 
    153 H153       -1.9846  -18.5571  -42.7230 H         1 UNK         0.0600 
    154 H154       -1.7266  -17.2476  -44.8291 H         1 UNK         0.3000 
    155 H155       -0.7195  -17.0907  -48.2855 H         1 UNK         0.0600 
    156 H156       -2.0917  -15.1313  -46.3712 H         1 UNK         0.0600 
    157 H157       -1.2845  -14.7394  -47.8885 H         1 UNK         0.0600 
    158 H158       -2.7789  -15.6663  -47.8941 H         1 UNK         0.0600 
    159 H159        0.2860  -15.6560  -46.0921 H         1 UNK         0.3000 
    160 H160        2.7800  -18.0338  -45.0249 H         1 UNK         0.0600 
    161 H161        2.8672  -15.2236  -46.2187 H         1 UNK         0.0600 
    162 H162        3.6270  -16.6310  -46.9510 H         1 UNK         0.0600 
    163 H163        4.1714  -16.0611  -45.3800 H         1 UNK         0.0600 
    164 H164        1.9355  -15.4817  -44.0119 H         1 UNK         0.3000 
    165 H165       -0.3215  -16.7401  -41.5443 H         1 UNK         0.0600 
    166 H166        1.2372  -15.4384  -40.1077 H         1 UNK         0.0600 
    167 H167        1.9656  -16.9669  -40.5747 H         1 UNK         0.0600 
    168 H168        2.4718  -15.4803  -41.3669 H         1 UNK         0.0600 
    169 H169        0.5695  -14.1033  -42.2023 H         1 UNK         0.3000 
    170 H170       -1.9631  -13.3299  -44.5846 H         1 UNK         0.0600 
    171 H171       -1.4762  -12.4019  -41.7017 H         1 UNK         0.0600 
    172 H172       -2.3550  -11.5154  -42.9466 H         1 UNK         0.0600 
    173 H173       -2.9994  -13.0269  -42.3250 H         1 UNK         0.0600 
    174 H174        0.1494  -11.7589  -43.4831 H         1 UNK         0.3000 
    175 H175        2.6288  -12.6072  -45.9073 H         1 UNK         0.0600 
    176 H176        2.6018  -10.1391  -46.1192 H         1 UNK         0.0600 
    177 H177        1.0160  -10.0682  -45.3503 H         1 UNK         0.0600 
    178 H178        1.2075  -10.8628  -46.9054 H         1 UNK         0.0600 
    179 H179        3.6416  -12.3803  -44.0234 H         1 UNK         0.3000 
    180 H180        3.6779  -10.1241  -41.4755 H         1 UNK         0.0600 
    181 H181        2.8159  -12.9940  -40.8121 H         1 UNK         0.0600 
    182 H182        2.0330  -11.5316  -40.2261 H         1 UNK         0.0600 
    183 H183        3.6759  -11.8988  -39.7301 H         1 UNK         0.0600 
    184 H184        5.0197  -12.6562  -41.8139 H         1 UNK         0.3000 
    185 H185        7.8194  -11.2784  -43.2025 H         1 UNK         0.0600 
    186 H186        7.2682  -12.8296  -41.3150 H         1 UNK         0.0600 
    187 H187        6.4697  -13.9297  -42.4396 H         1 UNK         0.0600 
    188 H188        8.1949  -13.6274  -42.5712 H         1 UNK         0.0600 
    189 H189        7.8133  -12.1739  -45.2334 H         1 UNK         0.3000 
    190 H190       -2.3412  -20.6566  -48.0097 H         1 UNK         0.3000 
    191 H191       -4.0367  -22.0959  -49.7492 H         1 UNK         0.0600 
    192 H192       -4.7331  -20.0522  -48.5354 H         1 UNK         0.0600 
    193 H193       -5.8406  -21.3721  -48.1790 H         1 UNK         0.0600 
    194 H194       -4.6304  -20.8958  -46.9939 H         1 UNK         0.0600 
    195 H195       -2.8949  -22.9160  -46.4569 H         1 UNK         0.3000 
    196 H196       -4.3589  -25.3489  -46.1826 H         1 UNK         0.0600 
    197 H197       -2.7568  -25.7942  -44.3269 H         1 UNK         0.0600 
    198 H198       -3.3772  -24.1517  -44.2506 H         1 UNK         0.0600 
    199 H199       -1.7491  -24.4516  -44.8513 H         1 UNK         0.0600 
    200 H200       -1.0250  -24.6908  -47.3856 H         1 UNK         0.3000 
    201 H201       -0.3090  -27.3727  -47.9516 H         1 UNK         0.0600 
    202 H202        1.3341  -25.5229  -47.7904 H         1 UNK         0.0600 
    203 H203        0.6644  -24.7650  -49.2337 H         1 UNK         0.0600 
    204 H204        1.4739  -26.3225  -49.3488 H         1 UNK         0.0600 
    205 H205       -2.0094  -24.9485  -49.9348 H         1 UNK         0.3000 
    206 H206       -2.2775  -26.5752  -52.2961 H         1 UNK         0.0600 
    207 H207       -2.4025  -24.1036  -52.3544 H         1 UNK         0.0600 
    208 H208       -3.9111  -24.7850  -52.9412 H         1 UNK         0.0600 
    209 H209       -3.8223  -24.1197  -51.3135 H         1 UNK         0.0600 
    210 H210       -3.7281  -26.8855  -49.2543 H         1 UNK         0.3000 
    211 H211       -5.3355  -28.0594  -48.3447 H         1 UNK         0.0600 
    212 H212       -5.6383  -29.5583  -50.9967 H         1 UNK         0.0600 
    213 H213       -6.1600  -30.1068  -49.4112 H         1 UNK         0.0600 
    214 H214       -4.4465  -29.9315  -49.7514 H         1 UNK         0.0600 
    215 H215       -5.9920  -25.5406  -49.3224 H         1 UNK         0.3000 
    216 H216       -7.6306  -24.1182  -49.6282 H         1 UNK         0.0600 
    217 H217       -9.8187  -24.5610  -48.5901 H         1 UNK         0.0600 
    218 H218       -8.5555  -25.2475  -47.5914 H         1 UNK         0.0600 
    219 H219       -9.5299  -26.3010  -48.6096 H         1 UNK         0.0600 
    220 H220      -10.4971  -25.1908  -50.3844 H         1 UNK         0.3000 
    221 H221      -11.7938  -25.1646  -52.1772 H         1 UNK         0.0600 
    222 H222       -9.5270  -26.6761  -53.6006 H         1 UNK         0.0600 
    223 H223      -10.8626  -27.3841  -52.7064 H         1 UNK         0.0600 
    224 H224      -11.1774  -26.5037  -54.1901 H         1 UNK         0.0600 
    225 H225       -9.4094  -24.9436  -54.6620 H         1 UNK         0.3000 
    226 H226      -10.0269  -22.1963  -55.3298 H         1 UNK         0.0600 
    227 H227       -9.4547  -23.8771  -57.0677 H         1 UNK         0.0600 
    228 H228       -8.2972  -22.5559  -57.0935 H         1 UNK         0.0600 
    229 H229       -7.8505  -24.0936  -56.3651 H         1 UNK         0.0600 
    230 H230       -7.5837  -23.8064  -53.4058 H         1 UNK         0.3000 
    231 H231       -5.9332  -23.2335  -52.1123 H         1 UNK         0.0600 
    232 H232       -7.2710  -20.4848  -51.9114 H         1 UNK         0.0600 
    233 H233       -6.2515  -21.2509  -50.6962 H         1 UNK         0.0600 
    234 H234       -7.8227  -21.9242  -51.0649 H         1 UNK         0.0600 
    235 H235       -4.5267  -20.8673  -51.5604 H         1 UNK         0.3000 
    236 H236       -3.3650  -19.7518  -53.9782 H         1 UNK         0.0600 
    237 H237       -1.0308  -20.4424  -53.2793 H         1 UNK         0.0600 
    238 H238       -1.7237  -21.5440  -52.0937 H         1 UNK         0.0600 
    239 H239       -1.9989  -21.8109  -53.8103 H         1 UNK         0.0600 
    240 H240       -4.2665  -17.8756  -53.1521 H         1 UNK         0.3000 
    241 H241       -4.5393  -16.0409  -51.9676 H         1 UNK         0.0600 
    242 H242       -5.9087  -18.6063  -51.1757 H         1 UNK         0.3800 
    243 H243       -6.5008  -18.2592  -49.5713 H         1 UNK         0.3800 
    244 H244       -2.9421  -15.2183  -50.2587 H         1 UNK         0.0800 
    245 H245       -2.0869  -16.7387  -50.2789 H         1 UNK         0.0800 
    246 H246       -0.0820  -13.7010  -51.9856 H         1 UNK         0.0800 
    247 H247       -0.8216  -14.0913  -50.4566 H         1 UNK         0.0800 
@<TRIPOS>BOND
     1    1    2 1    
     2    1  127 1    
     3    1  128 1    
     4    1  129 1    
     5    2    3 2    
     6    2    4 am   BACKBONE|DICT|INTERRES
     7    4    5 1    
     8    4  130 1    
     9    5    6 1    
    10    5   65 1    
    11    5  131 1    
    12    6    7 1    
    13    6  132 1    
    14    6  133 1    
    15    7    8 1    
    16    8    9 1    
    17    8  134 1    
    18    8  135 1    
    19    9   10 ar   
    20    9   14 ar   
    21   10   11 ar   
    22   10  136 1    
    23   11   12 ar   
    24   11  126 1    
    25   12   13 ar   
    26   12  137 1    
    27   13   14 ar   
    28   13   15 1    
    29   14  138 1    
    30   15   16 1    
    31   15  139 1    
    32   15  140 1    
    33   16   17 1    
    34   17   18 1    
    35   17  141 1    
    36   17  142 1    
    37   18   19 1    
    38   18   67 1    
    39   18  143 1    
    40   19   20 am   BACKBONE|DICT|INTERRES
    41   19  144 1    
    42   20   21 2    
    43   20   22 1    
    44   22   23 1    
    45   22   24 1    
    46   22  145 1    
    47   23  146 1    
    48   23  147 1    
    49   23  148 1    
    50   24   25 am   BACKBONE|DICT|INTERRES
    51   24  149 1    
    52   25   26 2    
    53   25   27 1    
    54   27   28 1    
    55   27   29 1    
    56   27  150 1    
    57   28  151 1    
    58   28  152 1    
    59   28  153 1    
    60   29   30 am   BACKBONE|DICT|INTERRES
    61   29  154 1    
    62   30   31 2    
    63   30   32 1    
    64   32   33 1    
    65   32   34 1    
    66   32  155 1    
    67   33  156 1    
    68   33  157 1    
    69   33  158 1    
    70   34   35 am   BACKBONE|DICT|INTERRES
    71   34  159 1    
    72   35   36 2    
    73   35   37 1    
    74   37   38 1    
    75   37   39 1    
    76   37  160 1    
    77   38  161 1    
    78   38  162 1    
    79   38  163 1    
    80   39   40 am   BACKBONE|DICT|INTERRES
    81   39  164 1    
    82   40   41 2    
    83   40   42 1    
    84   42   43 1    
    85   42   44 1    
    86   42  165 1    
    87   43  166 1    
    88   43  167 1    
    89   43  168 1    
    90   44   45 am   BACKBONE|DICT|INTERRES
    91   44  169 1    
    92   45   46 2    
    93   45   47 1    
    94   47   48 1    
    95   47   49 1    
    96   47  170 1    
    97   48  171 1    
    98   48  172 1    
    99   48  173 1    
   100   49   50 am   BACKBONE|DICT|INTERRES
   101   49  174 1    
   102   50   51 2    
   103   50   52 1    
   104   52   53 1    
   105   52   54 1    
   106   52  175 1    
   107   53  176 1    
   108   53  177 1    
   109   53  178 1    
   110   54   55 am   BACKBONE|DICT|INTERRES
   111   54  179 1    
   112   55   56 2    
   113   55   57 1    
   114   57   58 1    
   115   57   59 1    
   116   57  180 1    
   117   58  181 1    
   118   58  182 1    
   119   58  183 1    
   120   59   60 am   BACKBONE|DICT|INTERRES
   121   59  184 1    
   122   60   61 2    
   123   60   62 1    
   124   62   63 1    
   125   62   64 1    
   126   62  185 1    
   127   63  186 1    
   128   63  187 1    
   129   63  188 1    
   130   64   65 am   BACKBONE|DICT|INTERRES
   131   64  189 1    
   132   65   66 2    
   133   67   68 2    
   134   67   69 am   BACKBONE|DICT|INTERRES
   135   69   70 1    
   136   69  190 1    
   137   70   71 1    
   138   70   72 1    
   139   70  191 1    
   140   71  192 1    
   141   71  193 1    
   142   71  194 1    
   143   72   73 2    
   144   72   74 am   BACKBONE|DICT|INTERRES
   145   74   75 1    
   146   74  195 1    
   147   75   76 1    
   148   75   77 1    
   149   75  196 1    
   150   76  197 1    
   151   76  198 1    
   152   76  199 1    
   153   77   78 2    
   154   77   79 am   BACKBONE|DICT|INTERRES
   155   79   80 1    
   156   79  200 1    
   157   80   81 1    
   158   80   82 1    
   159   80  201 1    
   160   81  202 1    
   161   81  203 1    
   162   81  204 1    
   163   82   83 2    
   164   82   84 am   BACKBONE|DICT|INTERRES
   165   84   85 1    
   166   84  205 1    
   167   85   86 1    
   168   85   87 1    
   169   85  206 1    
   170   86  207 1    
   171   86  208 1    
   172   86  209 1    
   173   87   88 2    
   174   87   89 am   BACKBONE|DICT|INTERRES
   175   89   90 1    
   176   89  210 1    
   177   90   91 1    
   178   90   92 1    
   179   90  211 1    
   180   91  212 1    
   181   91  213 1    
   182   91  214 1    
   183   92   93 2    
   184   92   94 am   BACKBONE|DICT|INTERRES
   185   94   95 1    
   186   94  215 1    
   187   95   96 1    
   188   95   97 1    
   189   95  216 1    
   190   96  217 1    
   191   96  218 1    
   192   96  219 1    
   193   97   98 2    
   194   97   99 am   BACKBONE|DICT|INTERRES
   195   99  100 1    
   196   99  220 1    
   197  100  101 1    
   198  100  102 1    
   199  100  221 1    
   200  101  222 1    
   201  101  223 1    
   202  101  224 1    
   203  102  103 2    
   204  102  104 am   BACKBONE|DICT|INTERRES
   205  104  105 1    
   206  104  225 1    
   207  105  106 1    
   208  105  107 1    
   209  105  226 1    
   210  106  227 1    
   211  106  228 1    
   212  106  229 1    
   213  107  108 2    
   214  107  109 am   BACKBONE|DICT|INTERRES
   215  109  110 1    
   216  109  230 1    
   217  110  111 1    
   218  110  112 1    
   219  110  231 1    
   220  111  232 1    
   221  111  233 1    
   222  111  234 1    
   223  112  113 2    
   224  112  114 am   BACKBONE|DICT|INTERRES
   225  114  115 1    
   226  114  235 1    
   227  115  116 1    
   228  115  117 1    
   229  115  236 1    
   230  116  237 1    
   231  116  238 1    
   232  116  239 1    
   233  117  118 2    
   234  117  119 am   BACKBONE|DICT|INTERRES
   235  119  120 1    
   236  119  240 1    
   237  120  121 1    
   238  120  124 1    
   239  120  241 1    
   240  121  122 am   BACKBONE|DICT|INTERRES
   241  121  123 2    
   242  122  242 1    
   243  122  243 1    
   244  124  125 1    
   245  124  244 1    
   246  124  245 1    
   247  125  126 1    
   248  126  246 1    
   249  126  247 1    
@<TRIPOS>SUBSTRUCTURE
     1 UNK         1 GROUP             0       ****    0 ROOT    
