@<TRIPOS>MOLECULE
3R540
247   249    1
SMALL
USER_CHARGES


@<TRIPOS>ATOM
      1 CA          0.5816  -11.0070  -48.8854 C.3       0 UNK        -0.1800 
      2 C           1.0344  -12.3870  -48.4312 C.2       0 UNK         0.5000 
      3 O           0.4336  -12.9571  -47.5229 O.2       0 UNK        -0.5000 
      4 N           2.1021  -12.9120  -49.0466 N.am      1 UNK        -0.5000 
      5 CA          2.7263  -14.2308  -48.8345 C.3       1 UNK         0.1400 
      6 C6          1.7681  -15.4381  -49.0186 C.3       23 UNK        -0.0398 
      7 S7          1.0081  -15.4845  -50.6756 S.3       23 UNK        -0.2404 
      8 C8          2.2740  -16.3844  -51.6247 C.3       23 UNK        -0.0205 
      9 C9          2.2427  -17.8810  -51.3548 C.ar      23 UNK        -0.0193 
     10 C10         1.3153  -18.6860  -52.0215 C.ar      23 UNK        -0.1150 
     11 C11         1.2992  -20.0716  -51.8286 C.ar      23 UNK        -0.0193 
     12 C12         2.2219  -20.6391  -50.9418 C.ar      23 UNK        -0.1150 
     13 C13         3.1558  -19.8480  -50.2629 C.ar      23 UNK        -0.0193 
     14 C14         3.1636  -18.4672  -50.4809 C.ar      23 UNK        -0.1150 
     15 C15         4.2045  -20.5110  -49.3718 C.3       23 UNK        -0.0205 
     16 S16         4.4403  -19.7394  -47.7306 S.3       23 UNK        -0.2404 
     17 C17         2.7946  -19.8177  -46.9474 C.3       23 UNK        -0.0398 
     18 CA          2.3704  -21.2386  -46.4724 C.3       11 UNK         0.1400 
     19 N           1.6102  -21.2026  -45.2152 N.am      11 UNK        -0.5000 
     20 C           1.1759  -22.2774  -44.5375 C.2       10 UNK         0.5000 
     21 O           1.4679  -23.4354  -44.8353 O.2       10 UNK        -0.5000 
     22 CA          0.2231  -22.0252  -43.3533 C.3       10 UNK         0.1400 
     23 CB          1.0084  -21.7406  -42.0645 C.3       10 UNK        -0.1800 
     24 N          -0.7187  -20.9355  -43.6164 N.am      10 UNK        -0.5000 
     25 C          -1.7391  -21.0109  -44.4840 C.2       9 UNK         0.5000 
     26 O          -2.0501  -22.0369  -45.0852 O.2       9 UNK        -0.5000 
     27 CA         -2.5376  -19.7218  -44.7508 C.3       9 UNK         0.1400 
     28 CB         -3.6983  -19.5887  -43.7545 C.3       9 UNK        -0.1800 
     29 N          -1.7137  -18.5137  -44.7092 N.am      9 UNK        -0.5000 
     30 C          -0.7131  -18.2410  -45.5587 C.2       8 UNK         0.5000 
     31 O          -0.4015  -18.9656  -46.5035 O.2       8 UNK        -0.5000 
     32 CA          0.1237  -16.9848  -45.2568 C.3       8 UNK         0.1400 
     33 CB         -0.6004  -15.7127  -45.7166 C.3       8 UNK        -0.1800 
     34 N           0.4554  -16.8749  -43.8357 N.am      8 UNK        -0.5000 
     35 C           1.2259  -17.7452  -43.1683 C.2       7 UNK         0.5000 
     36 O           1.7828  -18.7049  -43.6993 O.2       7 UNK        -0.5000 
     37 CA          1.3483  -17.5456  -41.6474 C.3       7 UNK         0.1400 
     38 CB          2.4524  -16.5383  -41.2952 C.3       7 UNK        -0.1800 
     39 N           0.0843  -17.1169  -41.0513 N.am      7 UNK        -0.5000 
     40 C          -0.9868  -17.9096  -40.9086 C.2       6 UNK         0.5000 
     41 O          -1.0042  -19.0980  -41.2270 O.2       6 UNK        -0.5000 
     42 CA         -2.2631  -17.2492  -40.3565 C.3       6 UNK         0.1400 
     43 CB         -2.2293  -17.2030  -38.8217 C.3       6 UNK        -0.1800 
     44 N          -2.4633  -15.8963  -40.8788 N.am      6 UNK        -0.5000 
     45 C          -2.7260  -15.6136  -42.1627 C.2       5 UNK         0.5000 
     46 O          -2.8667  -16.4700  -43.0341 O.2       5 UNK        -0.5000 
     47 CA         -2.7949  -14.1242  -42.5460 C.3       5 UNK         0.1400 
     48 CB         -4.2186  -13.5828  -42.3501 C.3       5 UNK        -0.1800 
     49 N          -1.8493  -13.2886  -41.8005 N.am      5 UNK        -0.5000 
     50 C          -0.5167  -13.4039  -41.8633 C.2       4 UNK         0.5000 
     51 O           0.0702  -14.2573  -42.5341 O.2       4 UNK        -0.5000 
     52 CA          0.2899  -12.4389  -40.9881 C.3       4 UNK         0.1400 
     53 CB          0.4879  -13.0234  -39.5795 C.3       4 UNK        -0.1800 
     54 N           1.5920  -12.2118  -41.6041 N.am      4 UNK        -0.5000 
     55 C           2.2515  -11.0475  -41.6140 C.2       3 UNK         0.5000 
     56 O           1.8346  -10.0272  -41.0635 O.2       3 UNK        -0.5000 
     57 CA          3.6111  -11.0004  -42.3435 C.3       3 UNK         0.1400 
     58 CB          4.7595  -10.8939  -41.3271 C.3       3 UNK        -0.1800 
     59 N           3.8679  -12.1498  -43.2158 N.am      3 UNK        -0.5000 
     60 C           3.2791  -12.3639  -44.3984 C.2       2 UNK         0.5000 
     61 O           2.4341  -11.6116  -44.8906 O.2       2 UNK        -0.5000 
     62 CA          3.7089  -13.6394  -45.1393 C.3       2 UNK         0.1400 
     63 CB          3.3281  -14.9013  -44.3467 C.3       2 UNK        -0.1800 
     64 N           3.0766  -13.6745  -46.4517 N.am      2 UNK        -0.5000 
     65 C           3.5139  -14.3576  -47.5125 C.2       1 UNK         0.5000 
     66 O           4.5222  -15.0645  -47.4889 O.2       1 UNK        -0.5000 
     67 C           1.5559  -21.9502  -47.5693 C.2       11 UNK         0.5000 
     68 O           2.0166  -22.9227  -48.1672 O.2       11 UNK        -0.5000 
     69 N           0.3325  -21.4555  -47.7762 N.am      12 UNK        -0.5000 
     70 CA         -0.5893  -21.8811  -48.8185 C.3       12 UNK         0.1400 
     71 CB         -1.3932  -20.6520  -49.2576 C.3       12 UNK        -0.1800 
     72 C          -1.5042  -23.0426  -48.3895 C.2       12 UNK         0.5000 
     73 O          -2.5840  -23.1961  -48.9620 O.2       12 UNK        -0.5000 
     74 N          -1.0823  -23.8524  -47.4086 N.am      13 UNK        -0.5000 
     75 CA         -1.8524  -24.9743  -46.8616 C.3       13 UNK         0.1400 
     76 CB         -1.1087  -25.5683  -45.6574 C.3       13 UNK        -0.1800 
     77 C          -2.1613  -26.0633  -47.9059 C.2       13 UNK         0.5000 
     78 O          -3.2704  -26.5977  -47.9230 O.2       13 UNK        -0.5000 
     79 N          -1.1999  -26.3153  -48.8058 N.am      14 UNK        -0.5000 
     80 CA         -1.3365  -27.2144  -49.9566 C.3       14 UNK         0.1400 
     81 CB          0.0561  -27.4629  -50.5557 C.3       14 UNK        -0.1800 
     82 C          -2.3017  -26.6855  -51.0395 C.2       14 UNK         0.5000 
     83 O          -2.7854  -27.4692  -51.8562 O.2       14 UNK        -0.5000 
     84 N          -2.5729  -25.3750  -51.0140 N.am      15 UNK        -0.5000 
     85 CA         -3.5110  -24.6657  -51.8805 C.3       15 UNK         0.1400 
     86 CB         -2.8154  -23.3938  -52.3954 C.3       15 UNK        -0.1800 
     87 C          -4.8255  -24.3374  -51.1414 C.2       15 UNK         0.5000 
     88 O          -5.5648  -23.4613  -51.5908 O.2       15 UNK        -0.5000 
     89 N          -5.0832  -25.0208  -50.0137 N.am      16 UNK        -0.5000 
     90 CA         -6.2555  -24.8953  -49.1408 C.3       16 UNK         0.1400 
     91 CB         -7.5190  -25.4226  -49.8515 C.3       16 UNK        -0.1800 
     92 C          -6.4279  -23.4749  -48.5623 C.2       16 UNK         0.5000 
     93 O          -7.5363  -22.9375  -48.5558 O.2       16 UNK        -0.5000 
     94 N          -5.3092  -22.8992  -48.0985 N.am      17 UNK        -0.5000 
     95 CA         -5.1542  -21.5327  -47.5911 C.3       17 UNK         0.1400 
     96 CB         -6.0077  -21.2867  -46.3294 C.3       17 UNK        -0.1800 
     97 C          -5.3652  -20.4855  -48.7026 C.2       17 UNK         0.5000 
     98 O          -6.0693  -19.4944  -48.5035 O.2       17 UNK        -0.5000 
     99 N          -4.7250  -20.7431  -49.8521 N.am      18 UNK        -0.5000 
    100 CA        -4.6968  -19.9217  -51.0656 C.3       18 UNK         0.1400 
    101 CB        -4.0088  -18.5628  -50.8081 C.3       18 UNK        -0.1800 
    102 C         -6.0802  -19.7751  -51.7264 C.2       18 UNK         0.5000 
    103 O         -6.4760  -18.6719  -52.1103 O.2       18 UNK        -0.5000 
    104 N         -6.7848  -20.9008  -51.8940 N.am      19 UNK        -0.5000 
    105 CA        -8.0674  -20.9964  -52.5928 C.3       19 UNK         0.1400 
    106 CB        -8.8117  -22.2449  -52.0888 C.3       19 UNK        -0.1800 
    107 C         -7.8560  -21.0076  -54.1220 C.2       19 UNK         0.5000 
    108 O         -8.1727  -21.9948  -54.7865 O.2       19 UNK        -0.5000 
    109 N         -7.2500  -19.9292  -54.6406 N.am      20 UNK        -0.5000 
    110 CA        -6.8414  -19.6562  -56.0286 C.3       20 UNK         0.1400 
    111 CB        -8.0549  -19.6685  -56.9775 C.3       20 UNK        -0.1800 
    112 C         -5.7050  -20.5508  -56.5732 C.2       20 UNK         0.5000 
    113 O         -5.0163  -20.1431  -57.5099 O.2       20 UNK        -0.5000 
    114 N         -5.4995  -21.7301  -55.9740 N.am      21 UNK        -0.5000 
    115 CA        -4.5381  -22.7606  -56.3728 C.3       21 UNK         0.1400 
    116 CB        -4.8135  -24.0326  -55.5545 C.3       21 UNK        -0.1800 
    117 C         -3.0508  -22.3492  -56.3096 C.2       21 UNK         0.5000 
    118 O         -2.2222  -23.0374  -56.9077 O.2       21 UNK        -0.5000 
    119 N         -2.7317  -21.2342  -55.6359 N.am      22 UNK        -0.5000 
    120 CA        -1.4122  -20.5795  -55.7173 C.3       22 UNK         0.1400 
    121 C         -1.1309  -19.8901  -57.0877 C.2       22 UNK         0.5000 
    122 N         -2.1237  -19.6500  -57.9381 N.am      22 UNK        -0.7600 
    123 O          0.0162  -19.5707  -57.3875 O.2       22 UNK        -0.5000 
    124 C124       -1.1562  -19.5763  -54.5611 C.3       23 UNK        -0.0398 
    125 S125       -1.3202  -20.3111  -52.9008 S.3       23 UNK        -0.2404 
    126 C126        0.3520  -20.9868  -52.6079 C.3       23 UNK        -0.0205 
    127 H127        1.2041  -10.6199  -49.6924 H         1 UNK         0.0600 
    128 H128        0.6283  -10.3053  -48.0525 H         1 UNK         0.0600 
    129 H129       -0.4481  -11.0490  -49.2403 H         1 UNK         0.0600 
    130 H130        2.5494  -12.3585  -49.7639 H         1 UNK         0.3000 
    131 H131        3.4817  -14.3023  -49.6184 H         1 UNK         0.0600 
    132 H132        2.2896  -16.3796  -48.8432 H         1 UNK         0.0800 
    133 H133        0.9675  -15.4088  -48.2806 H         1 UNK         0.0800 
    134 H134        2.1015  -16.2078  -52.6874 H         1 UNK         0.0800 
    135 H135        3.2618  -15.9745  -51.4102 H         1 UNK         0.0800 
    136 H136        0.6182  -18.2232  -52.7034 H         1 UNK         0.1150 
    137 H137        2.2325  -21.7108  -50.7998 H         1 UNK         0.1150 
    138 H138        3.8997  -17.8521  -49.9825 H         1 UNK         0.1150 
    139 H139        3.9880  -21.5702  -49.2359 H         1 UNK         0.0800 
    140 H140        5.1588  -20.4744  -49.8984 H         1 UNK         0.0800 
    141 H141        2.0598  -19.3502  -47.6059 H         1 UNK         0.0800 
    142 H142        2.8582  -19.1504  -46.0877 H         1 UNK         0.0800 
    143 H143        3.2665  -21.8315  -46.2784 H         1 UNK         0.0600 
    144 H144        1.3804  -20.2833  -44.8516 H         1 UNK         0.3000 
    145 H145       -0.3556  -22.9376  -43.1948 H         1 UNK         0.0600 
    146 H146        0.3378  -21.6064  -41.2156 H         1 UNK         0.0600 
    147 H147        1.6745  -22.5702  -41.8247 H         1 UNK         0.0600 
    148 H148        1.6220  -20.8447  -42.1513 H         1 UNK         0.0600 
    149 H149       -0.5776  -20.0743  -43.1024 H         1 UNK         0.3000 
    150 H150       -2.9588  -19.7990  -45.7551 H         1 UNK         0.0600 
    151 H151       -4.3327  -18.7370  -44.0006 H         1 UNK         0.0600 
    152 H152       -4.3286  -20.4787  -43.7652 H         1 UNK         0.0600 
    153 H153       -3.3383  -19.4542  -42.7343 H         1 UNK         0.0600 
    154 H154       -1.9433  -17.8345  -43.9883 H         1 UNK         0.3000 
    155 H155        1.0590  -17.0626  -45.8153 H         1 UNK         0.0600 
    156 H156       -1.5414  -15.5687  -45.1880 H         1 UNK         0.0600 
    157 H157       -0.8318  -15.7559  -46.7811 H         1 UNK         0.0600 
    158 H158        0.0150  -14.8283  -45.5498 H         1 UNK         0.0600 
    159 H159        0.0790  -16.0753  -43.3363 H         1 UNK         0.3000 
    160 H160        1.6243  -18.5076  -41.2107 H         1 UNK         0.0600 
    161 H161        2.2153  -15.5345  -41.6455 H         1 UNK         0.0600 
    162 H162        3.4032  -16.8301  -41.7429 H         1 UNK         0.0600 
    163 H163        2.6047  -16.4855  -40.2172 H         1 UNK         0.0600 
    164 H164        0.0004  -16.1396  -40.8160 H         1 UNK         0.3000 
    165 H165       -3.1142  -17.8616  -40.6619 H         1 UNK         0.0600 
    166 H166       -3.1611  -16.8059  -38.4188 H         1 UNK         0.0600 
    167 H167       -2.0959  -18.2022  -38.4047 H         1 UNK         0.0600 
    168 H168       -1.4119  -16.5815  -38.4535 H         1 UNK         0.0600 
    169 H169       -2.3675  -15.1326  -40.2262 H         1 UNK         0.3000 
    170 H170       -2.5443  -14.0440  -43.6055 H         1 UNK         0.0600 
    171 H171       -4.9419  -14.1752  -42.9122 H         1 UNK         0.0600 
    172 H172       -4.5190  -13.6061  -41.3018 H         1 UNK         0.0600 
    173 H173       -4.3013  -12.5540  -42.7010 H         1 UNK         0.0600 
    174 H174       -2.2519  -12.5704  -41.2156 H         1 UNK         0.3000 
    175 H175       -0.2621  -11.4991  -40.9186 H         1 UNK         0.0600 
    176 H176        1.0348  -13.9668  -39.6084 H         1 UNK         0.0600 
    177 H177        1.0450  -12.3350  -38.9438 H         1 UNK         0.0600 
    178 H178       -0.4696  -13.2111  -39.0921 H         1 UNK         0.0600 
    179 H179        1.9533  -12.9913  -42.1363 H         1 UNK         0.3000 
    180 H180        3.6163  -10.0972  -42.9574 H         1 UNK         0.0600 
    181 H181        4.8116  -11.7747  -40.6858 H         1 UNK         0.0600 
    182 H182        4.6319  -10.0247  -40.6803 H         1 UNK         0.0600 
    183 H183        5.7217  -10.7841  -41.8277 H         1 UNK         0.0600 
    184 H184        4.5509  -12.8148  -42.8823 H         1 UNK         0.3000 
    185 H185        4.7927  -13.6014  -45.2677 H         1 UNK         0.0600 
    186 H186        3.8805  -14.9585  -43.4091 H         1 UNK         0.0600 
    187 H187        2.2656  -14.9015  -44.1084 H         1 UNK         0.0600 
    188 H188        3.5472  -15.8131  -44.9025 H         1 UNK         0.0600 
    189 H189        2.2410  -13.1032  -46.5421 H         1 UNK         0.3000 
    190 H190        0.0331  -20.6550  -47.2233 H         1 UNK         0.3000 
    191 H191       -0.0194  -22.2334  -49.6792 H         1 UNK         0.0600 
    192 H192       -0.7360  -19.8339  -49.5543 H         1 UNK         0.0600 
    193 H193       -2.0154  -20.8873  -50.1180 H         1 UNK         0.0600 
    194 H194       -2.0427  -20.2874  -48.4611 H         1 UNK         0.0600 
    195 H195       -0.1931  -23.6540  -46.9719 H         1 UNK         0.3000 
    196 H196       -2.8065  -24.5775  -46.5082 H         1 UNK         0.0600 
    197 H197       -1.6512  -26.4178  -45.2405 H         1 UNK         0.0600 
    198 H198       -1.0036  -24.8306  -44.8619 H         1 UNK         0.0600 
    199 H199       -0.1104  -25.9135  -45.9289 H         1 UNK         0.0600 
    200 H200       -0.3236  -25.8210  -48.7187 H         1 UNK         0.3000 
    201 H201       -1.7335  -28.1672  -49.6003 H         1 UNK         0.0600 
    202 H202        0.7298  -27.9026  -49.8199 H         1 UNK         0.0600 
    203 H203        0.5092  -26.5389  -50.9175 H         1 UNK         0.0600 
    204 H204        0.0023  -28.1539  -51.3980 H         1 UNK         0.0600 
    205 H205       -2.1786  -24.8168  -50.2675 H         1 UNK         0.3000 
    206 H206       -3.7760  -25.2830  -52.7407 H         1 UNK         0.0600 
    207 H207       -1.9451  -23.6407  -53.0034 H         1 UNK         0.0600 
    208 H208       -3.4746  -22.7845  -53.0127 H         1 UNK         0.0600 
    209 H209       -2.4773  -22.7647  -51.5737 H         1 UNK         0.0600 
    210 H210       -4.3897  -25.6885  -49.7023 H         1 UNK         0.3000 
    211 H211       -6.0677  -25.5460  -48.2855 H         1 UNK         0.0600 
    212 H212       -7.7882  -24.8070  -50.7088 H         1 UNK         0.0600 
    213 H213       -8.3740  -25.4328  -49.1746 H         1 UNK         0.0600 
    214 H214       -7.3741  -26.4433  -50.2051 H         1 UNK         0.0600 
    215 H215       -4.4347  -23.3946  -48.2388 H         1 UNK         0.3000 
    216 H216       -4.1096  -21.4438  -47.2898 H         1 UNK         0.0600 
    217 H217       -5.7900  -20.3084  -45.8999 H         1 UNK         0.0600 
    218 H218       -5.7984  -22.0318  -45.5619 H         1 UNK         0.0600 
    219 H219       -7.0760  -21.3135  -46.5440 H         1 UNK         0.0600 
    220 H220       -4.2069  -21.6102  -49.9023 H         1 UNK         0.3000 
    221 H221       -4.0834  -20.4681  -51.7822 H         1 UNK         0.0600 
    222 H222       -4.5914  -17.9319  -50.1366 H         1 UNK         0.0600 
    223 H223       -3.0190  -18.6879  -50.3729 H         1 UNK         0.0600 
    224 H224       -3.8774  -18.0123  -51.7403 H         1 UNK         0.0600 
    225 H225       -6.3671  -21.7870  -51.6155 H         1 UNK         0.3000 
    226 H226       -8.6763  -20.1238  -52.3480 H         1 UNK         0.0600 
    227 H227       -8.9447  -22.2161  -51.0070 H         1 UNK         0.0600 
    228 H228       -9.8026  -22.3178  -52.5382 H         1 UNK         0.0600 
    229 H229       -8.2706  -23.1589  -52.3347 H         1 UNK         0.0600 
    230 H230       -6.9918  -19.2090  -53.9721 H         1 UNK         0.3000 
    231 H231       -6.4448  -18.6399  -56.0198 H         1 UNK         0.0600 
    232 H232       -8.4888  -20.6641  -57.0730 H         1 UNK         0.0600 
    233 H233       -7.7686  -19.3433  -57.9785 H         1 UNK         0.0600 
    234 H234       -8.8358  -18.9930  -56.6283 H         1 UNK         0.0600 
    235 H235       -6.1669  -21.9953  -55.2601 H         1 UNK         0.3000 
    236 H236       -4.7375  -22.9947  -57.4204 H         1 UNK         0.0600 
    237 H237       -5.7727  -24.4704  -55.8312 H         1 UNK         0.0600 
    238 H238       -4.0506  -24.7936  -55.7240 H         1 UNK         0.0600 
    239 H239       -4.8476  -23.8263  -54.4866 H         1 UNK         0.0600 
    240 H240       -3.4630  -20.7245  -55.1654 H         1 UNK         0.3000 
    241 H241       -0.6603  -21.3655  -55.6250 H         1 UNK         0.0600 
    242 H242       -1.9189  -19.2071  -58.8197 H         1 UNK         0.3800 
    243 H243       -3.0844  -19.8934  -57.7163 H         1 UNK         0.3800 
    244 H244       -0.1598  -19.1412  -54.6511 H         1 UNK         0.0800 
    245 H245       -1.8562  -18.7418  -54.6261 H         1 UNK         0.0800 
    246 H246        0.8171  -21.2465  -53.5593 H         1 UNK         0.0800 
    247 H247        0.2273  -21.9273  -52.0703 H         1 UNK         0.0800 
@<TRIPOS>BOND
     1    1    2 1    
     2    1  127 1    
     3    1  128 1    
     4    1  129 1    
     5    2    3 2    
     6    2    4 am   BACKBONE|DICT|INTERRES
     7    4    5 1    
     8    4  130 1    
     9    5    6 1    
    10    5   65 1    
    11    5  131 1    
    12    6    7 1    
    13    6  132 1    
    14    6  133 1    
    15    7    8 1    
    16    8    9 1    
    17    8  134 1    
    18    8  135 1    
    19    9   10 ar   
    20    9   14 ar   
    21   10   11 ar   
    22   10  136 1    
    23   11   12 ar   
    24   11  126 1    
    25   12   13 ar   
    26   12  137 1    
    27   13   14 ar   
    28   13   15 1    
    29   14  138 1    
    30   15   16 1    
    31   15  139 1    
    32   15  140 1    
    33   16   17 1    
    34   17   18 1    
    35   17  141 1    
    36   17  142 1    
    37   18   19 1    
    38   18   67 1    
    39   18  143 1    
    40   19   20 am   BACKBONE|DICT|INTERRES
    41   19  144 1    
    42   20   21 2    
    43   20   22 1    
    44   22   23 1    
    45   22   24 1    
    46   22  145 1    
    47   23  146 1    
    48   23  147 1    
    49   23  148 1    
    50   24   25 am   BACKBONE|DICT|INTERRES
    51   24  149 1    
    52   25   26 2    
    53   25   27 1    
    54   27   28 1    
    55   27   29 1    
    56   27  150 1    
    57   28  151 1    
    58   28  152 1    
    59   28  153 1    
    60   29   30 am   BACKBONE|DICT|INTERRES
    61   29  154 1    
    62   30   31 2    
    63   30   32 1    
    64   32   33 1    
    65   32   34 1    
    66   32  155 1    
    67   33  156 1    
    68   33  157 1    
    69   33  158 1    
    70   34   35 am   BACKBONE|DICT|INTERRES
    71   34  159 1    
    72   35   36 2    
    73   35   37 1    
    74   37   38 1    
    75   37   39 1    
    76   37  160 1    
    77   38  161 1    
    78   38  162 1    
    79   38  163 1    
    80   39   40 am   BACKBONE|DICT|INTERRES
    81   39  164 1    
    82   40   41 2    
    83   40   42 1    
    84   42   43 1    
    85   42   44 1    
    86   42  165 1    
    87   43  166 1    
    88   43  167 1    
    89   43  168 1    
    90   44   45 am   BACKBONE|DICT|INTERRES
    91   44  169 1    
    92   45   46 2    
    93   45   47 1    
    94   47   48 1    
    95   47   49 1    
    96   47  170 1    
    97   48  171 1    
    98   48  172 1    
    99   48  173 1    
   100   49   50 am   BACKBONE|DICT|INTERRES
   101   49  174 1    
   102   50   51 2    
   103   50   52 1    
   104   52   53 1    
   105   52   54 1    
   106   52  175 1    
   107   53  176 1    
   108   53  177 1    
   109   53  178 1    
   110   54   55 am   BACKBONE|DICT|INTERRES
   111   54  179 1    
   112   55   56 2    
   113   55   57 1    
   114   57   58 1    
   115   57   59 1    
   116   57  180 1    
   117   58  181 1    
   118   58  182 1    
   119   58  183 1    
   120   59   60 am   BACKBONE|DICT|INTERRES
   121   59  184 1    
   122   60   61 2    
   123   60   62 1    
   124   62   63 1    
   125   62   64 1    
   126   62  185 1    
   127   63  186 1    
   128   63  187 1    
   129   63  188 1    
   130   64   65 am   BACKBONE|DICT|INTERRES
   131   64  189 1    
   132   65   66 2    
   133   67   68 2    
   134   67   69 am   BACKBONE|DICT|INTERRES
   135   69   70 1    
   136   69  190 1    
   137   70   71 1    
   138   70   72 1    
   139   70  191 1    
   140   71  192 1    
   141   71  193 1    
   142   71  194 1    
   143   72   73 2    
   144   72   74 am   BACKBONE|DICT|INTERRES
   145   74   75 1    
   146   74  195 1    
   147   75   76 1    
   148   75   77 1    
   149   75  196 1    
   150   76  197 1    
   151   76  198 1    
   152   76  199 1    
   153   77   78 2    
   154   77   79 am   BACKBONE|DICT|INTERRES
   155   79   80 1    
   156   79  200 1    
   157   80   81 1    
   158   80   82 1    
   159   80  201 1    
   160   81  202 1    
   161   81  203 1    
   162   81  204 1    
   163   82   83 2    
   164   82   84 am   BACKBONE|DICT|INTERRES
   165   84   85 1    
   166   84  205 1    
   167   85   86 1    
   168   85   87 1    
   169   85  206 1    
   170   86  207 1    
   171   86  208 1    
   172   86  209 1    
   173   87   88 2    
   174   87   89 am   BACKBONE|DICT|INTERRES
   175   89   90 1    
   176   89  210 1    
   177   90   91 1    
   178   90   92 1    
   179   90  211 1    
   180   91  212 1    
   181   91  213 1    
   182   91  214 1    
   183   92   93 2    
   184   92   94 am   BACKBONE|DICT|INTERRES
   185   94   95 1    
   186   94  215 1    
   187   95   96 1    
   188   95   97 1    
   189   95  216 1    
   190   96  217 1    
   191   96  218 1    
   192   96  219 1    
   193   97   98 2    
   194   97   99 am   BACKBONE|DICT|INTERRES
   195   99  100 1    
   196   99  220 1    
   197  100  101 1    
   198  100  102 1    
   199  100  221 1    
   200  101  222 1    
   201  101  223 1    
   202  101  224 1    
   203  102  103 2    
   204  102  104 am   BACKBONE|DICT|INTERRES
   205  104  105 1    
   206  104  225 1    
   207  105  106 1    
   208  105  107 1    
   209  105  226 1    
   210  106  227 1    
   211  106  228 1    
   212  106  229 1    
   213  107  108 2    
   214  107  109 am   BACKBONE|DICT|INTERRES
   215  109  110 1    
   216  109  230 1    
   217  110  111 1    
   218  110  112 1    
   219  110  231 1    
   220  111  232 1    
   221  111  233 1    
   222  111  234 1    
   223  112  113 2    
   224  112  114 am   BACKBONE|DICT|INTERRES
   225  114  115 1    
   226  114  235 1    
   227  115  116 1    
   228  115  117 1    
   229  115  236 1    
   230  116  237 1    
   231  116  238 1    
   232  116  239 1    
   233  117  118 2    
   234  117  119 am   BACKBONE|DICT|INTERRES
   235  119  120 1    
   236  119  240 1    
   237  120  121 1    
   238  120  124 1    
   239  120  241 1    
   240  121  122 am   BACKBONE|DICT|INTERRES
   241  121  123 2    
   242  122  242 1    
   243  122  243 1    
   244  124  125 1    
   245  124  244 1    
   246  124  245 1    
   247  125  126 1    
   248  126  246 1    
   249  126  247 1    
@<TRIPOS>SUBSTRUCTURE
     1 UNK         1 GROUP             0       ****    0 ROOT    
