@<TRIPOS>MOLECULE
3R540
247   249    1
SMALL
USER_CHARGES


@<TRIPOS>ATOM
      1 CA          4.5100  -14.1306  -45.8894 C.3       0 UNK        -0.1800 
      2 C           3.2004  -13.5289  -45.4079 C.2       0 UNK         0.5000 
      3 O           3.0066  -13.3517  -44.2047 O.2       0 UNK        -0.5000 
      4 N           2.3090  -13.2031  -46.3544 N.am      1 UNK        -0.5000 
      5 CA          0.9907  -12.5941  -46.1177 C.3       1 UNK         0.1400 
      6 C6          0.1150  -12.5802  -47.3967 C.3       23 UNK        -0.0398 
      7 S7         -0.4298  -14.2458  -47.9050 S.3       23 UNK        -0.2404 
      8 C8          0.7627  -14.6454  -49.2177 C.3       23 UNK        -0.0205 
      9 C9          0.5234  -16.0326  -49.7971 C.ar      23 UNK        -0.0193 
     10 C10        -0.5632  -16.2553  -50.6456 C.ar      23 UNK        -0.1150 
     11 C11        -0.7551  -17.5026  -51.2452 C.ar      23 UNK        -0.0193 
     12 C12         0.1507  -18.5370  -50.9877 C.ar      23 UNK        -0.1150 
     13 C13         1.2385  -18.3344  -50.1287 C.ar      23 UNK        -0.0193 
     14 C14         1.4116  -17.0800  -49.5318 C.ar      23 UNK        -0.1150 
     15 C15         2.2820  -19.4275  -49.9032 C.3       23 UNK        -0.0205 
     16 S16         1.5867  -21.0838  -49.5835 S.3       23 UNK        -0.2404 
     17 C17         0.9516  -20.8819  -47.8879 C.3       23 UNK        -0.0398 
     18 CA          0.1505  -22.1107  -47.3851 C.3       11 UNK         0.1400 
     19 N          -0.0573  -22.0515  -45.9352 N.am      11 UNK        -0.5000 
     20 C          -0.6588  -22.9875  -45.1838 C.2       10 UNK         0.5000 
     21 O          -1.0508  -24.0711  -45.6128 O.2       10 UNK        -0.5000 
     22 CA         -0.9246  -22.6128  -43.7133 C.3       10 UNK         0.1400 
     23 CB          0.2809  -22.9755  -42.8346 C.3       10 UNK        -0.1800 
     24 N          -1.2272  -21.1895  -43.5560 N.am      10 UNK        -0.5000 
     25 C          -2.2854  -20.5629  -44.0853 C.2       9 UNK         0.5000 
     26 O          -3.1872  -21.1420  -44.6914 O.2       9 UNK        -0.5000 
     27 CA         -2.2824  -19.0256  -44.0152 C.3       9 UNK         0.1400 
     28 CB         -2.4084  -18.5074  -42.5685 C.3       9 UNK        -0.1800 
     29 N          -1.1328  -18.4342  -44.7174 N.am      9 UNK        -0.5000 
     30 C           0.1638  -18.4830  -44.3801 C.2       8 UNK         0.5000 
     31 O           0.5952  -19.0448  -43.3695 O.2       8 UNK        -0.5000 
     32 CA          1.1478  -17.8119  -45.3478 C.3       8 UNK         0.1400 
     33 CB          0.8937  -16.3018  -45.4616 C.3       8 UNK        -0.1800 
     34 N           2.5065  -18.0367  -44.8739 N.am      8 UNK        -0.5000 
     35 C           3.6252  -17.9322  -45.5976 C.2       7 UNK         0.5000 
     36 O           3.6397  -17.7321  -46.8117 O.2       7 UNK        -0.5000 
     37 CA          4.9330  -17.9712  -44.7920 C.3       7 UNK         0.1400 
     38 CB          6.1859  -17.6585  -45.6343 C.3       7 UNK        -0.1800 
     39 N           4.7915  -17.0118  -43.7006 N.am      7 UNK        -0.5000 
     40 C           5.4643  -17.0038  -42.5469 C.2       6 UNK         0.5000 
     41 O           6.3753  -17.7854  -42.2723 O.2       6 UNK        -0.5000 
     42 CA          5.0138  -15.9507  -41.5148 C.3       6 UNK         0.1400 
     43 CB          5.8094  -14.6515  -41.6905 C.3       6 UNK        -0.1800 
     44 N           3.5748  -15.6586  -41.5856 N.am      6 UNK        -0.5000 
     45 C           2.6261  -16.5269  -41.2024 C.2       5 UNK         0.5000 
     46 O           2.8854  -17.6351  -40.7318 O.2       5 UNK        -0.5000 
     47 CA          1.1561  -16.1066  -41.3774 C.3       5 UNK         0.1400 
     48 CB          0.2267  -16.7316  -40.3183 C.3       5 UNK        -0.1800 
     49 N           0.9852  -14.6547  -41.3888 N.am      5 UNK        -0.5000 
     50 C           0.0195  -14.0104  -42.0516 C.2       4 UNK         0.5000 
     51 O          -0.7571  -14.5619  -42.8318 O.2       4 UNK        -0.5000 
     52 CA         -0.1405  -12.5037  -41.7799 C.3       4 UNK         0.1400 
     53 CB         -0.7528  -12.2500  -40.3889 C.3       4 UNK        -0.1800 
     54 N           1.0685  -11.7013  -41.9859 N.am      4 UNK        -0.5000 
     55 C           2.2292  -11.7058  -41.3128 C.2       3 UNK         0.5000 
     56 O           2.4783  -12.4747  -40.3824 O.2       3 UNK        -0.5000 
     57 CA          3.2813  -10.6729  -41.7687 C.3       3 UNK         0.1400 
     58 CB          4.7262  -11.1299  -41.5140 C.3       3 UNK        -0.1800 
     59 N           3.1275  -10.3858  -43.1933 N.am      3 UNK        -0.5000 
     60 C           2.8160   -9.1987  -43.7290 C.2       2 UNK         0.5000 
     61 O           2.7004   -8.1608  -43.0769 O.2       2 UNK        -0.5000 
     62 CA          2.5640   -9.1679  -45.2518 C.3       2 UNK         0.1400 
     63 CB          3.7981   -8.6256  -45.9887 C.3       2 UNK        -0.1800 
     64 N           2.2140  -10.4760  -45.8149 N.am      2 UNK        -0.5000 
     65 C           1.1019  -11.1707  -45.5295 C.2       1 UNK         0.5000 
     66 O           0.2106  -10.7483  -44.7926 O.2       1 UNK        -0.5000 
     67 C          -1.1887  -22.2584  -48.1375 C.2       11 UNK         0.5000 
     68 O          -1.3376  -23.1706  -48.9500 O.2       11 UNK        -0.5000 
     69 N          -2.1517  -21.3831  -47.8115 N.am      12 UNK        -0.5000 
     70 CA         -3.4948  -21.3899  -48.3856 C.3       12 UNK         0.1400 
     71 CB         -4.2408  -20.1083  -47.9885 C.3       12 UNK        -0.1800 
     72 C          -4.2925  -22.6403  -47.9855 C.2       12 UNK         0.5000 
     73 O          -4.9519  -23.2254  -48.8433 O.2       12 UNK        -0.5000 
     74 N          -4.1926  -23.0476  -46.7123 N.am      13 UNK        -0.5000 
     75 CA         -4.8267  -24.2523  -46.1742 C.3       13 UNK         0.1400 
     76 CB         -4.6081  -24.3204  -44.6558 C.3       13 UNK        -0.1800 
     77 C          -4.3368  -25.5402  -46.8615 C.2       13 UNK         0.5000 
     78 O          -5.1619  -26.3463  -47.2935 O.2       13 UNK        -0.5000 
     79 N          -3.0105  -25.6831  -47.0031 N.am      14 UNK        -0.5000 
     80 CA         -2.3600  -26.7948  -47.7034 C.3       14 UNK         0.1400 
     81 CB         -0.8403  -26.7071  -47.4994 C.3       14 UNK        -0.1800 
     82 C          -2.6988  -26.8431  -49.2053 C.2       14 UNK         0.5000 
     83 O          -2.8098  -27.9309  -49.7710 O.2       14 UNK        -0.5000 
     84 N          -2.8956  -25.6651  -49.8092 N.am      15 UNK        -0.5000 
     85 CA         -3.3118  -25.4794  -51.1976 C.3       15 UNK         0.1400 
     86 CB         -2.7319  -24.1516  -51.7068 C.3       15 UNK        -0.1800 
     87 C          -4.8407  -25.5520  -51.4059 C.2       15 UNK         0.5000 
     88 O          -5.3045  -25.1909  -52.4880 O.2       15 UNK        -0.5000 
     89 N          -5.5923  -26.0118  -50.3927 N.am      16 UNK        -0.5000 
     90 CA         -7.0430  -26.2286  -50.3861 C.3       16 UNK         0.1400 
     91 CB         -7.4365  -27.3297  -51.3938 C.3       16 UNK        -0.1800 
     92 C          -7.8296  -24.9188  -50.5846 C.2       16 UNK         0.5000 
     93 O          -8.5561  -24.7674  -51.5672 O.2       16 UNK        -0.5000 
     94 N          -7.6311  -23.9812  -49.6481 N.am      17 UNK        -0.5000 
     95 CA         -8.1528  -22.6083  -49.6423 C.3       17 UNK         0.1400 
     96 CB         -9.6942  -22.5871  -49.5684 C.3       17 UNK        -0.1800 
     97 C          -7.5792  -21.7770  -50.8081 C.2       17 UNK         0.5000 
     98 O          -8.3034  -21.0235  -51.4598 O.2       17 UNK        -0.5000 
     99 N          -6.2735  -21.9652  -51.0463 N.am      18 UNK        -0.5000 
    100 CA        -5.4378  -21.3603  -52.0867 C.3       18 UNK         0.1400 
    101 CB        -5.3605  -19.8291  -51.9215 C.3       18 UNK        -0.1800 
    102 C         -5.7914  -21.7699  -53.5309 C.2       18 UNK         0.5000 
    103 O         -5.2077  -21.2114  -54.4595 O.2       18 UNK        -0.5000 
    104 N         -6.6883  -22.7476  -53.7209 N.am      19 UNK        -0.5000 
    105 CA        -7.1453  -23.2283  -55.0283 C.3       19 UNK         0.1400 
    106 CB        -8.2612  -24.2632  -54.8257 C.3       19 UNK        -0.1800 
    107 C         -6.0214  -23.8152  -55.9033 C.2       19 UNK         0.5000 
    108 O         -6.0327  -23.6190  -57.1189 O.2       19 UNK        -0.5000 
    109 N         -5.0604  -24.4956  -55.2669 N.am      20 UNK        -0.5000 
    110 CA        -3.8720  -25.0610  -55.9080 C.3       20 UNK         0.1400 
    111 CB        -3.4861  -26.3519  -55.1675 C.3       20 UNK        -0.1800 
    112 C         -2.6821  -24.0775  -55.9546 C.2       20 UNK         0.5000 
    113 O         -1.6186  -24.4567  -56.4479 O.2       20 UNK        -0.5000 
    114 N         -2.8578  -22.8566  -55.4317 N.am      21 UNK        -0.5000 
    115 CA        -1.8371  -21.8169  -55.3488 C.3       21 UNK         0.1400 
    116 CB        -1.4754  -21.5775  -53.8668 C.3       21 UNK        -0.1800 
    117 C         -2.3405  -20.5615  -56.0804 C.2       21 UNK         0.5000 
    118 O         -2.3320  -20.5376  -57.3121 O.2       21 UNK        -0.5000 
    119 N         -2.7442  -19.5405  -55.3166 N.am      22 UNK        -0.5000 
    120 CA        -3.1807  -18.2231  -55.8035 C.3       22 UNK         0.1400 
    121 C         -4.5380  -18.2112  -56.5653 C.2       22 UNK         0.5000 
    122 N         -5.4018  -19.2050  -56.4072 N.am      22 UNK        -0.7600 
    123 O         -4.8085  -17.2799  -57.3188 O.2       22 UNK        -0.5000 
    124 C124       -3.1947  -17.1742  -54.6624 C.3       23 UNK        -0.0398 
    125 S125       -1.5782  -17.0023  -53.8284 S.3       23 UNK        -0.2404 
    126 C126       -1.9292  -17.7118  -52.1883 C.3       23 UNK        -0.0205 
    127 H127        5.1177  -13.3698  -46.3788 H         1 UNK         0.0600 
    128 H128        5.0821  -14.5329  -45.0544 H         1 UNK         0.0600 
    129 H129        4.3257  -14.9374  -46.5990 H         1 UNK         0.0600 
    130 H130        2.5418  -13.3750  -47.3209 H         1 UNK         0.3000 
    131 H131        0.4824  -13.1998  -45.3636 H         1 UNK         0.0600 
    132 H132        0.6334  -12.0881  -48.2215 H         1 UNK         0.0800 
    133 H133       -0.7948  -12.0004  -47.2280 H         1 UNK         0.0800 
    134 H134        0.6859  -13.9044  -50.0149 H         1 UNK         0.0800 
    135 H135        1.7765  -14.5732  -48.8234 H         1 UNK         0.0800 
    136 H136       -1.2497  -15.4475  -50.8580 H         1 UNK         0.1150 
    137 H137        0.0197  -19.4952  -51.4705 H         1 UNK         0.1150 
    138 H138        2.2611  -16.9068  -48.8862 H         1 UNK         0.1150 
    139 H139        2.9084  -19.4847  -50.7942 H         1 UNK         0.0800 
    140 H140        2.9478  -19.1630  -49.0801 H         1 UNK         0.0800 
    141 H141        0.3471  -19.9747  -47.8430 H         1 UNK         0.0800 
    142 H142        1.8125  -20.7088  -47.2401 H         1 UNK         0.0800 
    143 H143        0.7394  -23.0094  -47.5814 H         1 UNK         0.0600 
    144 H144        0.2377  -21.2074  -45.4704 H         1 UNK         0.3000 
    145 H145       -1.7880  -23.1840  -43.3681 H         1 UNK         0.0600 
    146 H146        0.0751  -22.7757  -41.7829 H         1 UNK         0.0600 
    147 H147        0.5234  -24.0354  -42.9225 H         1 UNK         0.0600 
    148 H148        1.1700  -22.4091  -43.1153 H         1 UNK         0.0600 
    149 H149       -0.5075  -20.6081  -43.1355 H         1 UNK         0.3000 
    150 H150       -3.1674  -18.6854  -44.5556 H         1 UNK         0.0600 
    151 H151       -3.3338  -18.8597  -42.1115 H         1 UNK         0.0600 
    152 H152       -2.4269  -17.4176  -42.5428 H         1 UNK         0.0600 
    153 H153       -1.5881  -18.8404  -41.9328 H         1 UNK         0.0600 
    154 H154       -1.3754  -17.9397  -45.5647 H         1 UNK         0.3000 
    155 H155        1.0227  -18.2740  -46.3279 H         1 UNK         0.0600 
    156 H156        1.4734  -15.8823  -46.2824 H         1 UNK         0.0600 
    157 H157        1.1716  -15.7697  -44.5524 H         1 UNK         0.0600 
    158 H158       -0.1542  -16.0791  -45.6602 H         1 UNK         0.0600 
    159 H159        2.5617  -18.2979  -43.8965 H         1 UNK         0.3000 
    160 H160        5.0290  -18.9764  -44.3767 H         1 UNK         0.0600 
    161 H161        6.1418  -16.6596  -46.0682 H         1 UNK         0.0600 
    162 H162        6.2911  -18.3694  -46.4546 H         1 UNK         0.0600 
    163 H163        7.0937  -17.7219  -45.0345 H         1 UNK         0.0600 
    164 H164        4.0493  -16.3365  -43.8172 H         1 UNK         0.3000 
    165 H165        5.2350  -16.3478  -40.5217 H         1 UNK         0.0600 
    166 H166        5.6042  -14.1826  -42.6530 H         1 UNK         0.0600 
    167 H167        5.5682  -13.9390  -40.9019 H         1 UNK         0.0600 
    168 H168        6.8826  -14.8393  -41.6389 H         1 UNK         0.0600 
    169 H169        3.3013  -14.7682  -41.9801 H         1 UNK         0.3000 
    170 H170        0.8597  -16.5006  -42.3485 H         1 UNK         0.0600 
    171 H171        0.2875  -17.8206  -40.3328 H         1 UNK         0.0600 
    172 H172        0.4856  -16.3972  -39.3133 H         1 UNK         0.0600 
    173 H173       -0.8155  -16.4700  -40.5014 H         1 UNK         0.0600 
    174 H174        1.5986  -14.1058  -40.7903 H         1 UNK         0.3000 
    175 H175       -0.8566  -12.1344  -42.5159 H         1 UNK         0.0600 
    176 H176       -0.9576  -11.1903  -40.2367 H         1 UNK         0.0600 
    177 H177       -1.6983  -12.7825  -40.2783 H         1 UNK         0.0600 
    178 H178       -0.0973  -12.5834  -39.5842 H         1 UNK         0.0600 
    179 H179        0.9995  -11.0597  -42.7664 H         1 UNK         0.3000 
    180 H180        3.1018   -9.7762  -41.1726 H         1 UNK         0.0600 
    181 H181        4.9834  -11.9806  -42.1422 H         1 UNK         0.0600 
    182 H182        4.8824  -11.4160  -40.4733 H         1 UNK         0.0600 
    183 H183        5.4319  -10.3299  -41.7381 H         1 UNK         0.0600 
    184 H184        3.1707  -11.1967  -43.7997 H         1 UNK         0.3000 
    185 H185        1.7286   -8.4883  -45.4320 H         1 UNK         0.0600 
    186 H186        3.6087   -8.5277  -47.0578 H         1 UNK         0.0600 
    187 H187        4.0724   -7.6372  -45.6173 H         1 UNK         0.0600 
    188 H188        4.6632   -9.2770  -45.8578 H         1 UNK         0.0600 
    189 H189        2.8984  -10.9010  -46.4233 H         1 UNK         0.3000 
    190 H190       -1.9730  -20.7013  -47.0912 H         1 UNK         0.3000 
    191 H191       -3.3939  -21.3956  -49.4728 H         1 UNK         0.0600 
    192 H192       -3.7194  -19.2215  -48.3493 H         1 UNK         0.0600 
    193 H193       -5.2432  -20.0924  -48.4187 H         1 UNK         0.0600 
    194 H194       -4.3482  -20.0189  -46.9071 H         1 UNK         0.0600 
    195 H195       -3.6666  -22.4771  -46.0573 H         1 UNK         0.3000 
    196 H196       -5.9000  -24.1667  -46.3562 H         1 UNK         0.0600 
    197 H197       -5.1288  -25.1768  -44.2256 H         1 UNK         0.0600 
    198 H198       -4.9875  -23.4259  -44.1613 H         1 UNK         0.0600 
    199 H199       -3.5526  -24.4197  -44.4046 H         1 UNK         0.0600 
    200 H200       -2.3917  -24.9833  -46.6001 H         1 UNK         0.3000 
    201 H201       -2.7129  -27.7254  -47.2543 H         1 UNK         0.0600 
    202 H202       -0.5814  -26.7589  -46.4417 H         1 UNK         0.0600 
    203 H203       -0.4359  -25.7753  -47.8973 H         1 UNK         0.0600 
    204 H204       -0.3287  -27.5298  -48.0004 H         1 UNK         0.0600 
    205 H205       -2.7398  -24.8183  -49.2746 H         1 UNK         0.3000 
    206 H206       -2.8805  -26.2804  -51.8004 H         1 UNK         0.0600 
    207 H207       -1.6423  -24.1701  -51.6850 H         1 UNK         0.0600 
    208 H208       -3.0303  -23.9467  -52.7347 H         1 UNK         0.0600 
    209 H209       -3.0574  -23.3167  -51.0889 H         1 UNK         0.0600 
    210 H210       -5.1232  -26.2277  -49.5220 H         1 UNK         0.3000 
    211 H211       -7.2946  -26.5945  -49.3895 H         1 UNK         0.0600 
    212 H212       -7.2377  -27.0333  -52.4242 H         1 UNK         0.0600 
    213 H213       -8.5002  -27.5591  -51.3218 H         1 UNK         0.0600 
    214 H214       -6.8909  -28.2532  -51.2002 H         1 UNK         0.0600 
    215 H215       -6.9273  -24.1705  -48.9452 H         1 UNK         0.3000 
    216 H216       -7.7766  -22.1455  -48.7288 H         1 UNK         0.0600 
    217 H217      -10.0571  -23.1899  -48.7361 H         1 UNK         0.0600 
    218 H218      -10.1533  -22.9647  -50.4823 H         1 UNK         0.0600 
    219 H219      -10.0612  -21.5714  -49.4175 H         1 UNK         0.0600 
    220 H220       -5.7925  -22.6096  -50.4236 H         1 UNK         0.3000 
    221 H221       -4.4344  -21.7451  -51.9176 H         1 UNK         0.0600 
    222 H222       -5.0567  -19.5541  -50.9119 H         1 UNK         0.0600 
    223 H223       -4.6298  -19.3978  -52.6052 H         1 UNK         0.0600 
    224 H224       -6.3175  -19.3494  -52.1278 H         1 UNK         0.0600 
    225 H225       -7.0868  -23.2029  -52.9107 H         1 UNK         0.3000 
    226 H226       -7.5653  -22.3737  -55.5624 H         1 UNK         0.0600 
    227 H227       -9.0982  -23.8379  -54.2716 H         1 UNK         0.0600 
    228 H228       -8.6485  -24.6154  -55.7825 H         1 UNK         0.0600 
    229 H229       -7.9029  -25.1338  -54.2743 H         1 UNK         0.0600 
    230 H230       -5.1510  -24.6401  -54.2625 H         1 UNK         0.3000 
    231 H231       -4.1100  -25.3282  -56.9396 H         1 UNK         0.0600 
    232 H232       -4.3270  -27.0434  -55.1115 H         1 UNK         0.0600 
    233 H233       -3.1533  -26.1452  -54.1515 H         1 UNK         0.0600 
    234 H234       -2.6736  -26.8699  -55.6785 H         1 UNK         0.0600 
    235 H235       -3.7852  -22.5862  -55.1256 H         1 UNK         0.3000 
    236 H236       -0.9256  -22.1242  -55.8654 H         1 UNK         0.0600 
    237 H237       -0.9977  -22.4597  -53.4414 H         1 UNK         0.0600 
    238 H238       -0.7681  -20.7538  -53.7594 H         1 UNK         0.0600 
    239 H239       -2.3515  -21.3521  -53.2585 H         1 UNK         0.0600 
    240 H240       -2.7362  -19.6599  -54.3169 H         1 UNK         0.3000 
    241 H241       -2.4335  -17.8983  -56.5303 H         1 UNK         0.0600 
    242 H242       -5.2130  -19.9619  -55.7522 H         1 UNK         0.3800 
    243 H243       -6.2730  -19.1886  -56.9115 H         1 UNK         0.3800 
    244 H244       -3.4570  -16.1914  -55.0583 H         1 UNK         0.0800 
    245 H245       -3.9665  -17.4163  -53.9304 H         1 UNK         0.0800 
    246 H246       -2.8193  -17.2421  -51.7666 H         1 UNK         0.0800 
    247 H247       -2.1537  -18.7744  -52.2870 H         1 UNK         0.0800 
@<TRIPOS>BOND
     1    1    2 1    
     2    1  127 1    
     3    1  128 1    
     4    1  129 1    
     5    2    3 2    
     6    2    4 am   BACKBONE|DICT|INTERRES
     7    4    5 1    
     8    4  130 1    
     9    5    6 1    
    10    5   65 1    
    11    5  131 1    
    12    6    7 1    
    13    6  132 1    
    14    6  133 1    
    15    7    8 1    
    16    8    9 1    
    17    8  134 1    
    18    8  135 1    
    19    9   10 ar   
    20    9   14 ar   
    21   10   11 ar   
    22   10  136 1    
    23   11   12 ar   
    24   11  126 1    
    25   12   13 ar   
    26   12  137 1    
    27   13   14 ar   
    28   13   15 1    
    29   14  138 1    
    30   15   16 1    
    31   15  139 1    
    32   15  140 1    
    33   16   17 1    
    34   17   18 1    
    35   17  141 1    
    36   17  142 1    
    37   18   19 1    
    38   18   67 1    
    39   18  143 1    
    40   19   20 am   BACKBONE|DICT|INTERRES
    41   19  144 1    
    42   20   21 2    
    43   20   22 1    
    44   22   23 1    
    45   22   24 1    
    46   22  145 1    
    47   23  146 1    
    48   23  147 1    
    49   23  148 1    
    50   24   25 am   BACKBONE|DICT|INTERRES
    51   24  149 1    
    52   25   26 2    
    53   25   27 1    
    54   27   28 1    
    55   27   29 1    
    56   27  150 1    
    57   28  151 1    
    58   28  152 1    
    59   28  153 1    
    60   29   30 am   BACKBONE|DICT|INTERRES
    61   29  154 1    
    62   30   31 2    
    63   30   32 1    
    64   32   33 1    
    65   32   34 1    
    66   32  155 1    
    67   33  156 1    
    68   33  157 1    
    69   33  158 1    
    70   34   35 am   BACKBONE|DICT|INTERRES
    71   34  159 1    
    72   35   36 2    
    73   35   37 1    
    74   37   38 1    
    75   37   39 1    
    76   37  160 1    
    77   38  161 1    
    78   38  162 1    
    79   38  163 1    
    80   39   40 am   BACKBONE|DICT|INTERRES
    81   39  164 1    
    82   40   41 2    
    83   40   42 1    
    84   42   43 1    
    85   42   44 1    
    86   42  165 1    
    87   43  166 1    
    88   43  167 1    
    89   43  168 1    
    90   44   45 am   BACKBONE|DICT|INTERRES
    91   44  169 1    
    92   45   46 2    
    93   45   47 1    
    94   47   48 1    
    95   47   49 1    
    96   47  170 1    
    97   48  171 1    
    98   48  172 1    
    99   48  173 1    
   100   49   50 am   BACKBONE|DICT|INTERRES
   101   49  174 1    
   102   50   51 2    
   103   50   52 1    
   104   52   53 1    
   105   52   54 1    
   106   52  175 1    
   107   53  176 1    
   108   53  177 1    
   109   53  178 1    
   110   54   55 am   BACKBONE|DICT|INTERRES
   111   54  179 1    
   112   55   56 2    
   113   55   57 1    
   114   57   58 1    
   115   57   59 1    
   116   57  180 1    
   117   58  181 1    
   118   58  182 1    
   119   58  183 1    
   120   59   60 am   BACKBONE|DICT|INTERRES
   121   59  184 1    
   122   60   61 2    
   123   60   62 1    
   124   62   63 1    
   125   62   64 1    
   126   62  185 1    
   127   63  186 1    
   128   63  187 1    
   129   63  188 1    
   130   64   65 am   BACKBONE|DICT|INTERRES
   131   64  189 1    
   132   65   66 2    
   133   67   68 2    
   134   67   69 am   BACKBONE|DICT|INTERRES
   135   69   70 1    
   136   69  190 1    
   137   70   71 1    
   138   70   72 1    
   139   70  191 1    
   140   71  192 1    
   141   71  193 1    
   142   71  194 1    
   143   72   73 2    
   144   72   74 am   BACKBONE|DICT|INTERRES
   145   74   75 1    
   146   74  195 1    
   147   75   76 1    
   148   75   77 1    
   149   75  196 1    
   150   76  197 1    
   151   76  198 1    
   152   76  199 1    
   153   77   78 2    
   154   77   79 am   BACKBONE|DICT|INTERRES
   155   79   80 1    
   156   79  200 1    
   157   80   81 1    
   158   80   82 1    
   159   80  201 1    
   160   81  202 1    
   161   81  203 1    
   162   81  204 1    
   163   82   83 2    
   164   82   84 am   BACKBONE|DICT|INTERRES
   165   84   85 1    
   166   84  205 1    
   167   85   86 1    
   168   85   87 1    
   169   85  206 1    
   170   86  207 1    
   171   86  208 1    
   172   86  209 1    
   173   87   88 2    
   174   87   89 am   BACKBONE|DICT|INTERRES
   175   89   90 1    
   176   89  210 1    
   177   90   91 1    
   178   90   92 1    
   179   90  211 1    
   180   91  212 1    
   181   91  213 1    
   182   91  214 1    
   183   92   93 2    
   184   92   94 am   BACKBONE|DICT|INTERRES
   185   94   95 1    
   186   94  215 1    
   187   95   96 1    
   188   95   97 1    
   189   95  216 1    
   190   96  217 1    
   191   96  218 1    
   192   96  219 1    
   193   97   98 2    
   194   97   99 am   BACKBONE|DICT|INTERRES
   195   99  100 1    
   196   99  220 1    
   197  100  101 1    
   198  100  102 1    
   199  100  221 1    
   200  101  222 1    
   201  101  223 1    
   202  101  224 1    
   203  102  103 2    
   204  102  104 am   BACKBONE|DICT|INTERRES
   205  104  105 1    
   206  104  225 1    
   207  105  106 1    
   208  105  107 1    
   209  105  226 1    
   210  106  227 1    
   211  106  228 1    
   212  106  229 1    
   213  107  108 2    
   214  107  109 am   BACKBONE|DICT|INTERRES
   215  109  110 1    
   216  109  230 1    
   217  110  111 1    
   218  110  112 1    
   219  110  231 1    
   220  111  232 1    
   221  111  233 1    
   222  111  234 1    
   223  112  113 2    
   224  112  114 am   BACKBONE|DICT|INTERRES
   225  114  115 1    
   226  114  235 1    
   227  115  116 1    
   228  115  117 1    
   229  115  236 1    
   230  116  237 1    
   231  116  238 1    
   232  116  239 1    
   233  117  118 2    
   234  117  119 am   BACKBONE|DICT|INTERRES
   235  119  120 1    
   236  119  240 1    
   237  120  121 1    
   238  120  124 1    
   239  120  241 1    
   240  121  122 am   BACKBONE|DICT|INTERRES
   241  121  123 2    
   242  122  242 1    
   243  122  243 1    
   244  124  125 1    
   245  124  244 1    
   246  124  245 1    
   247  125  126 1    
   248  126  246 1    
   249  126  247 1    
@<TRIPOS>SUBSTRUCTURE
     1 UNK         1 GROUP             0       ****    0 ROOT    
